MODEL        1
REMARK 921   NORMALIZED FREE ENERGY PREDICTED BY IDOCK:   -7.00 KCAL/MOL
REMARK 922        TOTAL FREE ENERGY PREDICTED BY IDOCK:   -7.42 KCAL/MOL
REMARK 923 INTER-LIGAND FREE ENERGY PREDICTED BY IDOCK:   -7.41 KCAL/MOL
REMARK 924 INTRA-LIGAND FREE ENERGY PREDICTED BY IDOCK:   -0.01 KCAL/MOL
REMARK 927      BINDING AFFINITY PREDICTED BY RF-SCORE:    0.00 PKD
ROOT
HETATM    1  C   UNL     1      -9.972  14.412  67.696  1.00  0.00    -0.224 C  
HETATM    2  C   UNL     1     -10.733  14.547  66.511  1.00  0.00    -0.312 C  
HETATM    3  C   UNL     1     -11.444  14.684  67.806  1.00  0.00    -0.359 C  
HETATM    4  C   UNL     1     -10.178  14.990  69.407  1.00  0.00    -0.223 C  
HETATM    5  C   UNL     1     -10.835  15.903  68.631  1.00  0.00    -0.291 C  
HETATM    6  C   UNL     1     -12.745  11.108  71.288  1.00  0.00    -0.531 C  
HETATM    7  O   UNL     1     -10.456  15.455  70.731  1.00  0.00    -0.437 OA 
HETATM    8  C   UNL     1     -12.390  15.523  69.593  1.00  0.00    -0.221 C  
HETATM    9  C   UNL     1     -10.530  17.329  68.269  1.00  0.00    -0.385 C  
HETATM   10  O   UNL     1     -11.487   8.205  72.726  1.00  0.00    -0.408 OA 
HETATM   11  H   UNL     1      -9.874  15.596  71.467  1.00  0.00     0.000 HD 
HETATM   12  C   UNL     1     -12.368  13.925  70.246  1.00  0.00    -0.413 C  
HETATM   13  C   UNL     1     -11.722  12.638  69.446  1.00  0.00    -0.387 C  
HETATM   14  C   UNL     1     -11.698  11.296  70.205  1.00  0.00    -0.415 C  
HETATM   15  C   UNL     1     -10.879  10.277  69.835  1.00  0.00    -0.355 C  
HETATM   16  C   UNL     1      -9.897  10.351  68.673  1.00  0.00    -0.183 C  
HETATM   17  C   UNL     1     -10.887   8.920  70.509  1.00  0.00    -0.276 C  
HETATM   18  C   UNL     1     -10.107  11.538  67.702  1.00  0.00    -0.202 C  
HETATM   19  C   UNL     1     -11.758   8.898  71.745  1.00  0.00    -0.362 C  
HETATM   20  C   UNL     1     -11.263  11.161  66.757  1.00  0.00    -0.215 C  
HETATM   21  C   UNL     1     -10.298  12.807  68.567  1.00  0.00    -0.231 C  
HETATM   22  C   UNL     1     -13.048   9.658  71.645  1.00  0.00    -0.503 C  
ENDROOT
BRANCH   4  23
HETATM   23  C   UNL     1      -8.673  15.386  69.351  1.00  0.00    -0.252 C  
HETATM   24  C   UNL     1      -7.513  15.707  69.356  1.00  0.00    -0.221 C  
ENDBRANCH   4  23
TORSDOF 1
ENDMDL
MODEL        2
REMARK 921   NORMALIZED FREE ENERGY PREDICTED BY IDOCK:   -6.60 KCAL/MOL
REMARK 922        TOTAL FREE ENERGY PREDICTED BY IDOCK:   -7.00 KCAL/MOL
REMARK 923 INTER-LIGAND FREE ENERGY PREDICTED BY IDOCK:   -7.04 KCAL/MOL
REMARK 924 INTRA-LIGAND FREE ENERGY PREDICTED BY IDOCK:    0.04 KCAL/MOL
REMARK 927      BINDING AFFINITY PREDICTED BY RF-SCORE:    0.00 PKD
ROOT
HETATM    1  C   UNL     1      -8.922  15.215  66.556  1.00  0.00    -0.326 C  
HETATM    2  C   UNL     1      -9.587  15.542  65.350  1.00  0.00    -0.150 C  
HETATM    3  C   UNL     1      -9.768  16.454  66.506  1.00  0.00    -0.287 C  
HETATM    4  C   UNL     1      -8.371  16.174  67.998  1.00  0.00    -0.163 C  
HETATM    5  C   UNL     1      -8.360  17.051  66.950  1.00  0.00    -0.247 C  
HETATM    6  C   UNL     1     -12.493  15.839  70.841  1.00  0.00    -0.451 C  
HETATM    7  O   UNL     1      -8.016  17.010  69.103  1.00  0.00    -0.192 OA 
HETATM    8  C   UNL     1      -9.553  18.124  67.905  1.00  0.00    -0.290 C  
HETATM    9  C   UNL     1      -7.241  17.702  66.187  1.00  0.00    -0.352 C  
HETATM   10  O   UNL     1     -13.306  13.374  73.153  1.00  0.00    -0.412 OA 
HETATM   11  H   UNL     1      -7.373  16.881  69.789  1.00  0.00     0.000 HD 
HETATM   12  C   UNL     1     -10.503  17.201  69.012  1.00  0.00    -0.321 C  
HETATM   13  C   UNL     1     -11.058  15.688  68.674  1.00  0.00    -0.317 C  
HETATM   14  C   UNL     1     -11.815  14.962  69.805  1.00  0.00    -0.356 C  
HETATM   15  C   UNL     1     -11.987  13.615  69.803  1.00  0.00    -0.404 C  
HETATM   16  C   UNL     1     -11.445  12.687  68.722  1.00  0.00    -0.349 C  
HETATM   17  C   UNL     1     -12.792  12.880  70.856  1.00  0.00    -0.203 C  
HETATM   18  C   UNL     1     -10.965  13.386  67.428  1.00  0.00    -0.287 C  
HETATM   19  C   UNL     1     -13.206  13.783  71.996  1.00  0.00    -0.432 C  
HETATM   20  C   UNL     1     -12.215  13.706  66.587  1.00  0.00    -0.437 C  
HETATM   21  C   UNL     1     -10.086  14.586  67.856  1.00  0.00    -0.227 C  
HETATM   22  C   UNL     1     -13.629  15.169  71.606  1.00  0.00    -0.560 C  
ENDROOT
BRANCH   4  23
HETATM   23  C   UNL     1      -7.039  15.372  67.898  1.00  0.00    -0.156 C  
HETATM   24  C   UNL     1      -6.001  14.776  67.776  1.00  0.00    -0.124 C  
ENDBRANCH   4  23
TORSDOF 1
ENDMDL
MODEL        3
REMARK 921   NORMALIZED FREE ENERGY PREDICTED BY IDOCK:   -6.56 KCAL/MOL
REMARK 922        TOTAL FREE ENERGY PREDICTED BY IDOCK:   -6.95 KCAL/MOL
REMARK 923 INTER-LIGAND FREE ENERGY PREDICTED BY IDOCK:   -6.94 KCAL/MOL
REMARK 924 INTRA-LIGAND FREE ENERGY PREDICTED BY IDOCK:   -0.01 KCAL/MOL
REMARK 927      BINDING AFFINITY PREDICTED BY RF-SCORE:    0.00 PKD
ROOT
HETATM    1  C   UNL     1     -10.516  14.507  65.762  1.00  0.00    -0.335 C  
HETATM    2  C   UNL     1     -11.765  14.811  65.169  1.00  0.00    -0.337 C  
HETATM    3  C   UNL     1     -11.774  14.102  66.473  1.00  0.00    -0.414 C  
HETATM    4  C   UNL     1      -9.967  14.185  67.464  1.00  0.00    -0.236 C  
HETATM    5  C   UNL     1     -11.060  14.997  67.580  1.00  0.00    -0.317 C  
HETATM    6  C   UNL     1     -10.610   9.209  67.615  1.00  0.00    -0.307 C  
HETATM    7  O   UNL     1      -9.646  13.904  68.829  1.00  0.00    -0.352 OA 
HETATM    8  C   UNL     1     -11.868  13.670  68.617  1.00  0.00    -0.409 C  
HETATM    9  C   UNL     1     -11.213  16.436  67.985  1.00  0.00    -0.235 C  
HETATM   10  O   UNL     1      -8.345   6.729  66.721  1.00  0.00    -0.112 OA 
HETATM   11  H   UNL     1      -8.815  13.942  69.286  1.00  0.00     0.000 HD 
HETATM   12  C   UNL     1     -11.265  12.098  68.235  1.00  0.00    -0.319 C  
HETATM   13  C   UNL     1     -10.878  11.634  66.703  1.00  0.00    -0.327 C  
HETATM   14  C   UNL     1     -10.264  10.227  66.544  1.00  0.00    -0.289 C  
HETATM   15  C   UNL     1      -9.567   9.872  65.435  1.00  0.00    -0.350 C  
HETATM   16  C   UNL     1      -9.294  10.805  64.261  1.00  0.00    -0.281 C  
HETATM   17  C   UNL     1      -9.019   8.476  65.211  1.00  0.00    -0.102 C  
HETATM   18  C   UNL     1     -10.144  12.098  64.232  1.00  0.00    -0.317 C  
HETATM   19  C   UNL     1      -9.168   7.598  66.434  1.00  0.00    -0.175 C  
HETATM   20  C   UNL     1     -11.529  11.728  63.672  1.00  0.00    -0.524 C  
HETATM   21  C   UNL     1     -10.106  12.701  65.657  1.00  0.00    -0.285 C  
HETATM   22  C   UNL     1     -10.454   7.753  67.192  1.00  0.00    -0.413 C  
ENDROOT
BRANCH   4  23
HETATM   23  C   UNL     1      -8.766  15.127  67.150  1.00  0.00    -0.238 C  
HETATM   24  C   UNL     1      -7.825  15.850  66.957  1.00  0.00    -0.267 C  
ENDBRANCH   4  23
TORSDOF 1
ENDMDL
MODEL        4
REMARK 921   NORMALIZED FREE ENERGY PREDICTED BY IDOCK:   -6.55 KCAL/MOL
REMARK 922        TOTAL FREE ENERGY PREDICTED BY IDOCK:   -6.94 KCAL/MOL
REMARK 923 INTER-LIGAND FREE ENERGY PREDICTED BY IDOCK:   -6.92 KCAL/MOL
REMARK 924 INTRA-LIGAND FREE ENERGY PREDICTED BY IDOCK:   -0.02 KCAL/MOL
REMARK 927      BINDING AFFINITY PREDICTED BY RF-SCORE:    0.00 PKD
ROOT
HETATM    1  C   UNL     1      -9.754  14.266  66.346  1.00  0.00    -0.315 C  
HETATM    2  C   UNL     1      -8.438  13.760  66.465  1.00  0.00     0.299 C  
HETATM    3  C   UNL     1      -9.549  12.918  66.973  1.00  0.00    -0.231 C  
HETATM    4  C   UNL     1     -11.404  13.505  66.284  1.00  0.00    -0.309 C  
HETATM    5  C   UNL     1     -10.548  12.564  65.783  1.00  0.00    -0.299 C  
HETATM    6  C   UNL     1     -12.473  13.448  71.188  1.00  0.00    -0.414 C  
HETATM    7  O   UNL     1     -12.654  12.811  66.289  1.00  0.00    -0.375 OA 
HETATM    8  C   UNL     1     -11.122  11.403  67.129  1.00  0.00    -0.366 C  
HETATM    9  C   UNL     1     -10.334  12.027  64.396  1.00  0.00    -0.342 C  
HETATM   10  O   UNL     1     -14.007  15.932  73.074  1.00  0.00    -0.573 OA 
HETATM   11  H   UNL     1     -13.508  13.081  65.972  1.00  0.00     0.000 HD 
HETATM   12  C   UNL     1     -11.682  12.258  68.520  1.00  0.00    -0.381 C  
HETATM   13  C   UNL     1     -10.982  13.646  69.062  1.00  0.00    -0.271 C  
HETATM   14  C   UNL     1     -11.660  14.336  70.264  1.00  0.00    -0.289 C  
HETATM   15  C   UNL     1     -11.430  15.640  70.565  1.00  0.00    -0.380 C  
HETATM   16  C   UNL     1     -10.519  16.555  69.755  1.00  0.00    -0.215 C  
HETATM   17  C   UNL     1     -12.016  16.327  71.782  1.00  0.00    -0.473 C  
HETATM   18  C   UNL     1      -9.586  15.840  68.749  1.00  0.00    -0.216 C  
HETATM   19  C   UNL     1     -13.026  15.459  72.499  1.00  0.00    -0.404 C  
HETATM   20  C   UNL     1      -8.391  15.283  69.544  1.00  0.00    -0.190 C  
HETATM   21  C   UNL     1     -10.449  14.814  67.976  1.00  0.00    -0.246 C  
HETATM   22  C   UNL     1     -12.681  14.002  72.593  1.00  0.00    -0.324 C  
ENDROOT
BRANCH   4  23
HETATM   23  C   UNL     1     -11.702  14.481  65.107  1.00  0.00    -0.376 C  
HETATM   24  C   UNL     1     -11.982  15.236  64.214  1.00  0.00    -0.236 C  
ENDBRANCH   4  23
TORSDOF 1
ENDMDL
MODEL        5
REMARK 921   NORMALIZED FREE ENERGY PREDICTED BY IDOCK:   -6.49 KCAL/MOL
REMARK 922        TOTAL FREE ENERGY PREDICTED BY IDOCK:   -6.89 KCAL/MOL
REMARK 923 INTER-LIGAND FREE ENERGY PREDICTED BY IDOCK:   -6.88 KCAL/MOL
REMARK 924 INTRA-LIGAND FREE ENERGY PREDICTED BY IDOCK:   -0.00 KCAL/MOL
REMARK 927      BINDING AFFINITY PREDICTED BY RF-SCORE:    0.00 PKD
ROOT
HETATM    1  C   UNL     1     -10.735  12.905  67.598  1.00  0.00    -0.237 C  
HETATM    2  C   UNL     1     -12.028  12.643  68.111  1.00  0.00    -0.274 C  
HETATM    3  C   UNL     1     -11.931  13.407  66.843  1.00  0.00    -0.437 C  
HETATM    4  C   UNL     1     -10.079  13.271  65.943  1.00  0.00    -0.291 C  
HETATM    5  C   UNL     1     -11.205  12.525  65.734  1.00  0.00    -0.356 C  
HETATM    6  C   UNL     1     -10.457  18.275  65.990  1.00  0.00    -0.380 C  
HETATM    7  O   UNL     1      -9.672  13.593  64.611  1.00  0.00    -0.570 OA 
HETATM    8  C   UNL     1     -11.887  13.937  64.719  1.00  0.00    -0.414 C  
HETATM    9  C   UNL     1     -11.410  11.115  65.256  1.00  0.00     0.118 C  
HETATM   10  O   UNL     1      -8.119  20.589  67.113  1.00  0.00    -0.336 OA 
HETATM   11  H   UNL     1      -8.819  13.531  64.197  1.00  0.00     0.000 HD 
HETATM   12  C   UNL     1     -11.225  15.455  65.204  1.00  0.00    -0.354 C  
HETATM   13  C   UNL     1     -10.897  15.831  66.774  1.00  0.00    -0.254 C  
HETATM   14  C   UNL     1     -10.222  17.194  67.029  1.00  0.00    -0.313 C  
HETATM   15  C   UNL     1      -9.568  17.464  68.188  1.00  0.00    -0.287 C  
HETATM   16  C   UNL     1      -9.408  16.467  69.330  1.00  0.00    -0.175 C  
HETATM   17  C   UNL     1      -8.962  18.817  68.504  1.00  0.00    -0.375 C  
HETATM   18  C   UNL     1     -10.323  15.221  69.255  1.00  0.00    -0.259 C  
HETATM   19  C   UNL     1      -9.000  19.753  67.317  1.00  0.00    -0.326 C  
HETATM   20  C   UNL     1     -11.716  15.641  69.759  1.00  0.00    -0.368 C  
HETATM   21  C   UNL     1     -10.239  14.679  67.808  1.00  0.00    -0.229 C  
HETATM   22  C   UNL     1     -10.249  19.701  66.488  1.00  0.00    -0.588 C  
ENDROOT
BRANCH   4  23
HETATM   23  C   UNL     1      -8.947  12.252  66.275  1.00  0.00    -0.068 C  
HETATM   24  C   UNL     1      -8.047  11.505  66.552  1.00  0.00    -0.112 C  
ENDBRANCH   4  23
TORSDOF 1
ENDMDL
MODEL        6
REMARK 921   NORMALIZED FREE ENERGY PREDICTED BY IDOCK:   -6.48 KCAL/MOL
REMARK 922        TOTAL FREE ENERGY PREDICTED BY IDOCK:   -6.87 KCAL/MOL
REMARK 923 INTER-LIGAND FREE ENERGY PREDICTED BY IDOCK:   -6.86 KCAL/MOL
REMARK 924 INTRA-LIGAND FREE ENERGY PREDICTED BY IDOCK:   -0.01 KCAL/MOL
REMARK 927      BINDING AFFINITY PREDICTED BY RF-SCORE:    0.00 PKD
ROOT
HETATM    1  C   UNL     1      -9.235  13.767  67.301  1.00  0.00    -0.239 C  
HETATM    2  C   UNL     1      -9.843  13.790  66.023  1.00  0.00    -0.298 C  
HETATM    3  C   UNL     1     -10.689  14.128  67.194  1.00  0.00    -0.280 C  
HETATM    4  C   UNL     1      -9.600  14.568  68.891  1.00  0.00    -0.158 C  
HETATM    5  C   UNL     1     -10.098  15.409  67.936  1.00  0.00    -0.226 C  
HETATM    6  C   UNL     1     -12.627  11.100  70.891  1.00  0.00    -0.483 C  
HETATM    7  O   UNL     1      -9.998  15.212  70.105  1.00  0.00    -0.492 OA 
HETATM    8  C   UNL     1     -11.777  15.237  68.736  1.00  0.00    -0.374 C  
HETATM    9  C   UNL     1      -9.657  16.759  67.446  1.00  0.00    -0.236 C  
HETATM   10  O   UNL     1     -11.746   8.340  72.811  1.00  0.00    -0.397 OA 
HETATM   11  H   UNL     1      -9.497  15.414  70.885  1.00  0.00     0.000 HD 
HETATM   12  C   UNL     1     -11.940  13.736  69.573  1.00  0.00    -0.399 C  
HETATM   13  C   UNL     1     -11.295  12.326  69.019  1.00  0.00    -0.333 C  
HETATM   14  C   UNL     1     -11.451  11.091  69.931  1.00  0.00    -0.400 C  
HETATM   15  C   UNL     1     -10.666   9.992  69.790  1.00  0.00    -0.304 C  
HETATM   16  C   UNL     1      -9.552   9.865  68.758  1.00  0.00    -0.160 C  
HETATM   17  C   UNL     1     -10.845   8.734  70.616  1.00  0.00    -0.273 C  
HETATM   18  C   UNL     1      -9.566  10.928  67.634  1.00  0.00    -0.177 C  
HETATM   19  C   UNL     1     -11.854   8.916  71.728  1.00  0.00    -0.358 C  
HETATM   20  C   UNL     1     -10.628  10.497  66.605  1.00  0.00    -0.263 C  
HETATM   21  C   UNL     1      -9.770  12.306  68.310  1.00  0.00    -0.219 C  
HETATM   22  C   UNL     1     -13.068   9.724  71.378  1.00  0.00    -0.489 C  
ENDROOT
BRANCH   4  23
HETATM   23  C   UNL     1      -8.075  14.873  68.975  1.00  0.00    -0.165 C  
HETATM   24  C   UNL     1      -6.905  15.133  69.084  1.00  0.00    -0.136 C  
ENDBRANCH   4  23
TORSDOF 1
ENDMDL
MODEL        7
REMARK 921   NORMALIZED FREE ENERGY PREDICTED BY IDOCK:   -6.48 KCAL/MOL
REMARK 922        TOTAL FREE ENERGY PREDICTED BY IDOCK:   -6.87 KCAL/MOL
REMARK 923 INTER-LIGAND FREE ENERGY PREDICTED BY IDOCK:   -6.86 KCAL/MOL
REMARK 924 INTRA-LIGAND FREE ENERGY PREDICTED BY IDOCK:   -0.02 KCAL/MOL
REMARK 927      BINDING AFFINITY PREDICTED BY RF-SCORE:    0.00 PKD
ROOT
HETATM    1  C   UNL     1      -9.452  15.074  66.275  1.00  0.00    -0.342 C  
HETATM    2  C   UNL     1     -10.373  15.399  65.251  1.00  0.00    -0.420 C  
HETATM    3  C   UNL     1     -10.759  15.711  66.649  1.00  0.00    -0.296 C  
HETATM    4  C   UNL     1      -9.169  15.684  67.964  1.00  0.00    -0.184 C  
HETATM    5  C   UNL     1      -9.716  16.735  67.283  1.00  0.00    -0.250 C  
HETATM    6  C   UNL     1     -12.203  12.581  70.485  1.00  0.00    -0.382 C  
HETATM    7  O   UNL     1      -9.057  16.203  69.292  1.00  0.00    -0.252 OA 
HETATM    8  C   UNL     1     -11.096  16.761  68.540  1.00  0.00    -0.260 C  
HETATM    9  C   UNL     1      -9.141  18.037  66.799  1.00  0.00    -0.280 C  
HETATM   10  O   UNL     1     -11.453   9.452  71.799  1.00  0.00    -0.380 OA 
HETATM   11  H   UNL     1      -8.325  16.191  69.897  1.00  0.00     0.000 HD 
HETATM   12  C   UNL     1     -11.347  15.210  69.254  1.00  0.00    -0.313 C  
HETATM   13  C   UNL     1     -11.212  13.802  68.410  1.00  0.00    -0.300 C  
HETATM   14  C   UNL     1     -11.376  12.497  69.216  1.00  0.00    -0.307 C  
HETATM   15  C   UNL     1     -10.926  11.304  68.747  1.00  0.00    -0.270 C  
HETATM   16  C   UNL     1     -10.203  11.127  67.418  1.00  0.00    -0.221 C  
HETATM   17  C   UNL     1     -11.140   9.993  69.476  1.00  0.00    -0.279 C  
HETATM   18  C   UNL     1     -10.296  12.329  66.447  1.00  0.00    -0.250 C  
HETATM   19  C   UNL     1     -11.729  10.192  70.855  1.00  0.00    -0.378 C  
HETATM   20  C   UNL     1     -11.672  12.259  65.758  1.00  0.00    -0.445 C  
HETATM   21  C   UNL     1      -9.991  13.604  67.269  1.00  0.00    -0.240 C  
HETATM   22  C   UNL     1     -12.783  11.255  70.964  1.00  0.00    -0.457 C  
ENDROOT
BRANCH   4  23
HETATM   23  C   UNL     1      -7.653  15.684  67.604  1.00  0.00    -0.179 C  
HETATM   24  C   UNL     1      -6.474  15.656  67.367  1.00  0.00    -0.172 C  
ENDBRANCH   4  23
TORSDOF 1
ENDMDL
MODEL        8
REMARK 921   NORMALIZED FREE ENERGY PREDICTED BY IDOCK:   -6.42 KCAL/MOL
REMARK 922        TOTAL FREE ENERGY PREDICTED BY IDOCK:   -6.81 KCAL/MOL
REMARK 923 INTER-LIGAND FREE ENERGY PREDICTED BY IDOCK:   -6.79 KCAL/MOL
REMARK 924 INTRA-LIGAND FREE ENERGY PREDICTED BY IDOCK:   -0.02 KCAL/MOL
REMARK 927      BINDING AFFINITY PREDICTED BY RF-SCORE:    0.00 PKD
ROOT
HETATM    1  C   UNL     1     -10.798  12.578  68.592  1.00  0.00    -0.280 C  
HETATM    2  C   UNL     1     -12.157  12.213  68.743  1.00  0.00    -0.166 C  
HETATM    3  C   UNL     1     -11.733  12.764  67.433  1.00  0.00    -0.425 C  
HETATM    4  C   UNL     1      -9.687  12.762  67.165  1.00  0.00    -0.216 C  
HETATM    5  C   UNL     1     -10.614  11.831  66.789  1.00  0.00    -0.273 C  
HETATM    6  C   UNL     1     -10.520  17.591  66.083  1.00  0.00    -0.288 C  
HETATM    7  O   UNL     1      -8.909  12.919  65.975  1.00  0.00    -0.408 OA 
HETATM    8  C   UNL     1     -11.066  12.938  65.355  1.00  0.00    -0.309 C  
HETATM    9  C   UNL     1     -10.526  10.347  66.568  1.00  0.00    -0.262 C  
HETATM   10  O   UNL     1      -8.882  20.383  67.350  1.00  0.00    -0.344 OA 
HETATM   11  H   UNL     1      -7.968  12.917  65.851  1.00  0.00     0.000 HD 
HETATM   12  C   UNL     1     -10.735  14.598  65.694  1.00  0.00    -0.340 C  
HETATM   13  C   UNL     1     -10.959  15.271  67.180  1.00  0.00    -0.331 C  
HETATM   14  C   UNL     1     -10.528  16.744  67.341  1.00  0.00    -0.310 C  
HETATM   15  C   UNL     1     -10.303  17.295  68.562  1.00  0.00    -0.371 C  
HETATM   16  C   UNL     1     -10.422  16.535  69.877  1.00  0.00    -0.166 C  
HETATM   17  C   UNL     1      -9.956  18.757  68.760  1.00  0.00    -0.442 C  
HETATM   18  C   UNL     1     -11.147  15.170  69.791  1.00  0.00    -0.295 C  
HETATM   19  C   UNL     1      -9.701  19.469  67.451  1.00  0.00    -0.341 C  
HETATM   20  C   UNL     1     -12.661  15.453  69.767  1.00  0.00    -0.138 C  
HETATM   21  C   UNL     1     -10.559  14.417  68.573  1.00  0.00    -0.256 C  
HETATM   22  C   UNL     1     -10.613  19.094  66.319  1.00  0.00    -0.521 C  
ENDROOT
BRANCH   4  23
HETATM   23  C   UNL     1      -8.630  11.994  68.014  1.00  0.00    -0.170 C  
HETATM   24  C   UNL     1      -7.778  11.417  68.637  1.00  0.00    -0.137 C  
ENDBRANCH   4  23
TORSDOF 1
ENDMDL
MODEL        9
REMARK 921   NORMALIZED FREE ENERGY PREDICTED BY IDOCK:   -6.39 KCAL/MOL
REMARK 922        TOTAL FREE ENERGY PREDICTED BY IDOCK:   -6.78 KCAL/MOL
REMARK 923 INTER-LIGAND FREE ENERGY PREDICTED BY IDOCK:   -6.76 KCAL/MOL
REMARK 924 INTRA-LIGAND FREE ENERGY PREDICTED BY IDOCK:   -0.02 KCAL/MOL
REMARK 927      BINDING AFFINITY PREDICTED BY RF-SCORE:    0.00 PKD
ROOT
HETATM    1  C   UNL     1     -11.290  14.404  65.847  1.00  0.00    -0.332 C  
HETATM    2  C   UNL     1     -12.692  14.408  65.654  1.00  0.00    -0.302 C  
HETATM    3  C   UNL     1     -12.150  13.570  66.751  1.00  0.00    -0.425 C  
HETATM    4  C   UNL     1     -10.207  14.043  67.261  1.00  0.00    -0.260 C  
HETATM    5  C   UNL     1     -11.380  14.486  67.803  1.00  0.00    -0.335 C  
HETATM    6  C   UNL     1      -9.559   9.114  66.572  1.00  0.00    -0.289 C  
HETATM    7  O   UNL     1      -9.444  13.698  68.420  1.00  0.00    -0.208 OA 
HETATM    8  C   UNL     1     -11.506  12.866  68.722  1.00  0.00    -0.345 C  
HETATM    9  C   UNL     1     -11.751  15.759  68.511  1.00  0.00    -0.328 C  
HETATM   10  O   UNL     1      -7.127   7.519  64.671  1.00  0.00    -0.059 OA 
HETATM   11  H   UNL     1      -8.550  13.915  68.654  1.00  0.00     0.000 HD 
HETATM   12  C   UNL     1     -10.680  11.593  67.897  1.00  0.00    -0.241 C  
HETATM   13  C   UNL     1     -10.658  11.454  66.257  1.00  0.00    -0.312 C  
HETATM   14  C   UNL     1      -9.797  10.314  65.674  1.00  0.00    -0.332 C  
HETATM   15  C   UNL     1      -9.390  10.314  64.378  1.00  0.00    -0.329 C  
HETATM   16  C   UNL     1      -9.706  11.424  63.384  1.00  0.00    -0.385 C  
HETATM   17  C   UNL     1      -8.612   9.173  63.753  1.00  0.00    -0.185 C  
HETATM   18  C   UNL     1     -10.812  12.413  63.824  1.00  0.00    -0.500 C  
HETATM   19  C   UNL     1      -8.182   8.144  64.775  1.00  0.00    -0.133 C  
HETATM   20  C   UNL     1     -12.169  11.734  63.563  1.00  0.00    -0.489 C  
HETATM   21  C   UNL     1     -10.506  12.819  65.286  1.00  0.00    -0.312 C  
HETATM   22  C   UNL     1      -9.188   7.828  65.843  1.00  0.00    -0.078 C  
ENDROOT
BRANCH   4  23
HETATM   23  C   UNL     1      -9.415  15.321  66.853  1.00  0.00    -0.249 C  
HETATM   24  C   UNL     1      -8.760  16.285  66.555  1.00  0.00    -0.327 C  
ENDBRANCH   4  23
TORSDOF 1
ENDMDL
MODEL       10
REMARK 921   NORMALIZED FREE ENERGY PREDICTED BY IDOCK:   -6.37 KCAL/MOL
REMARK 922        TOTAL FREE ENERGY PREDICTED BY IDOCK:   -6.76 KCAL/MOL
REMARK 923 INTER-LIGAND FREE ENERGY PREDICTED BY IDOCK:   -6.76 KCAL/MOL
REMARK 924 INTRA-LIGAND FREE ENERGY PREDICTED BY IDOCK:    0.00 KCAL/MOL
REMARK 927      BINDING AFFINITY PREDICTED BY RF-SCORE:    0.00 PKD
ROOT
HETATM    1  C   UNL     1     -11.227   7.611  72.121  1.00  0.00    -0.331 C  
HETATM    2  C   UNL     1     -12.228   6.685  71.744  1.00  0.00    -0.400 C  
HETATM    3  C   UNL     1     -11.338   7.209  70.679  1.00  0.00    -0.327 C  
HETATM    4  C   UNL     1      -9.632   8.113  71.408  1.00  0.00    -0.165 C  
HETATM    5  C   UNL     1      -9.825   6.823  71.000  1.00  0.00    -0.192 C  
HETATM    6  C   UNL     1     -11.187  11.856  68.448  1.00  0.00    -0.312 C  
HETATM    7  O   UNL     1      -8.416   8.466  70.743  1.00  0.00    -0.121 OA 
HETATM    8  C   UNL     1      -9.706   7.420  69.235  1.00  0.00    -0.165 C  
HETATM    9  C   UNL     1      -9.161   5.530  71.381  1.00  0.00    -0.157 C  
HETATM   10  O   UNL     1     -11.553  15.216  69.259  1.00  0.00    -0.287 OA 
HETATM   11  H   UNL     1      -7.631   8.882  71.079  1.00  0.00     0.000 HD 
HETATM   12  C   UNL     1     -10.176   9.074  69.082  1.00  0.00    -0.213 C  
HETATM   13  C   UNL     1     -11.405   9.742  69.953  1.00  0.00    -0.238 C  
HETATM   14  C   UNL     1     -11.638  11.255  69.767  1.00  0.00    -0.408 C  
HETATM   15  C   UNL     1     -12.336  11.989  70.672  1.00  0.00    -0.394 C  
HETATM   16  C   UNL     1     -12.932  11.421  71.954  1.00  0.00    -0.466 C  
HETATM   17  C   UNL     1     -12.652  13.459  70.481  1.00  0.00    -0.281 C  
HETATM   18  C   UNL     1     -12.999   9.877  72.027  1.00  0.00    -0.518 C  
HETATM   19  C   UNL     1     -11.941  14.048  69.283  1.00  0.00    -0.353 C  
HETATM   20  C   UNL     1     -14.224   9.429  71.208  1.00  0.00     0.053 C  
HETATM   21  C   UNL     1     -11.621   9.338  71.571  1.00  0.00    -0.452 C  
HETATM   22  C   UNL     1     -11.871  13.165  68.071  1.00  0.00    -0.398 C  
ENDROOT
BRANCH   4  23
HETATM   23  C   UNL     1      -9.067   8.022  72.857  1.00  0.00    -0.313 C  
HETATM   24  C   UNL     1      -8.588   7.932  73.957  1.00  0.00    -0.322 C  
ENDBRANCH   4  23
TORSDOF 1
ENDMDL
MODEL       11
REMARK 921   NORMALIZED FREE ENERGY PREDICTED BY IDOCK:   -6.33 KCAL/MOL
REMARK 922        TOTAL FREE ENERGY PREDICTED BY IDOCK:   -6.72 KCAL/MOL
REMARK 923 INTER-LIGAND FREE ENERGY PREDICTED BY IDOCK:   -6.70 KCAL/MOL
REMARK 924 INTRA-LIGAND FREE ENERGY PREDICTED BY IDOCK:   -0.02 KCAL/MOL
REMARK 927      BINDING AFFINITY PREDICTED BY RF-SCORE:    0.00 PKD
ROOT
HETATM    1  C   UNL     1      -9.356  13.062  66.874  1.00  0.00    -0.241 C  
HETATM    2  C   UNL     1      -8.610  12.390  67.871  1.00  0.00    -0.171 C  
HETATM    3  C   UNL     1      -9.802  13.159  68.304  1.00  0.00    -0.227 C  
HETATM    4  C   UNL     1     -11.075  13.640  66.752  1.00  0.00    -0.307 C  
HETATM    5  C   UNL     1     -11.108  12.572  67.604  1.00  0.00    -0.301 C  
HETATM    6  C   UNL     1     -10.535  18.251  68.661  1.00  0.00    -0.185 C  
HETATM    7  O   UNL     1     -12.431  14.093  66.775  1.00  0.00    -0.558 OA 
HETATM    8  C   UNL     1     -11.838  13.698  68.903  1.00  0.00    -0.402 C  
HETATM    9  C   UNL     1     -11.648  11.178  67.457  1.00  0.00    -0.220 C  
HETATM   10  O   UNL     1      -9.733  21.185  66.979  1.00  0.00    -0.196 OA 
HETATM   11  H   UNL     1     -13.017  14.315  66.061  1.00  0.00     0.000 HD 
HETATM   12  C   UNL     1     -11.376  15.344  68.660  1.00  0.00    -0.337 C  
HETATM   13  C   UNL     1      -9.883  15.787  68.126  1.00  0.00    -0.209 C  
HETATM   14  C   UNL     1      -9.661  17.293  67.873  1.00  0.00    -0.269 C  
HETATM   15  C   UNL     1      -8.644  17.746  67.095  1.00  0.00    -0.242 C  
HETATM   16  C   UNL     1      -7.648  16.842  66.380  1.00  0.00    -0.339 C  
HETATM   17  C   UNL     1      -8.350  19.219  66.891  1.00  0.00    -0.302 C  
HETATM   18  C   UNL     1      -7.634  15.368  66.850  1.00  0.00    -0.111 C  
HETATM   19  C   UNL     1      -9.421  20.106  67.484  1.00  0.00    -0.393 C  
HETATM   20  C   UNL     1      -6.819  15.307  68.155  1.00  0.00    -0.137 C  
HETATM   21  C   UNL     1      -9.108  14.900  66.926  1.00  0.00    -0.271 C  
HETATM   22  C   UNL     1      -9.975  19.661  68.806  1.00  0.00    -0.542 C  
ENDROOT
BRANCH   4  23
HETATM   23  C   UNL     1     -11.071  13.041  65.314  1.00  0.00    -0.311 C  
HETATM   24  C   UNL     1     -11.110  12.604  64.194  1.00  0.00    -0.428 C  
ENDBRANCH   4  23
TORSDOF 1
ENDMDL
MODEL       12
REMARK 921   NORMALIZED FREE ENERGY PREDICTED BY IDOCK:   -6.31 KCAL/MOL
REMARK 922        TOTAL FREE ENERGY PREDICTED BY IDOCK:   -6.70 KCAL/MOL
REMARK 923 INTER-LIGAND FREE ENERGY PREDICTED BY IDOCK:   -6.68 KCAL/MOL
REMARK 924 INTRA-LIGAND FREE ENERGY PREDICTED BY IDOCK:   -0.02 KCAL/MOL
REMARK 927      BINDING AFFINITY PREDICTED BY RF-SCORE:    0.00 PKD
ROOT
HETATM    1  C   UNL     1      -9.052   8.210  69.915  1.00  0.00    -0.151 C  
HETATM    2  C   UNL     1      -7.977   8.769  70.647  1.00  0.00    -0.130 C  
HETATM    3  C   UNL     1      -9.316   9.389  70.807  1.00  0.00    -0.292 C  
HETATM    4  C   UNL     1     -10.857   8.196  70.128  1.00  0.00    -0.241 C  
HETATM    5  C   UNL     1     -10.342   8.317  71.388  1.00  0.00    -0.270 C  
HETATM    6  C   UNL     1     -12.024  12.355  67.572  1.00  0.00    -0.253 C  
HETATM    7  O   UNL     1     -12.266   8.282  70.362  1.00  0.00    -0.465 OA 
HETATM    8  C   UNL     1     -11.301   9.909  71.569  1.00  0.00    -0.246 C  
HETATM    9  C   UNL     1     -10.276   7.367  72.550  1.00  0.00    -0.261 C  
HETATM   10  O   UNL     1     -12.714  12.660  64.179  1.00  0.00    -0.660 OA 
HETATM   11  H   UNL     1     -12.975   7.733  70.050  1.00  0.00     0.000 HD 
HETATM   12  C   UNL     1     -11.590  10.663  70.044  1.00  0.00    -0.406 C  
HETATM   13  C   UNL     1     -10.490  10.659  68.818  1.00  0.00    -0.215 C  
HETATM   14  C   UNL     1     -10.939  11.297  67.487  1.00  0.00    -0.319 C  
HETATM   15  C   UNL     1     -10.305  11.033  66.316  1.00  0.00    -0.304 C  
HETATM   16  C   UNL     1      -9.123  10.080  66.181  1.00  0.00    -0.188 C  
HETATM   17  C   UNL     1     -10.669  11.702  65.006  1.00  0.00    -0.351 C  
HETATM   18  C   UNL     1      -8.447   9.671  67.511  1.00  0.00    -0.125 C  
HETATM   19  C   UNL     1     -11.927  12.535  65.117  1.00  0.00    -0.434 C  
HETATM   20  C   UNL     1      -7.522  10.827  67.934  1.00  0.00    -0.090 C  
HETATM   21  C   UNL     1      -9.576   9.284  68.497  1.00  0.00    -0.155 C  
HETATM   22  C   UNL     1     -12.079  13.315  66.389  1.00  0.00    -0.454 C  
ENDROOT
BRANCH   4  23
HETATM   23  C   UNL     1     -10.787   6.679  69.782  1.00  0.00    -0.337 C  
HETATM   24  C   UNL     1     -10.784   5.508  69.506  1.00  0.00    -0.332 C  
ENDBRANCH   4  23
TORSDOF 1
ENDMDL
MODEL       13
REMARK 921   NORMALIZED FREE ENERGY PREDICTED BY IDOCK:   -6.28 KCAL/MOL
REMARK 922        TOTAL FREE ENERGY PREDICTED BY IDOCK:   -6.66 KCAL/MOL
REMARK 923 INTER-LIGAND FREE ENERGY PREDICTED BY IDOCK:   -6.64 KCAL/MOL
REMARK 924 INTRA-LIGAND FREE ENERGY PREDICTED BY IDOCK:   -0.02 KCAL/MOL
REMARK 927      BINDING AFFINITY PREDICTED BY RF-SCORE:    0.00 PKD
ROOT
HETATM    1  C   UNL     1      -9.484  11.452  66.633  1.00  0.00    -0.206 C  
HETATM    2  C   UNL     1     -10.282  11.092  65.521  1.00  0.00    -0.327 C  
HETATM    3  C   UNL     1     -10.965  11.686  66.696  1.00  0.00    -0.349 C  
HETATM    4  C   UNL     1      -9.678  12.633  68.002  1.00  0.00    -0.215 C  
HETATM    5  C   UNL     1     -10.402  13.152  66.966  1.00  0.00    -0.249 C  
HETATM    6  C   UNL     1     -11.983   9.670  71.333  1.00  0.00    -0.480 C  
HETATM    7  O   UNL     1      -9.946  13.558  69.059  1.00  0.00    -0.423 OA 
HETATM    8  C   UNL     1     -11.909  13.108  68.068  1.00  0.00    -0.398 C  
HETATM    9  C   UNL     1     -10.183  14.341  66.073  1.00  0.00    -0.327 C  
HETATM   10  O   UNL     1     -10.535   7.591  73.712  1.00  0.00    -0.317 OA 
HETATM   11  H   UNL     1      -9.354  13.994  69.659  1.00  0.00     0.000 HD 
HETATM   12  C   UNL     1     -11.785  11.884  69.279  1.00  0.00    -0.389 C  
HETATM   13  C   UNL     1     -11.091  10.416  69.002  1.00  0.00    -0.297 C  
HETATM   14  C   UNL     1     -10.976   9.469  70.215  1.00  0.00    -0.317 C  
HETATM   15  C   UNL     1     -10.113   8.420  70.226  1.00  0.00    -0.196 C  
HETATM   16  C   UNL     1      -9.166   8.082  69.081  1.00  0.00    -0.151 C  
HETATM   17  C   UNL     1     -10.031   7.425  71.366  1.00  0.00    -0.195 C  
HETATM   18  C   UNL     1      -9.464   8.797  67.741  1.00  0.00    -0.164 C  
HETATM   19  C   UNL     1     -10.868   7.844  72.555  1.00  0.00    -0.341 C  
HETATM   20  C   UNL     1     -10.622   8.041  67.063  1.00  0.00    -0.364 C  
HETATM   21  C   UNL     1      -9.701  10.292  68.064  1.00  0.00    -0.167 C  
HETATM   22  C   UNL     1     -12.199   8.455  72.229  1.00  0.00    -0.449 C  
ENDROOT
BRANCH   4  23
HETATM   23  C   UNL     1      -8.197  13.037  67.732  1.00  0.00    -0.168 C  
HETATM   24  C   UNL     1      -7.050  13.362  67.573  1.00  0.00    -0.154 C  
ENDBRANCH   4  23
TORSDOF 1
ENDMDL
MODEL       14
REMARK 921   NORMALIZED FREE ENERGY PREDICTED BY IDOCK:   -6.21 KCAL/MOL
REMARK 922        TOTAL FREE ENERGY PREDICTED BY IDOCK:   -6.58 KCAL/MOL
REMARK 923 INTER-LIGAND FREE ENERGY PREDICTED BY IDOCK:   -6.58 KCAL/MOL
REMARK 924 INTRA-LIGAND FREE ENERGY PREDICTED BY IDOCK:   -0.00 KCAL/MOL
REMARK 927      BINDING AFFINITY PREDICTED BY RF-SCORE:    0.00 PKD
ROOT
HETATM    1  C   UNL     1      -8.550   7.169  66.814  1.00  0.00    -0.124 C  
HETATM    2  C   UNL     1      -7.225   7.387  67.261  1.00  0.00    -0.093 C  
HETATM    3  C   UNL     1      -8.331   7.860  68.129  1.00  0.00    -0.124 C  
HETATM    4  C   UNL     1     -10.161   7.038  67.645  1.00  0.00    -0.193 C  
HETATM    5  C   UNL     1      -9.240   6.628  68.567  1.00  0.00    -0.127 C  
HETATM    6  C   UNL     1     -11.529  11.867  67.565  1.00  0.00    -0.396 C  
HETATM    7  O   UNL     1     -11.382   6.995  68.390  1.00  0.00    -0.491 OA 
HETATM    8  C   UNL     1      -9.850   7.981  69.701  1.00  0.00    -0.184 C  
HETATM    9  C   UNL     1      -8.920   5.278  69.146  1.00  0.00    -0.124 C  
HETATM   10  O   UNL     1     -13.273  13.557  65.078  1.00  0.00    -0.721 OA 
HETATM   11  H   UNL     1     -12.224   6.617  68.168  1.00  0.00     0.000 HD 
HETATM   12  C   UNL     1     -10.528   9.301  68.819  1.00  0.00    -0.233 C  
HETATM   13  C   UNL     1      -9.918   9.829  67.384  1.00  0.00    -0.239 C  
HETATM   14  C   UNL     1     -10.695  10.960  66.679  1.00  0.00    -0.289 C  
HETATM   15  C   UNL     1     -10.536  11.222  65.356  1.00  0.00    -0.326 C  
HETATM   16  C   UNL     1      -9.614  10.433  64.434  1.00  0.00    -0.375 C  
HETATM   17  C   UNL     1     -11.223  12.373  64.650  1.00  0.00    -0.356 C  
HETATM   18  C   UNL     1      -8.593   9.514  65.147  1.00  0.00    -0.181 C  
HETATM   19  C   UNL     1     -12.241  13.062  65.532  1.00  0.00    -0.469 C  
HETATM   20  C   UNL     1      -7.428  10.401  65.624  1.00  0.00    -0.149 C  
HETATM   21  C   UNL     1      -9.366   8.731  66.236  1.00  0.00    -0.283 C  
HETATM   22  C   UNL     1     -11.845  13.234  66.969  1.00  0.00    -0.442 C  
ENDROOT
BRANCH   4  23
HETATM   23  C   UNL     1     -10.424   5.808  66.727  1.00  0.00    -0.350 C  
HETATM   24  C   UNL     1     -10.648   4.889  65.983  1.00  0.00    -0.312 C  
ENDBRANCH   4  23
TORSDOF 1
ENDMDL
MODEL       15
REMARK 921   NORMALIZED FREE ENERGY PREDICTED BY IDOCK:   -6.08 KCAL/MOL
REMARK 922        TOTAL FREE ENERGY PREDICTED BY IDOCK:   -6.45 KCAL/MOL
REMARK 923 INTER-LIGAND FREE ENERGY PREDICTED BY IDOCK:   -6.43 KCAL/MOL
REMARK 924 INTRA-LIGAND FREE ENERGY PREDICTED BY IDOCK:   -0.02 KCAL/MOL
REMARK 927      BINDING AFFINITY PREDICTED BY RF-SCORE:    0.00 PKD
ROOT
HETATM    1  C   UNL     1     -11.363  14.999  67.314  1.00  0.00    -0.337 C  
HETATM    2  C   UNL     1     -11.656  15.066  65.931  1.00  0.00    -0.165 C  
HETATM    3  C   UNL     1     -10.322  14.554  66.329  1.00  0.00    -0.300 C  
HETATM    4  C   UNL     1     -10.210  14.017  68.319  1.00  0.00    -0.249 C  
HETATM    5  C   UNL     1     -10.489  13.247  67.225  1.00  0.00    -0.247 C  
HETATM    6  C   UNL     1      -6.214  17.052  68.196  1.00  0.00    -0.132 C  
HETATM    7  O   UNL     1      -9.239  13.228  69.011  1.00  0.00    -0.365 OA 
HETATM    8  C   UNL     1      -8.661  13.223  66.843  1.00  0.00    -0.152 C  
HETATM    9  C   UNL     1     -11.289  11.987  67.052  1.00  0.00    -0.396 C  
HETATM   10  O   UNL     1      -5.435  19.654  70.364  1.00  0.00    -0.217 OA 
HETATM   11  H   UNL     1      -9.188  12.981  69.927  1.00  0.00     0.000 HD 
HETATM   12  C   UNL     1      -7.855  14.616  67.466  1.00  0.00    -0.212 C  
HETATM   13  C   UNL     1      -8.536  16.116  67.478  1.00  0.00    -0.177 C  
HETATM   14  C   UNL     1      -7.720  17.237  68.154  1.00  0.00    -0.217 C  
HETATM   15  C   UNL     1      -8.298  18.395  68.565  1.00  0.00    -0.344 C  
HETATM   16  C   UNL     1      -9.785  18.701  68.432  1.00  0.00    -0.405 C  
HETATM   17  C   UNL     1      -7.514  19.548  69.160  1.00  0.00    -0.340 C  
HETATM   18  C   UNL     1     -10.574  17.760  67.490  1.00  0.00    -0.365 C  
HETATM   19  C   UNL     1      -6.068  19.186  69.419  1.00  0.00    -0.264 C  
HETATM   20  C   UNL     1     -10.305  18.222  66.046  1.00  0.00    -0.377 C  
HETATM   21  C   UNL     1     -10.165  16.311  67.846  1.00  0.00    -0.261 C  
HETATM   22  C   UNL     1      -5.413  18.338  68.368  1.00  0.00    -0.167 C  
ENDROOT
BRANCH   4  23
HETATM   23  C   UNL     1     -11.400  13.808  69.303  1.00  0.00    -0.325 C  
HETATM   24  C   UNL     1     -12.286  13.654  70.102  1.00  0.00    -0.413 C  
ENDBRANCH   4  23
TORSDOF 1
ENDMDL
MODEL       16
REMARK 921   NORMALIZED FREE ENERGY PREDICTED BY IDOCK:   -6.06 KCAL/MOL
REMARK 922        TOTAL FREE ENERGY PREDICTED BY IDOCK:   -6.43 KCAL/MOL
REMARK 923 INTER-LIGAND FREE ENERGY PREDICTED BY IDOCK:   -6.46 KCAL/MOL
REMARK 924 INTRA-LIGAND FREE ENERGY PREDICTED BY IDOCK:    0.03 KCAL/MOL
REMARK 927      BINDING AFFINITY PREDICTED BY RF-SCORE:    0.00 PKD
ROOT
HETATM    1  C   UNL     1      -9.453  16.850  66.122  1.00  0.00    -0.274 C  
HETATM    2  C   UNL     1     -10.537  17.580  65.579  1.00  0.00    -0.097 C  
HETATM    3  C   UNL     1     -10.626  17.171  67.002  1.00  0.00    -0.227 C  
HETATM    4  C   UNL     1      -8.814  16.596  67.805  1.00  0.00    -0.206 C  
HETATM    5  C   UNL     1      -9.427  17.818  67.827  1.00  0.00    -0.262 C  
HETATM    6  C   UNL     1     -11.461  12.530  69.091  1.00  0.00    -0.361 C  
HETATM    7  O   UNL     1      -8.419  16.426  69.169  1.00  0.00    -0.240 OA 
HETATM    8  C   UNL     1     -10.533  17.179  69.189  1.00  0.00    -0.296 C  
HETATM    9  C   UNL     1      -8.889  19.218  67.918  1.00  0.00    -0.355 C  
HETATM   10  O   UNL     1     -10.638   9.191  68.585  1.00  0.00    -0.215 OA 
HETATM   11  H   UNL     1      -7.585  16.161  69.538  1.00  0.00     0.000 HD 
HETATM   12  C   UNL     1     -10.722  15.465  69.114  1.00  0.00    -0.246 C  
HETATM   13  C   UNL     1     -10.829  14.636  67.695  1.00  0.00    -0.284 C  
HETATM   14  C   UNL     1     -10.903  13.098  67.799  1.00  0.00    -0.261 C  
HETATM   15  C   UNL     1     -10.617  12.294  66.743  1.00  0.00    -0.251 C  
HETATM   16  C   UNL     1     -10.178  12.804  65.376  1.00  0.00    -0.299 C  
HETATM   17  C   UNL     1     -10.755  10.786  66.787  1.00  0.00    -0.291 C  
HETATM   18  C   UNL     1     -10.394  14.317  65.132  1.00  0.00    -0.440 C  
HETATM   19  C   UNL     1     -11.053  10.278  68.181  1.00  0.00    -0.264 C  
HETATM   20  C   UNL     1     -11.879  14.520  64.779  1.00  0.00    -0.446 C  
HETATM   21  C   UNL     1      -9.867  15.061  66.383  1.00  0.00    -0.290 C  
HETATM   22  C   UNL     1     -12.007  11.111  68.986  1.00  0.00    -0.389 C  
ENDROOT
BRANCH   4  23
HETATM   23  C   UNL     1      -7.400  16.838  67.198  1.00  0.00    -0.222 C  
HETATM   24  C   UNL     1      -6.328  17.017  66.683  1.00  0.00    -0.247 C  
ENDBRANCH   4  23
TORSDOF 1
ENDMDL
MODEL       17
REMARK 921   NORMALIZED FREE ENERGY PREDICTED BY IDOCK:   -6.03 KCAL/MOL
REMARK 922        TOTAL FREE ENERGY PREDICTED BY IDOCK:   -6.39 KCAL/MOL
REMARK 923 INTER-LIGAND FREE ENERGY PREDICTED BY IDOCK:   -6.38 KCAL/MOL
REMARK 924 INTRA-LIGAND FREE ENERGY PREDICTED BY IDOCK:   -0.02 KCAL/MOL
REMARK 927      BINDING AFFINITY PREDICTED BY RF-SCORE:    0.00 PKD
ROOT
HETATM    1  C   UNL     1     -11.423  12.364  67.122  1.00  0.00    -0.423 C  
HETATM    2  C   UNL     1     -11.656  12.093  65.753  1.00  0.00    -0.414 C  
HETATM    3  C   UNL     1     -10.263  11.979  66.250  1.00  0.00    -0.251 C  
HETATM    4  C   UNL     1     -10.132  11.880  68.307  1.00  0.00    -0.203 C  
HETATM    5  C   UNL     1     -10.184  10.868  67.389  1.00  0.00    -0.236 C  
HETATM    6  C   UNL     1      -6.892  15.646  67.590  1.00  0.00    -0.201 C  
HETATM    7  O   UNL     1      -9.047  11.477  69.146  1.00  0.00    -0.390 OA 
HETATM    8  C   UNL     1      -8.379  11.178  67.025  1.00  0.00    -0.144 C  
HETATM    9  C   UNL     1     -10.681   9.453  67.470  1.00  0.00    -0.290 C  
HETATM   10  O   UNL     1      -6.803  18.728  69.193  1.00  0.00    -0.283 OA 
HETATM   11  H   UNL     1      -8.986  11.431  70.093  1.00  0.00     0.000 HD 
HETATM   12  C   UNL     1      -7.926  12.811  67.358  1.00  0.00    -0.179 C  
HETATM   13  C   UNL     1      -8.917  14.093  67.066  1.00  0.00    -0.251 C  
HETATM   14  C   UNL     1      -8.399  15.478  67.506  1.00  0.00    -0.190 C  
HETATM   15  C   UNL     1      -9.234  16.535  67.675  1.00  0.00    -0.200 C  
HETATM   16  C   UNL     1     -10.744  16.471  67.479  1.00  0.00    -0.283 C  
HETATM   17  C   UNL     1      -8.749  17.927  68.028  1.00  0.00    -0.256 C  
HETATM   18  C   UNL     1     -11.263  15.212  66.742  1.00  0.00    -0.285 C  
HETATM   19  C   UNL     1      -7.273  17.954  68.359  1.00  0.00    -0.256 C  
HETATM   20  C   UNL     1     -11.033  15.432  65.236  1.00  0.00    -0.397 C  
HETATM   21  C   UNL     1     -10.565  13.988  67.383  1.00  0.00    -0.278 C  
HETATM   22  C   UNL     1      -6.400  17.086  67.503  1.00  0.00    -0.172 C  
ENDROOT
BRANCH   4  23
HETATM   23  C   UNL     1     -11.293  11.607  69.309  1.00  0.00    -0.353 C  
HETATM   24  C   UNL     1     -12.155  11.396  70.121  1.00  0.00    -0.439 C  
ENDBRANCH   4  23
TORSDOF 1
ENDMDL
MODEL       18
REMARK 921   NORMALIZED FREE ENERGY PREDICTED BY IDOCK:   -5.97 KCAL/MOL
REMARK 922        TOTAL FREE ENERGY PREDICTED BY IDOCK:   -6.33 KCAL/MOL
REMARK 923 INTER-LIGAND FREE ENERGY PREDICTED BY IDOCK:   -6.37 KCAL/MOL
REMARK 924 INTRA-LIGAND FREE ENERGY PREDICTED BY IDOCK:    0.04 KCAL/MOL
REMARK 927      BINDING AFFINITY PREDICTED BY RF-SCORE:    0.00 PKD
ROOT
HETATM    1  C   UNL     1     -10.587  16.976  68.116  1.00  0.00    -0.369 C  
HETATM    2  C   UNL     1     -10.724  16.791  69.513  1.00  0.00    -0.273 C  
HETATM    3  C   UNL     1      -9.463  16.335  68.878  1.00  0.00    -0.252 C  
HETATM    4  C   UNL     1      -9.167  17.117  66.991  1.00  0.00    -0.241 C  
HETATM    5  C   UNL     1      -8.721  17.572  68.200  1.00  0.00    -0.262 C  
HETATM    6  C   UNL     1      -8.540  12.272  65.839  1.00  0.00     0.449 C  
HETATM    7  O   UNL     1      -7.985  17.172  66.187  1.00  0.00    -0.366 OA 
HETATM    8  C   UNL     1      -7.400  16.253  68.149  1.00  0.00    -0.144 C  
HETATM    9  C   UNL     1      -8.365  18.945  68.695  1.00  0.00    -0.384 C  
HETATM   10  O   UNL     1     -10.033  10.471  63.268  1.00  0.00    -0.302 OA 
HETATM   11  H   UNL     1      -7.849  17.531  65.319  1.00  0.00     0.000 HD 
HETATM   12  C   UNL     1      -7.884  14.893  67.202  1.00  0.00    -0.203 C  
HETATM   13  C   UNL     1      -9.429  14.322  67.177  1.00  0.00    -0.229 C  
HETATM   14  C   UNL     1      -9.717  13.157  66.208  1.00  0.00    -0.269 C  
HETATM   15  C   UNL     1     -10.979  12.849  65.812  1.00  0.00    -0.303 C  
HETATM   16  C   UNL     1     -12.221  13.615  66.250  1.00  0.00    -0.484 C  
HETATM   17  C   UNL     1     -11.305  11.664  64.925  1.00  0.00    -0.252 C  
HETATM   18  C   UNL     1     -12.022  14.573  67.449  1.00  0.00    -0.367 C  
HETATM   19  C   UNL     1     -10.062  10.995  64.382  1.00  0.00    -0.334 C  
HETATM   20  C   UNL     1     -12.045  13.718  68.730  1.00  0.00    -0.344 C  
HETATM   21  C   UNL     1     -10.732  15.384  67.176  1.00  0.00    -0.314 C  
HETATM   22  C   UNL     1      -8.914  10.880  65.341  1.00  0.00    -0.209 C  
ENDROOT
BRANCH   4  23
HETATM   23  C   UNL     1      -9.928  18.310  66.339  1.00  0.00    -0.385 C  
HETATM   24  C   UNL     1     -10.510  19.257  65.880  1.00  0.00    -0.534 C  
ENDBRANCH   4  23
TORSDOF 1
ENDMDL
MODEL       19
REMARK 921   NORMALIZED FREE ENERGY PREDICTED BY IDOCK:   -5.87 KCAL/MOL
REMARK 922        TOTAL FREE ENERGY PREDICTED BY IDOCK:   -6.22 KCAL/MOL
REMARK 923 INTER-LIGAND FREE ENERGY PREDICTED BY IDOCK:   -6.21 KCAL/MOL
REMARK 924 INTRA-LIGAND FREE ENERGY PREDICTED BY IDOCK:   -0.02 KCAL/MOL
REMARK 927      BINDING AFFINITY PREDICTED BY RF-SCORE:    0.00 PKD
ROOT
HETATM    1  C   UNL     1     -11.858  13.645  67.072  1.00  0.00    -0.448 C  
HETATM    2  C   UNL     1     -12.028  14.803  67.868  1.00  0.00    -0.260 C  
HETATM    3  C   UNL     1     -10.642  14.340  67.614  1.00  0.00    -0.253 C  
HETATM    4  C   UNL     1     -10.500  12.998  66.052  1.00  0.00    -0.279 C  
HETATM    5  C   UNL     1     -10.345  14.356  66.049  1.00  0.00    -0.319 C  
HETATM    6  C   UNL     1      -8.082  10.287  69.515  1.00  0.00    -0.170 C  
HETATM    7  O   UNL     1      -9.358  12.556  65.313  1.00  0.00    -0.443 OA 
HETATM    8  C   UNL     1      -8.638  14.109  66.764  1.00  0.00    -0.097 C  
HETATM    9  C   UNL     1     -10.548  15.395  64.982  1.00  0.00    -0.445 C  
HETATM   10  O   UNL     1      -8.618   6.968  70.395  1.00  0.00    -0.139 OA 
HETATM   11  H   UNL     1      -9.293  11.939  64.595  1.00  0.00     0.000 HD 
HETATM   12  C   UNL     1      -8.524  12.640  67.664  1.00  0.00    -0.173 C  
HETATM   13  C   UNL     1      -9.751  12.063  68.598  1.00  0.00    -0.104 C  
HETATM   14  C   UNL     1      -9.523  10.690  69.264  1.00  0.00    -0.152 C  
HETATM   15  C   UNL     1     -10.554   9.940  69.730  1.00  0.00    -0.296 C  
HETATM   16  C   UNL     1     -12.020  10.345  69.629  1.00  0.00    -0.207 C  
HETATM   17  C   UNL     1     -10.361   8.625  70.459  1.00  0.00    -0.234 C  
HETATM   18  C   UNL     1     -12.273  11.828  69.265  1.00  0.00    -0.202 C  
HETATM   19  C   UNL     1      -8.921   8.160  70.432  1.00  0.00    -0.146 C  
HETATM   20  C   UNL     1     -12.087  12.657  70.549  1.00  0.00    -0.360 C  
HETATM   21  C   UNL     1     -11.346  12.171  68.074  1.00  0.00    -0.353 C  
HETATM   22  C   UNL     1      -7.888   9.235  70.602  1.00  0.00    -0.181 C  
ENDROOT
BRANCH   4  23
HETATM   23  C   UNL     1     -11.586  12.689  64.978  1.00  0.00    -0.384 C  
HETATM   24  C   UNL     1     -12.394  12.413  64.131  1.00  0.00    -0.558 C  
ENDBRANCH   4  23
TORSDOF 1
ENDMDL
MODEL       20
REMARK 921   NORMALIZED FREE ENERGY PREDICTED BY IDOCK:   -5.85 KCAL/MOL
REMARK 922        TOTAL FREE ENERGY PREDICTED BY IDOCK:   -6.20 KCAL/MOL
REMARK 923 INTER-LIGAND FREE ENERGY PREDICTED BY IDOCK:   -6.24 KCAL/MOL
REMARK 924 INTRA-LIGAND FREE ENERGY PREDICTED BY IDOCK:    0.04 KCAL/MOL
REMARK 927      BINDING AFFINITY PREDICTED BY RF-SCORE:    0.00 PKD
ROOT
HETATM    1  C   UNL     1     -11.462  14.811  67.670  1.00  0.00    -0.363 C  
HETATM    2  C   UNL     1     -10.622  15.804  68.226  1.00  0.00    -0.271 C  
HETATM    3  C   UNL     1     -10.023  14.479  67.935  1.00  0.00    -0.226 C  
HETATM    4  C   UNL     1     -11.172  13.318  66.674  1.00  0.00    -0.306 C  
HETATM    5  C   UNL     1     -10.139  14.162  66.378  1.00  0.00    -0.299 C  
HETATM    6  C   UNL     1     -10.589   9.962  70.360  1.00  0.00    -0.364 C  
HETATM    7  O   UNL     1     -10.833  12.144  65.930  1.00  0.00    -0.260 OA 
HETATM    8  C   UNL     1      -8.960  12.834  66.956  1.00  0.00    -0.221 C  
HETATM    9  C   UNL     1      -9.800  14.955  65.147  1.00  0.00    -0.165 C  
HETATM   10  O   UNL     1     -13.039   8.076  71.946  1.00  0.00    -0.324 OA 
HETATM   11  H   UNL     1     -11.362  11.611  65.350  1.00  0.00     0.000 HD 
HETATM   12  C   UNL     1      -9.689  11.789  68.120  1.00  0.00    -0.192 C  
HETATM   13  C   UNL     1     -10.742  12.322  69.269  1.00  0.00    -0.011 C  
HETATM   14  C   UNL     1     -11.376  11.246  70.175  1.00  0.00    -0.251 C  
HETATM   15  C   UNL     1     -12.509  11.484  70.884  1.00  0.00    -0.464 C  
HETATM   16  C   UNL     1     -13.279  12.799  70.848  1.00  0.00     0.188 C  
HETATM   17  C   UNL     1     -13.114  10.478  71.843  1.00  0.00    -0.567 C  
HETATM   18  C   UNL     1     -12.523  13.992  70.217  1.00  0.00    -0.403 C  
HETATM   19  C   UNL     1     -12.430   9.131  71.769  1.00  0.00    -0.372 C  
HETATM   20  C   UNL     1     -11.554  14.539  71.280  1.00  0.00    -0.174 C  
HETATM   21  C   UNL     1     -11.896  13.487  68.895  1.00  0.00    -0.384 C  
HETATM   22  C   UNL     1     -10.938   9.168  71.613  1.00  0.00    -0.445 C  
ENDROOT
BRANCH   4  23
HETATM   23  C   UNL     1     -12.372  13.789  65.798  1.00  0.00    -0.523 C  
HETATM   24  C   UNL     1     -13.271  14.195  65.111  1.00  0.00     0.154 C  
ENDBRANCH   4  23
TORSDOF 1
ENDMDL
MODEL       21
REMARK 921   NORMALIZED FREE ENERGY PREDICTED BY IDOCK:   -5.84 KCAL/MOL
REMARK 922        TOTAL FREE ENERGY PREDICTED BY IDOCK:   -6.20 KCAL/MOL
REMARK 923 INTER-LIGAND FREE ENERGY PREDICTED BY IDOCK:   -6.18 KCAL/MOL
REMARK 924 INTRA-LIGAND FREE ENERGY PREDICTED BY IDOCK:   -0.01 KCAL/MOL
REMARK 927      BINDING AFFINITY PREDICTED BY RF-SCORE:    0.00 PKD
ROOT
HETATM    1  C   UNL     1      -9.454  16.285  67.374  1.00  0.00    -0.227 C  
HETATM    2  C   UNL     1     -10.368  16.321  68.454  1.00  0.00    -0.271 C  
HETATM    3  C   UNL     1      -9.299  15.293  68.490  1.00  0.00    -0.200 C  
HETATM    4  C   UNL     1      -7.756  15.667  67.172  1.00  0.00    -0.223 C  
HETATM    5  C   UNL     1      -7.870  15.998  68.493  1.00  0.00    -0.160 C  
HETATM    6  C   UNL     1      -8.751  10.957  65.753  1.00  0.00    -0.196 C  
HETATM    7  O   UNL     1      -6.440  15.112  67.107  1.00  0.00    -0.291 OA 
HETATM    8  C   UNL     1      -7.432  14.233  68.918  1.00  0.00    -0.123 C  
HETATM    9  C   UNL     1      -7.284  17.113  69.312  1.00  0.00    -0.135 C  
HETATM   10  O   UNL     1      -9.264   9.753  62.533  1.00  0.00    -0.283 OA 
HETATM   11  H   UNL     1      -5.730  15.284  66.500  1.00  0.00     0.000 HD 
HETATM   12  C   UNL     1      -7.869  13.140  67.655  1.00  0.00    -0.169 C  
HETATM   13  C   UNL     1      -9.237  13.312  66.753  1.00  0.00    -0.237 C  
HETATM   14  C   UNL     1      -9.434  12.303  65.602  1.00  0.00    -0.078 C  
HETATM   15  C   UNL     1     -10.287  12.548  64.574  1.00  0.00    -0.362 C  
HETATM   16  C   UNL     1     -11.105  13.825  64.429  1.00  0.00    -0.356 C  
HETATM   17  C   UNL     1     -10.564  11.547  63.470  1.00  0.00    -0.487 C  
HETATM   18  C   UNL     1     -11.182  14.711  65.696  1.00  0.00    -0.342 C  
HETATM   19  C   UNL     1      -9.648  10.345  63.542  1.00  0.00    -0.310 C  
HETATM   20  C   UNL     1     -12.237  14.089  66.630  1.00  0.00    -0.463 C  
HETATM   21  C   UNL     1      -9.743  14.835  66.253  1.00  0.00    -0.326 C  
HETATM   22  C   UNL     1      -9.356   9.832  64.921  1.00  0.00    -0.327 C  
ENDROOT
BRANCH   4  23
HETATM   23  C   UNL     1      -7.465  17.001  66.422  1.00  0.00    -0.336 C  
HETATM   24  C   UNL     1      -7.193  18.014  65.834  1.00  0.00    -0.278 C  
ENDBRANCH   4  23
TORSDOF 1
ENDMDL
MODEL       22
REMARK 921   NORMALIZED FREE ENERGY PREDICTED BY IDOCK:   -5.83 KCAL/MOL
REMARK 922        TOTAL FREE ENERGY PREDICTED BY IDOCK:   -6.19 KCAL/MOL
REMARK 923 INTER-LIGAND FREE ENERGY PREDICTED BY IDOCK:   -6.22 KCAL/MOL
REMARK 924 INTRA-LIGAND FREE ENERGY PREDICTED BY IDOCK:    0.03 KCAL/MOL
REMARK 927      BINDING AFFINITY PREDICTED BY RF-SCORE:    0.00 PKD
ROOT
HETATM    1  C   UNL     1      -8.510   7.970  67.586  1.00  0.00    -0.131 C  
HETATM    2  C   UNL     1      -7.153   8.206  67.912  1.00  0.00    -0.083 C  
HETATM    3  C   UNL     1      -8.168   9.131  68.474  1.00  0.00    -0.115 C  
HETATM    4  C   UNL     1     -10.093   8.397  68.370  1.00  0.00    -0.198 C  
HETATM    5  C   UNL     1      -9.188   8.321  69.392  1.00  0.00    -0.155 C  
HETATM    6  C   UNL     1     -10.928  12.839  66.188  1.00  0.00    -0.310 C  
HETATM    7  O   UNL     1     -11.282   8.819  69.044  1.00  0.00    -0.425 OA 
HETATM    8  C   UNL     1      -9.604  10.091  69.819  1.00  0.00    -0.249 C  
HETATM    9  C   UNL     1      -8.996   7.327  70.502  1.00  0.00    -0.154 C  
HETATM   10  O   UNL     1     -12.569  13.478  63.192  1.00  0.00    -0.762 OA 
HETATM   11  H   UNL     1     -12.168   8.482  68.996  1.00  0.00     0.000 HD 
HETATM   12  C   UNL     1     -10.167  10.970  68.443  1.00  0.00    -0.198 C  
HETATM   13  C   UNL     1      -9.557  10.753  66.929  1.00  0.00    -0.198 C  
HETATM   14  C   UNL     1     -10.232  11.549  65.794  1.00  0.00    -0.293 C  
HETATM   15  C   UNL     1     -10.095  11.194  64.490  1.00  0.00    -0.364 C  
HETATM   16  C   UNL     1      -9.300   9.985  64.013  1.00  0.00    -0.324 C  
HETATM   17  C   UNL     1     -10.679  11.998  63.346  1.00  0.00    -0.475 C  
HETATM   18  C   UNL     1      -8.359   9.353  65.067  1.00  0.00    -0.155 C  
HETATM   19  C   UNL     1     -11.581  13.112  63.829  1.00  0.00    -0.425 C  
HETATM   20  C   UNL     1      -7.088  10.219  65.129  1.00  0.00    -0.121 C  
HETATM   21  C   UNL     1      -9.172   9.211  66.377  1.00  0.00    -0.233 C  
HETATM   22  C   UNL     1     -11.115  13.841  65.054  1.00  0.00    -0.348 C  
ENDROOT
BRANCH   4  23
HETATM   23  C   UNL     1     -10.524   6.929  68.072  1.00  0.00    -0.255 C  
HETATM   24  C   UNL     1     -10.830   5.782  67.883  1.00  0.00    -0.257 C  
ENDBRANCH   4  23
TORSDOF 1
ENDMDL
MODEL       23
REMARK 921   NORMALIZED FREE ENERGY PREDICTED BY IDOCK:   -5.79 KCAL/MOL
REMARK 922        TOTAL FREE ENERGY PREDICTED BY IDOCK:   -6.14 KCAL/MOL
REMARK 923 INTER-LIGAND FREE ENERGY PREDICTED BY IDOCK:   -6.13 KCAL/MOL
REMARK 924 INTRA-LIGAND FREE ENERGY PREDICTED BY IDOCK:   -0.01 KCAL/MOL
REMARK 927      BINDING AFFINITY PREDICTED BY RF-SCORE:    0.00 PKD
ROOT
HETATM    1  C   UNL     1     -10.446   8.183  71.103  1.00  0.00    -0.238 C  
HETATM    2  C   UNL     1     -11.553   7.305  71.194  1.00  0.00    -0.323 C  
HETATM    3  C   UNL     1     -10.982   7.557  69.848  1.00  0.00    -0.223 C  
HETATM    4  C   UNL     1      -9.101   8.404  69.900  1.00  0.00    -0.146 C  
HETATM    5  C   UNL     1      -9.459   7.089  69.809  1.00  0.00    -0.145 C  
HETATM    6  C   UNL     1     -11.271  11.731  66.832  1.00  0.00    -0.387 C  
HETATM    7  O   UNL     1      -8.111   8.524  68.875  1.00  0.00    -0.115 OA 
HETATM    8  C   UNL     1      -9.824   7.369  67.999  1.00  0.00    -0.172 C  
HETATM    9  C   UNL     1      -8.771   5.820  70.229  1.00  0.00    -0.137 C  
HETATM   10  O   UNL     1     -11.242  15.198  67.068  1.00  0.00    -0.335 OA 
HETATM   11  H   UNL     1      -7.245   8.914  68.899  1.00  0.00     0.000 HD 
HETATM   12  C   UNL     1     -10.245   9.011  67.674  1.00  0.00    -0.300 C  
HETATM   13  C   UNL     1     -11.142   9.928  68.707  1.00  0.00    -0.179 C  
HETATM   14  C   UNL     1     -11.352  11.404  68.312  1.00  0.00    -0.354 C  
HETATM   15  C   UNL     1     -11.730  12.342  69.219  1.00  0.00    -0.388 C  
HETATM   16  C   UNL     1     -11.958  12.055  70.698  1.00  0.00    -0.257 C  
HETATM   17  C   UNL     1     -12.021  13.783  68.850  1.00  0.00    -0.394 C  
HETATM   18  C   UNL     1     -12.069  10.558  71.074  1.00  0.00    -0.492 C  
HETATM   19  C   UNL     1     -11.658  14.093  67.415  1.00  0.00    -0.372 C  
HETATM   20  C   UNL     1     -13.496  10.099  70.720  1.00  0.00    -0.063 C  
HETATM   21  C   UNL     1     -10.904   9.823  70.368  1.00  0.00    -0.370 C  
HETATM   22  C   UNL     1     -11.975  13.017  66.418  1.00  0.00    -0.466 C  
ENDROOT
BRANCH   4  23
HETATM   23  C   UNL     1      -8.150   8.503  71.131  1.00  0.00    -0.158 C  
HETATM   24  C   UNL     1      -7.378   8.591  72.049  1.00  0.00    -0.110 C  
ENDBRANCH   4  23
TORSDOF 1
ENDMDL
MODEL       24
REMARK 921   NORMALIZED FREE ENERGY PREDICTED BY IDOCK:   -5.75 KCAL/MOL
REMARK 922        TOTAL FREE ENERGY PREDICTED BY IDOCK:   -6.10 KCAL/MOL
REMARK 923 INTER-LIGAND FREE ENERGY PREDICTED BY IDOCK:   -6.10 KCAL/MOL
REMARK 924 INTRA-LIGAND FREE ENERGY PREDICTED BY IDOCK:   -0.00 KCAL/MOL
REMARK 927      BINDING AFFINITY PREDICTED BY RF-SCORE:    0.00 PKD
ROOT
HETATM    1  C   UNL     1     -10.131  10.119  65.227  1.00  0.00    -0.344 C  
HETATM    2  C   UNL     1      -9.810  10.481  63.897  1.00  0.00    -0.373 C  
HETATM    3  C   UNL     1      -8.815  10.789  64.954  1.00  0.00    -0.176 C  
HETATM    4  C   UNL     1      -9.149   9.767  66.716  1.00  0.00    -0.146 C  
HETATM    5  C   UNL     1      -8.343   9.441  65.661  1.00  0.00    -0.129 C  
HETATM    6  C   UNL     1      -8.876  14.395  68.641  1.00  0.00    -0.167 C  
HETATM    7  O   UNL     1      -8.289   9.552  67.838  1.00  0.00    -0.114 OA 
HETATM    8  C   UNL     1      -7.095  10.673  66.304  1.00  0.00    -0.137 C  
HETATM    9  C   UNL     1      -7.861   8.123  65.126  1.00  0.00    -0.118 C  
HETATM   10  O   UNL     1     -11.097  15.941  70.821  1.00  0.00    -0.339 OA 
HETATM   11  H   UNL     1      -8.443   9.082  68.649  1.00  0.00     0.000 HD 
HETATM   12  C   UNL     1      -7.844  11.929  67.220  1.00  0.00    -0.168 C  
HETATM   13  C   UNL     1      -9.308  12.574  66.830  1.00  0.00    -0.230 C  
HETATM   14  C   UNL     1      -9.881  13.624  67.804  1.00  0.00    -0.232 C  
HETATM   15  C   UNL     1     -11.200  13.947  67.816  1.00  0.00    -0.316 C  
HETATM   16  C   UNL     1     -12.244  13.306  66.909  1.00  0.00    -0.315 C  
HETATM   17  C   UNL     1     -11.781  15.029  68.703  1.00  0.00    -0.363 C  
HETATM   18  C   UNL     1     -11.679  12.495  65.718  1.00  0.00    -0.478 C  
HETATM   19  C   UNL     1     -10.772  15.560  69.697  1.00  0.00    -0.271 C  
HETATM   20  C   UNL     1     -11.280  13.500  64.622  1.00  0.00    -0.377 C  
HETATM   21  C   UNL     1     -10.554  11.589  66.276  1.00  0.00    -0.309 C  
HETATM   22  C   UNL     1      -9.376  15.732  69.175  1.00  0.00    -0.258 C  
ENDROOT
BRANCH   4  23
HETATM   23  C   UNL     1     -10.091   8.545  66.928  1.00  0.00    -0.364 C  
HETATM   24  C   UNL     1     -10.779   7.576  67.114  1.00  0.00    -0.379 C  
ENDBRANCH   4  23
TORSDOF 1
ENDMDL
MODEL       25
REMARK 921   NORMALIZED FREE ENERGY PREDICTED BY IDOCK:   -5.74 KCAL/MOL
REMARK 922        TOTAL FREE ENERGY PREDICTED BY IDOCK:   -6.09 KCAL/MOL
REMARK 923 INTER-LIGAND FREE ENERGY PREDICTED BY IDOCK:   -6.09 KCAL/MOL
REMARK 924 INTRA-LIGAND FREE ENERGY PREDICTED BY IDOCK:   -0.00 KCAL/MOL
REMARK 927      BINDING AFFINITY PREDICTED BY RF-SCORE:    0.00 PKD
ROOT
HETATM    1  C   UNL     1     -10.118  18.578  68.217  1.00  0.00    -0.424 C  
HETATM    2  C   UNL     1      -9.819  18.918  69.558  1.00  0.00     0.104 C  
HETATM    3  C   UNL     1      -8.772  18.218  68.775  1.00  0.00    -0.238 C  
HETATM    4  C   UNL     1      -9.113  18.248  66.740  1.00  0.00    -0.284 C  
HETATM    5  C   UNL     1      -8.365  19.095  67.509  1.00  0.00    -0.315 C  
HETATM    6  C   UNL     1      -8.477  13.297  67.260  1.00  0.00    -0.203 C  
HETATM    7  O   UNL     1      -8.231  17.964  65.650  1.00  0.00    -0.476 OA 
HETATM    8  C   UNL     1      -7.019  17.801  67.531  1.00  0.00    -0.189 C  
HETATM    9  C   UNL     1      -7.987  20.541  67.348  1.00  0.00    -0.349 C  
HETATM   10  O   UNL     1     -10.519  10.741  66.088  1.00  0.00    -0.249 OA 
HETATM   11  H   UNL     1      -8.388  17.978  64.713  1.00  0.00     0.000 HD 
HETATM   12  C   UNL     1      -7.654  16.209  67.327  1.00  0.00    -0.217 C  
HETATM   13  C   UNL     1      -9.086  15.724  67.981  1.00  0.00    -0.187 C  
HETATM   14  C   UNL     1      -9.556  14.297  67.629  1.00  0.00    -0.219 C  
HETATM   15  C   UNL     1     -10.851  13.913  67.775  1.00  0.00    -0.261 C  
HETATM   16  C   UNL     1     -11.963  14.831  68.267  1.00  0.00    -0.258 C  
HETATM   17  C   UNL     1     -11.331  12.500  67.513  1.00  0.00    -0.368 C  
HETATM   18  C   UNL     1     -11.492  16.151  68.924  1.00  0.00    -0.331 C  
HETATM   19  C   UNL     1     -10.257  11.634  66.893  1.00  0.00    -0.214 C  
HETATM   20  C   UNL     1     -11.066  15.821  70.366  1.00  0.00    -0.380 C  
HETATM   21  C   UNL     1     -10.410  16.760  67.999  1.00  0.00    -0.317 C  
HETATM   22  C   UNL     1      -8.871  11.834  67.430  1.00  0.00    -0.164 C  
ENDROOT
BRANCH   4  23
HETATM   23  C   UNL     1     -10.124  19.150  65.971  1.00  0.00    -0.437 C  
HETATM   24  C   UNL     1     -10.868  19.858  65.344  1.00  0.00    -0.116 C  
ENDBRANCH   4  23
TORSDOF 1
ENDMDL
MODEL       26
REMARK 921   NORMALIZED FREE ENERGY PREDICTED BY IDOCK:   -5.74 KCAL/MOL
REMARK 922        TOTAL FREE ENERGY PREDICTED BY IDOCK:   -6.09 KCAL/MOL
REMARK 923 INTER-LIGAND FREE ENERGY PREDICTED BY IDOCK:   -6.12 KCAL/MOL
REMARK 924 INTRA-LIGAND FREE ENERGY PREDICTED BY IDOCK:    0.03 KCAL/MOL
REMARK 927      BINDING AFFINITY PREDICTED BY RF-SCORE:    0.00 PKD
ROOT
HETATM    1  C   UNL     1      -9.922  15.247  66.058  1.00  0.00    -0.344 C  
HETATM    2  C   UNL     1     -11.054  15.577  65.274  1.00  0.00    -0.344 C  
HETATM    3  C   UNL     1     -11.247  15.435  66.738  1.00  0.00    -0.197 C  
HETATM    4  C   UNL     1      -9.482  15.478  67.806  1.00  0.00    -0.204 C  
HETATM    5  C   UNL     1     -10.343  16.497  67.508  1.00  0.00    -0.294 C  
HETATM    6  C   UNL     1     -11.328  11.211  69.697  1.00  0.00    -0.366 C  
HETATM    7  O   UNL     1      -9.250  15.670  69.204  1.00  0.00    -0.218 OA 
HETATM    8  C   UNL     1     -11.460  15.879  68.871  1.00  0.00    -0.386 C  
HETATM    9  C   UNL     1     -10.141  17.977  67.342  1.00  0.00    -0.354 C  
HETATM   10  O   UNL     1      -9.734   8.138  70.000  1.00  0.00    -0.172 OA 
HETATM   11  H   UNL     1      -8.438  15.690  69.695  1.00  0.00     0.000 HD 
HETATM   12  C   UNL     1     -11.258  14.188  69.152  1.00  0.00    -0.307 C  
HETATM   13  C   UNL     1     -10.985  13.104  67.942  1.00  0.00    -0.271 C  
HETATM   14  C   UNL     1     -10.734  11.643  68.368  1.00  0.00    -0.248 C  
HETATM   15  C   UNL     1     -10.137  10.747  67.541  1.00  0.00    -0.218 C  
HETATM   16  C   UNL     1      -9.636  11.081  66.141  1.00  0.00    -0.240 C  
HETATM   17  C   UNL     1      -9.947   9.287  67.897  1.00  0.00    -0.228 C  
HETATM   18  C   UNL     1     -10.141  12.422  65.557  1.00  0.00    -0.287 C  
HETATM   19  C   UNL     1     -10.316   8.995  69.335  1.00  0.00    -0.213 C  
HETATM   20  C   UNL     1     -11.572  12.189  65.037  1.00  0.00    -0.365 C  
HETATM   21  C   UNL     1      -9.967  13.494  66.661  1.00  0.00    -0.282 C  
HETATM   22  C   UNL     1     -11.530   9.709  69.852  1.00  0.00    -0.144 C  
ENDROOT
BRANCH   4  23
HETATM   23  C   UNL     1      -8.084  15.937  67.291  1.00  0.00    -0.213 C  
HETATM   24  C   UNL     1      -7.016  16.267  66.848  1.00  0.00    -0.226 C  
ENDBRANCH   4  23
TORSDOF 1
ENDMDL
MODEL       27
REMARK 921   NORMALIZED FREE ENERGY PREDICTED BY IDOCK:   -5.71 KCAL/MOL
REMARK 922        TOTAL FREE ENERGY PREDICTED BY IDOCK:   -6.06 KCAL/MOL
REMARK 923 INTER-LIGAND FREE ENERGY PREDICTED BY IDOCK:   -6.05 KCAL/MOL
REMARK 924 INTRA-LIGAND FREE ENERGY PREDICTED BY IDOCK:   -0.01 KCAL/MOL
REMARK 927      BINDING AFFINITY PREDICTED BY RF-SCORE:    0.00 PKD
ROOT
HETATM    1  C   UNL     1      -9.853   9.235  70.297  1.00  0.00    -0.265 C  
HETATM    2  C   UNL     1     -10.884   8.381  70.755  1.00  0.00    -0.255 C  
HETATM    3  C   UNL     1     -10.541   8.334  69.313  1.00  0.00    -0.191 C  
HETATM    4  C   UNL     1      -8.722   9.205  68.875  1.00  0.00    -0.132 C  
HETATM    5  C   UNL     1      -9.019   7.896  69.133  1.00  0.00    -0.145 C  
HETATM    6  C   UNL     1     -11.511  11.719  65.545  1.00  0.00    -0.241 C  
HETATM    7  O   UNL     1      -7.909   9.110  67.702  1.00  0.00    -0.096 OA 
HETATM    8  C   UNL     1      -9.672   7.757  67.388  1.00  0.00    -0.211 C  
HETATM    9  C   UNL     1      -8.208   6.767  69.703  1.00  0.00    -0.131 C  
HETATM   10  O   UNL     1     -11.632  15.151  65.010  1.00  0.00    -0.354 OA 
HETATM   11  H   UNL     1      -7.072   9.510  67.500  1.00  0.00     0.000 HD 
HETATM   12  C   UNL     1     -10.224   9.276  66.784  1.00  0.00    -0.325 C  
HETATM   13  C   UNL     1     -11.001  10.385  67.722  1.00  0.00    -0.369 C  
HETATM   14  C   UNL     1     -11.347  11.732  67.054  1.00  0.00    -0.387 C  
HETATM   15  C   UNL     1     -11.631  12.842  67.782  1.00  0.00    -0.405 C  
HETATM   16  C   UNL     1     -11.614  12.890  69.305  1.00  0.00    -0.368 C  
HETATM   17  C   UNL     1     -12.052  14.158  67.160  1.00  0.00    -0.432 C  
HETATM   18  C   UNL     1     -11.586  11.514  70.012  1.00  0.00    -0.364 C  
HETATM   19  C   UNL     1     -11.930  14.144  65.652  1.00  0.00    -0.396 C  
HETATM   20  C   UNL     1     -13.023  10.961  70.002  1.00  0.00     0.046 C  
HETATM   21  C   UNL     1     -10.505  10.660  69.306  1.00  0.00    -0.252 C  
HETATM   22  C   UNL     1     -12.339  12.867  64.979  1.00  0.00    -0.541 C  
ENDROOT
BRANCH   4  23
HETATM   23  C   UNL     1      -7.600   9.595  69.884  1.00  0.00    -0.138 C  
HETATM   24  C   UNL     1      -6.733   9.942  70.641  1.00  0.00    -0.097 C  
ENDBRANCH   4  23
TORSDOF 1
ENDMDL
MODEL       28
REMARK 921   NORMALIZED FREE ENERGY PREDICTED BY IDOCK:   -5.71 KCAL/MOL
REMARK 922        TOTAL FREE ENERGY PREDICTED BY IDOCK:   -6.06 KCAL/MOL
REMARK 923 INTER-LIGAND FREE ENERGY PREDICTED BY IDOCK:   -6.09 KCAL/MOL
REMARK 924 INTRA-LIGAND FREE ENERGY PREDICTED BY IDOCK:    0.03 KCAL/MOL
REMARK 927      BINDING AFFINITY PREDICTED BY RF-SCORE:    0.00 PKD
ROOT
HETATM    1  C   UNL     1      -8.259  10.824  69.065  1.00  0.00    -0.139 C  
HETATM    2  C   UNL     1      -8.762   9.671  69.712  1.00  0.00    -0.221 C  
HETATM    3  C   UNL     1      -8.486   9.579  68.257  1.00  0.00    -0.119 C  
HETATM    4  C   UNL     1      -7.291  11.107  67.552  1.00  0.00    -0.102 C  
HETATM    5  C   UNL     1      -6.941   9.858  67.982  1.00  0.00    -0.077 C  
HETATM    6  C   UNL     1     -11.039  11.579  64.247  1.00  0.00    -0.385 C  
HETATM    7  O   UNL     1      -6.567  11.224  66.325  1.00  0.00    -0.283 OA 
HETATM    8  C   UNL     1      -7.514   9.190  66.335  1.00  0.00    -0.092 C  
HETATM    9  C   UNL     1      -5.681   9.314  68.593  1.00  0.00    -0.041 C  
HETATM   10  O   UNL     1     -12.750  14.467  63.348  1.00  0.00    -0.689 OA 
HETATM   11  H   UNL     1      -6.017  11.927  66.000  1.00  0.00     0.000 HD 
HETATM   12  C   UNL     1      -8.727  10.190  65.621  1.00  0.00    -0.173 C  
HETATM   13  C   UNL     1      -9.896  10.948  66.500  1.00  0.00    -0.245 C  
HETATM   14  C   UNL     1     -10.848  11.880  65.722  1.00  0.00    -0.341 C  
HETATM   15  C   UNL     1     -11.587  12.832  66.347  1.00  0.00    -0.435 C  
HETATM   16  C   UNL     1     -11.543  13.100  67.846  1.00  0.00    -0.375 C  
HETATM   17  C   UNL     1     -12.590  13.710  65.625  1.00  0.00    -0.531 C  
HETATM   18  C   UNL     1     -10.858  12.003  68.696  1.00  0.00    -0.273 C  
HETATM   19  C   UNL     1     -12.527  13.538  64.124  1.00  0.00    -0.239 C  
HETATM   20  C   UNL     1     -11.876  10.864  68.886  1.00  0.00    -0.340 C  
HETATM   21  C   UNL     1      -9.530  11.641  67.989  1.00  0.00    -0.185 C  
HETATM   22  C   UNL     1     -12.322  12.133  63.639  1.00  0.00    -0.673 C  
ENDROOT
BRANCH   4  23
HETATM   23  C   UNL     1      -6.443  12.103  68.399  1.00  0.00    -0.056 C  
HETATM   24  C   UNL     1      -5.760  12.832  69.069  1.00  0.00    -0.072 C  
ENDBRANCH   4  23
TORSDOF 1
ENDMDL
MODEL       29
REMARK 921   NORMALIZED FREE ENERGY PREDICTED BY IDOCK:   -5.68 KCAL/MOL
REMARK 922        TOTAL FREE ENERGY PREDICTED BY IDOCK:   -6.03 KCAL/MOL
REMARK 923 INTER-LIGAND FREE ENERGY PREDICTED BY IDOCK:   -6.01 KCAL/MOL
REMARK 924 INTRA-LIGAND FREE ENERGY PREDICTED BY IDOCK:   -0.02 KCAL/MOL
REMARK 927      BINDING AFFINITY PREDICTED BY RF-SCORE:    0.00 PKD
ROOT
HETATM    1  C   UNL     1      -9.027   9.937  67.148  1.00  0.00    -0.150 C  
HETATM    2  C   UNL     1     -10.158   9.118  67.380  1.00  0.00    -0.289 C  
HETATM    3  C   UNL     1     -10.026   9.749  66.044  1.00  0.00    -0.342 C  
HETATM    4  C   UNL     1      -8.129  10.464  65.659  1.00  0.00    -0.156 C  
HETATM    5  C   UNL     1      -8.683   9.255  65.343  1.00  0.00    -0.208 C  
HETATM    6  C   UNL     1     -10.676  14.656  64.595  1.00  0.00    -0.309 C  
HETATM    7  O   UNL     1      -7.520  10.855  64.425  1.00  0.00    -0.324 OA 
HETATM    8  C   UNL     1      -9.572  10.093  63.930  1.00  0.00    -0.302 C  
HETATM    9  C   UNL     1      -8.086   7.894  65.127  1.00  0.00    -0.144 C  
HETATM   10  O   UNL     1     -10.073  17.879  65.749  1.00  0.00    -0.563 OA 
HETATM   11  H   UNL     1      -6.647  11.184  64.248  1.00  0.00     0.000 HD 
HETATM   12  C   UNL     1      -9.834  11.771  64.239  1.00  0.00    -0.231 C  
HETATM   13  C   UNL     1     -10.206  12.360  65.731  1.00  0.00    -0.283 C  
HETATM   14  C   UNL     1     -10.318  13.894  65.858  1.00  0.00    -0.318 C  
HETATM   15  C   UNL     1     -10.241  14.521  67.060  1.00  0.00    -0.262 C  
HETATM   16  C   UNL     1     -10.015  13.803  68.385  1.00  0.00    -0.229 C  
HETATM   17  C   UNL     1     -10.426  16.016  67.229  1.00  0.00    -0.308 C  
HETATM   18  C   UNL     1     -10.212  12.268  68.349  1.00  0.00    -0.220 C  
HETATM   19  C   UNL     1     -10.508  16.737  65.902  1.00  0.00    -0.301 C  
HETATM   20  C   UNL     1     -11.726  11.996  68.410  1.00  0.00    -0.390 C  
HETATM   21  C   UNL     1      -9.458  11.740  67.104  1.00  0.00    -0.180 C  
HETATM   22  C   UNL     1     -11.284  16.035  64.827  1.00  0.00    -0.348 C  
ENDROOT
BRANCH   4  23
HETATM   23  C   UNL     1      -6.826  10.142  66.451  1.00  0.00    -0.100 C  
HETATM   24  C   UNL     1      -5.794   9.923  67.028  1.00  0.00    -0.051 C  
ENDBRANCH   4  23
TORSDOF 1
ENDMDL
MODEL       30
REMARK 921   NORMALIZED FREE ENERGY PREDICTED BY IDOCK:   -5.65 KCAL/MOL
REMARK 922        TOTAL FREE ENERGY PREDICTED BY IDOCK:   -5.99 KCAL/MOL
REMARK 923 INTER-LIGAND FREE ENERGY PREDICTED BY IDOCK:   -6.03 KCAL/MOL
REMARK 924 INTRA-LIGAND FREE ENERGY PREDICTED BY IDOCK:    0.04 KCAL/MOL
REMARK 927      BINDING AFFINITY PREDICTED BY RF-SCORE:    0.00 PKD
ROOT
HETATM    1  C   UNL     1      -9.580  13.356  65.877  1.00  0.00    -0.127 C  
HETATM    2  C   UNL     1     -10.293  12.950  64.724  1.00  0.00    -0.345 C  
HETATM    3  C   UNL     1     -11.078  13.285  65.937  1.00  0.00    -0.301 C  
HETATM    4  C   UNL     1     -10.002  14.342  67.345  1.00  0.00    -0.242 C  
HETATM    5  C   UNL     1     -10.817  14.801  66.350  1.00  0.00    -0.322 C  
HETATM    6  C   UNL     1     -11.663  10.682  70.351  1.00  0.00    -0.446 C  
HETATM    7  O   UNL     1     -10.447  15.092  68.478  1.00  0.00    -0.225 OA 
HETATM    8  C   UNL     1     -12.283  14.356  67.418  1.00  0.00    -0.230 C  
HETATM    9  C   UNL     1     -10.842  16.088  65.574  1.00  0.00    -0.301 C  
HETATM   10  O   UNL     1      -9.825   8.719  72.553  1.00  0.00    -0.249 OA 
HETATM   11  H   UNL     1      -9.951  15.578  69.126  1.00  0.00     0.000 HD 
HETATM   12  C   UNL     1     -11.914  13.073  68.514  1.00  0.00    -0.296 C  
HETATM   13  C   UNL     1     -10.943  11.805  68.114  1.00  0.00    -0.275 C  
HETATM   14  C   UNL     1     -10.639  10.790  69.236  1.00  0.00    -0.261 C  
HETATM   15  C   UNL     1      -9.585   9.937  69.164  1.00  0.00    -0.204 C  
HETATM   16  C   UNL     1      -8.592   9.902  68.009  1.00  0.00    -0.121 C  
HETATM   17  C   UNL     1      -9.304   8.876  70.210  1.00  0.00    -0.208 C  
HETATM   18  C   UNL     1      -9.030  10.665  66.736  1.00  0.00    -0.149 C  
HETATM   19  C   UNL     1     -10.205   9.008  71.418  1.00  0.00    -0.329 C  
HETATM   20  C   UNL     1     -10.016   9.762  65.973  1.00  0.00    -0.342 C  
HETATM   21  C   UNL     1      -9.559  12.047  67.191  1.00  0.00    -0.195 C  
HETATM   22  C   UNL     1     -11.631   9.371  71.128  1.00  0.00    -0.415 C  
ENDROOT
BRANCH   4  23
HETATM   23  C   UNL     1      -8.632  15.054  67.138  1.00  0.00    -0.246 C  
HETATM   24  C   UNL     1      -7.592  15.624  66.934  1.00  0.00    -0.201 C  
ENDBRANCH   4  23
TORSDOF 1
ENDMDL
MODEL       31
REMARK 921   NORMALIZED FREE ENERGY PREDICTED BY IDOCK:   -5.64 KCAL/MOL
REMARK 922        TOTAL FREE ENERGY PREDICTED BY IDOCK:   -5.99 KCAL/MOL
REMARK 923 INTER-LIGAND FREE ENERGY PREDICTED BY IDOCK:   -5.97 KCAL/MOL
REMARK 924 INTRA-LIGAND FREE ENERGY PREDICTED BY IDOCK:   -0.01 KCAL/MOL
REMARK 927      BINDING AFFINITY PREDICTED BY RF-SCORE:    0.00 PKD
ROOT
HETATM    1  C   UNL     1     -11.617  14.913  67.523  1.00  0.00    -0.355 C  
HETATM    2  C   UNL     1     -11.718  15.768  68.646  1.00  0.00    -0.353 C  
HETATM    3  C   UNL     1     -10.362  15.328  68.235  1.00  0.00    -0.234 C  
HETATM    4  C   UNL     1     -10.299  14.542  66.328  1.00  0.00    -0.294 C  
HETATM    5  C   UNL     1     -10.061  15.820  66.749  1.00  0.00    -0.276 C  
HETATM    6  C   UNL     1      -8.058  10.740  68.718  1.00  0.00    -0.143 C  
HETATM    7  O   UNL     1      -9.185  14.290  65.467  1.00  0.00    -0.451 OA 
HETATM    8  C   UNL     1      -8.374  15.260  67.321  1.00  0.00    -0.225 C  
HETATM    9  C   UNL     1     -10.198  17.152  66.068  1.00  0.00    -0.332 C  
HETATM   10  O   UNL     1      -8.798   7.350  68.517  1.00  0.00    -0.127 OA 
HETATM   11  H   UNL     1      -9.156  13.928  64.590  1.00  0.00     0.000 HD 
HETATM   12  C   UNL     1      -8.352  13.579  67.710  1.00  0.00    -0.181 C  
HETATM   13  C   UNL     1      -9.614  12.809  68.435  1.00  0.00    -0.175 C  
HETATM   14  C   UNL     1      -9.471  11.285  68.631  1.00  0.00    -0.179 C  
HETATM   15  C   UNL     1     -10.548  10.488  68.855  1.00  0.00    -0.243 C  
HETATM   16  C   UNL     1     -11.985  10.990  68.912  1.00  0.00    -0.332 C  
HETATM   17  C   UNL     1     -10.436   9.002  69.130  1.00  0.00    -0.239 C  
HETATM   18  C   UNL     1     -12.147  12.524  69.038  1.00  0.00    -0.181 C  
HETATM   19  C   UNL     1      -9.028   8.486  68.933  1.00  0.00    -0.146 C  
HETATM   20  C   UNL     1     -11.914  12.893  70.515  1.00  0.00    -0.282 C  
HETATM   21  C   UNL     1     -11.198  13.170  68.000  1.00  0.00    -0.308 C  
HETATM   22  C   UNL     1      -7.931   9.390  69.414  1.00  0.00    -0.089 C  
ENDROOT
BRANCH   4  23
HETATM   23  C   UNL     1     -11.400  14.652  65.230  1.00  0.00    -0.354 C  
HETATM   24  C   UNL     1     -12.241  14.687  64.371  1.00  0.00    -0.473 C  
ENDBRANCH   4  23
TORSDOF 1
ENDMDL
MODEL       32
REMARK 921   NORMALIZED FREE ENERGY PREDICTED BY IDOCK:   -5.64 KCAL/MOL
REMARK 922        TOTAL FREE ENERGY PREDICTED BY IDOCK:   -5.98 KCAL/MOL
REMARK 923 INTER-LIGAND FREE ENERGY PREDICTED BY IDOCK:   -5.99 KCAL/MOL
REMARK 924 INTRA-LIGAND FREE ENERGY PREDICTED BY IDOCK:    0.00 KCAL/MOL
REMARK 927      BINDING AFFINITY PREDICTED BY RF-SCORE:    0.00 PKD
ROOT
HETATM    1  C   UNL     1     -10.689  10.061  67.817  1.00  0.00    -0.333 C  
HETATM    2  C   UNL     1     -10.722   9.356  66.590  1.00  0.00    -0.076 C  
HETATM    3  C   UNL     1      -9.442   9.993  66.985  1.00  0.00    -0.197 C  
HETATM    4  C   UNL     1      -9.369  10.521  68.978  1.00  0.00    -0.196 C  
HETATM    5  C   UNL     1      -8.935   9.379  68.365  1.00  0.00    -0.128 C  
HETATM    6  C   UNL     1      -8.070  14.964  67.038  1.00  0.00    -0.200 C  
HETATM    7  O   UNL     1      -8.253  10.870  69.803  1.00  0.00    -0.347 OA 
HETATM    8  C   UNL     1      -7.432  10.326  67.786  1.00  0.00    -0.088 C  
HETATM    9  C   UNL     1      -8.767   7.969  68.854  1.00  0.00    -0.131 C  
HETATM   10  O   UNL     1      -9.404  18.090  67.766  1.00  0.00    -0.257 OA 
HETATM   11  H   UNL     1      -8.220  11.113  70.720  1.00  0.00     0.000 HD 
HETATM   12  C   UNL     1      -7.752  12.016  67.642  1.00  0.00    -0.144 C  
HETATM   13  C   UNL     1      -9.190  12.614  67.107  1.00  0.00    -0.214 C  
HETATM   14  C   UNL     1      -9.347  14.149  67.125  1.00  0.00    -0.241 C  
HETATM   15  C   UNL     1     -10.567  14.744  67.078  1.00  0.00    -0.290 C  
HETATM   16  C   UNL     1     -11.887  13.985  67.029  1.00  0.00    -0.458 C  
HETATM   17  C   UNL     1     -10.754  16.247  67.014  1.00  0.00    -0.233 C  
HETATM   18  C   UNL     1     -11.773  12.478  66.693  1.00  0.00    -0.453 C  
HETATM   19  C   UNL     1      -9.454  16.996  67.204  1.00  0.00    -0.242 C  
HETATM   20  C   UNL     1     -11.597  12.358  65.168  1.00  0.00    -0.408 C  
HETATM   21  C   UNL     1     -10.639  11.899  67.573  1.00  0.00    -0.250 C  
HETATM   22  C   UNL     1      -8.253  16.392  66.537  1.00  0.00    -0.341 C  
ENDROOT
BRANCH   4  23
HETATM   23  C   UNL     1     -10.336  10.057  70.108  1.00  0.00    -0.321 C  
HETATM   24  C   UNL     1     -11.043   9.678  71.004  1.00  0.00    -0.438 C  
ENDBRANCH   4  23
TORSDOF 1
ENDMDL
MODEL       33
REMARK 921   NORMALIZED FREE ENERGY PREDICTED BY IDOCK:   -5.61 KCAL/MOL
REMARK 922        TOTAL FREE ENERGY PREDICTED BY IDOCK:   -5.95 KCAL/MOL
REMARK 923 INTER-LIGAND FREE ENERGY PREDICTED BY IDOCK:   -5.96 KCAL/MOL
REMARK 924 INTRA-LIGAND FREE ENERGY PREDICTED BY IDOCK:    0.01 KCAL/MOL
REMARK 927      BINDING AFFINITY PREDICTED BY RF-SCORE:    0.00 PKD
ROOT
HETATM    1  C   UNL     1     -12.010  13.523  66.864  1.00  0.00    -0.447 C  
HETATM    2  C   UNL     1     -12.366  14.607  67.703  1.00  0.00     0.102 C  
HETATM    3  C   UNL     1     -10.928  14.419  67.392  1.00  0.00    -0.303 C  
HETATM    4  C   UNL     1     -10.592  13.171  65.784  1.00  0.00    -0.282 C  
HETATM    5  C   UNL     1     -10.694  14.533  65.820  1.00  0.00    -0.320 C  
HETATM    6  C   UNL     1      -7.589  10.870  69.082  1.00  0.00    -0.133 C  
HETATM    7  O   UNL     1      -9.415  12.972  64.997  1.00  0.00    -0.432 OA 
HETATM    8  C   UNL     1      -8.946  14.592  66.477  1.00  0.00    -0.236 C  
HETATM    9  C   UNL     1     -11.124  15.544  64.795  1.00  0.00    -0.421 C  
HETATM   10  O   UNL     1      -7.465   7.486  69.866  1.00  0.00    -0.080 OA 
HETATM   11  H   UNL     1      -9.260  12.397  64.256  1.00  0.00     0.000 HD 
HETATM   12  C   UNL     1      -8.528  13.147  67.323  1.00  0.00    -0.199 C  
HETATM   13  C   UNL     1      -9.592  12.324  68.273  1.00  0.00    -0.212 C  
HETATM   14  C   UNL     1      -9.088  11.001  68.886  1.00  0.00    -0.132 C  
HETATM   15  C   UNL     1      -9.944  10.058  69.357  1.00  0.00    -0.239 C  
HETATM   16  C   UNL     1     -11.462  10.184  69.313  1.00  0.00    -0.168 C  
HETATM   17  C   UNL     1      -9.483   8.784  70.036  1.00  0.00    -0.176 C  
HETATM   18  C   UNL     1     -12.001  11.602  69.006  1.00  0.00    -0.368 C  
HETATM   19  C   UNL     1      -7.984   8.599  69.951  1.00  0.00    -0.105 C  
HETATM   20  C   UNL     1     -11.928  12.415  70.311  1.00  0.00    -0.371 C  
HETATM   21  C   UNL     1     -11.196  12.145  67.800  1.00  0.00    -0.333 C  
HETATM   22  C   UNL     1      -7.165   9.844  70.126  1.00  0.00    -0.159 C  
ENDROOT
BRANCH   4  23
HETATM   23  C   UNL     1     -11.638  12.693  64.732  1.00  0.00    -0.377 C  
HETATM   24  C   UNL     1     -12.427  12.359  63.888  1.00  0.00    -0.573 C  
ENDBRANCH   4  23
TORSDOF 1
ENDMDL
MODEL       34
REMARK 921   NORMALIZED FREE ENERGY PREDICTED BY IDOCK:   -5.56 KCAL/MOL
REMARK 922        TOTAL FREE ENERGY PREDICTED BY IDOCK:   -5.90 KCAL/MOL
REMARK 923 INTER-LIGAND FREE ENERGY PREDICTED BY IDOCK:   -5.88 KCAL/MOL
REMARK 924 INTRA-LIGAND FREE ENERGY PREDICTED BY IDOCK:   -0.02 KCAL/MOL
REMARK 927      BINDING AFFINITY PREDICTED BY RF-SCORE:    0.00 PKD
ROOT
HETATM    1  C   UNL     1      -8.718  11.283  67.449  1.00  0.00    -0.139 C  
HETATM    2  C   UNL     1      -8.185  10.860  68.690  1.00  0.00    -0.146 C  
HETATM    3  C   UNL     1      -9.555  11.429  68.686  1.00  0.00    -0.179 C  
HETATM    4  C   UNL     1     -10.403  11.515  66.807  1.00  0.00    -0.226 C  
HETATM    5  C   UNL     1     -10.506  10.545  67.764  1.00  0.00    -0.263 C  
HETATM    6  C   UNL     1     -11.137  16.305  68.114  1.00  0.00    -0.329 C  
HETATM    7  O   UNL     1     -11.764  11.705  66.413  1.00  0.00    -0.472 OA 
HETATM    8  C   UNL     1     -11.735  11.632  68.656  1.00  0.00    -0.386 C  
HETATM    9  C   UNL     1     -10.762   9.066  67.682  1.00  0.00    -0.232 C  
HETATM   10  O   UNL     1     -10.361  19.164  66.297  1.00  0.00    -0.412 OA 
HETATM   11  H   UNL     1     -12.154  11.745  65.548  1.00  0.00     0.000 HD 
HETATM   12  C   UNL     1     -11.485  13.304  68.309  1.00  0.00    -0.351 C  
HETATM   13  C   UNL     1      -9.989  13.967  68.122  1.00  0.00    -0.242 C  
HETATM   14  C   UNL     1      -9.941  15.457  67.724  1.00  0.00    -0.225 C  
HETATM   15  C   UNL     1      -8.830  16.017  67.179  1.00  0.00    -0.224 C  
HETATM   16  C   UNL     1      -7.546  15.253  66.881  1.00  0.00    -0.051 C  
HETATM   17  C   UNL     1      -8.722  17.493  66.850  1.00  0.00    -0.269 C  
HETATM   18  C   UNL     1      -7.437  13.858  67.544  1.00  0.00    -0.184 C  
HETATM   19  C   UNL     1     -10.040  18.216  67.014  1.00  0.00    -0.351 C  
HETATM   20  C   UNL     1      -7.019  14.076  69.010  1.00  0.00    -0.112 C  
HETATM   21  C   UNL     1      -8.782  13.131  67.302  1.00  0.00    -0.210 C  
HETATM   22  C   UNL     1     -10.865  17.802  68.197  1.00  0.00    -0.193 C  
ENDROOT
BRANCH   4  23
HETATM   23  C   UNL     1      -9.904  10.793  65.519  1.00  0.00    -0.309 C  
HETATM   24  C   UNL     1      -9.543  10.272  64.497  1.00  0.00    -0.378 C  
ENDBRANCH   4  23
TORSDOF 1
ENDMDL
MODEL       35
REMARK 921   NORMALIZED FREE ENERGY PREDICTED BY IDOCK:   -5.55 KCAL/MOL
REMARK 922        TOTAL FREE ENERGY PREDICTED BY IDOCK:   -5.89 KCAL/MOL
REMARK 923 INTER-LIGAND FREE ENERGY PREDICTED BY IDOCK:   -5.87 KCAL/MOL
REMARK 924 INTRA-LIGAND FREE ENERGY PREDICTED BY IDOCK:   -0.02 KCAL/MOL
REMARK 927      BINDING AFFINITY PREDICTED BY RF-SCORE:    0.00 PKD
ROOT
HETATM    1  C   UNL     1      -7.879  18.176  67.249  1.00  0.00    -0.230 C  
HETATM    2  C   UNL     1      -8.450  18.685  68.440  1.00  0.00    -0.366 C  
HETATM    3  C   UNL     1      -7.642  17.444  68.538  1.00  0.00    -0.254 C  
HETATM    4  C   UNL     1      -6.458  17.104  66.883  1.00  0.00    -0.204 C  
HETATM    5  C   UNL     1      -6.150  17.730  68.059  1.00  0.00    -0.164 C  
HETATM    6  C   UNL     1      -8.732  12.632  67.035  1.00  0.00    -0.198 C  
HETATM    7  O   UNL     1      -5.347  16.220  66.706  1.00  0.00    -0.336 OA 
HETATM    8  C   UNL     1      -5.987  16.046  68.850  1.00  0.00    -0.114 C  
HETATM    9  C   UNL     1      -5.154  18.800  68.405  1.00  0.00    -0.178 C  
HETATM   10  O   UNL     1     -10.308  10.943  64.439  1.00  0.00    -0.337 OA 
HETATM   11  H   UNL     1      -4.802  16.064  65.944  1.00  0.00     0.000 HD 
HETATM   12  C   UNL     1      -6.954  14.862  68.049  1.00  0.00    -0.150 C  
HETATM   13  C   UNL     1      -8.445  15.190  67.432  1.00  0.00    -0.202 C  
HETATM   14  C   UNL     1      -9.141  14.046  66.665  1.00  0.00    -0.221 C  
HETATM   15  C   UNL     1     -10.165  14.280  65.804  1.00  0.00    -0.351 C  
HETATM   16  C   UNL     1     -10.714  15.665  65.486  1.00  0.00    -0.403 C  
HETATM   17  C   UNL     1     -10.921  13.174  65.095  1.00  0.00    -0.317 C  
HETATM   18  C   UNL     1     -10.272  16.791  66.451  1.00  0.00    -0.329 C  
HETATM   19  C   UNL     1     -10.284  11.818  65.304  1.00  0.00    -0.267 C  
HETATM   20  C   UNL     1     -11.148  16.686  67.713  1.00  0.00    -0.157 C  
HETATM   21  C   UNL     1      -8.743  16.649  66.649  1.00  0.00    -0.280 C  
HETATM   22  C   UNL     1      -9.752  11.556  66.682  1.00  0.00    -0.221 C  
ENDROOT
BRANCH   4  23
HETATM   23  C   UNL     1      -6.108  18.120  65.755  1.00  0.00    -0.274 C  
HETATM   24  C   UNL     1      -5.818  18.865  64.856  1.00  0.00    -0.316 C  
ENDBRANCH   4  23
TORSDOF 1
ENDMDL
MODEL       36
REMARK 921   NORMALIZED FREE ENERGY PREDICTED BY IDOCK:   -5.51 KCAL/MOL
REMARK 922        TOTAL FREE ENERGY PREDICTED BY IDOCK:   -5.85 KCAL/MOL
REMARK 923 INTER-LIGAND FREE ENERGY PREDICTED BY IDOCK:   -5.84 KCAL/MOL
REMARK 924 INTRA-LIGAND FREE ENERGY PREDICTED BY IDOCK:   -0.01 KCAL/MOL
REMARK 927      BINDING AFFINITY PREDICTED BY RF-SCORE:    0.00 PKD
ROOT
HETATM    1  C   UNL     1     -11.124   6.223  70.111  1.00  0.00    -0.443 C  
HETATM    2  C   UNL     1     -10.273   5.104  69.944  1.00  0.00    -0.361 C  
HETATM    3  C   UNL     1      -9.735   6.276  70.679  1.00  0.00    -0.199 C  
HETATM    4  C   UNL     1     -11.196   7.592  71.304  1.00  0.00    -0.254 C  
HETATM    5  C   UNL     1     -10.618   6.552  71.976  1.00  0.00    -0.244 C  
HETATM    6  C   UNL     1      -8.247  10.900  68.948  1.00  0.00    -0.141 C  
HETATM    7  O   UNL     1     -11.139   8.649  72.266  1.00  0.00    -0.354 OA 
HETATM    8  C   UNL     1      -9.133   7.644  72.278  1.00  0.00    -0.183 C  
HETATM    9  C   UNL     1     -11.110   5.664  73.083  1.00  0.00    -0.315 C  
HETATM   10  O   UNL     1      -9.162  13.286  66.591  1.00  0.00    -0.250 OA 
HETATM   11  H   UNL     1     -11.811   9.255  72.553  1.00  0.00     0.000 HD 
HETATM   12  C   UNL     1      -8.964   8.853  71.058  1.00  0.00    -0.298 C  
HETATM   13  C   UNL     1      -9.304   8.578  69.470  1.00  0.00    -0.161 C  
HETATM   14  C   UNL     1      -9.190   9.790  68.522  1.00  0.00    -0.134 C  
HETATM   15  C   UNL     1      -9.788   9.804  67.303  1.00  0.00    -0.228 C  
HETATM   16  C   UNL     1     -10.641   8.665  66.757  1.00  0.00    -0.223 C  
HETATM   17  C   UNL     1      -9.631  10.943  66.315  1.00  0.00    -0.234 C  
HETATM   18  C   UNL     1     -10.525   7.325  67.521  1.00  0.00    -0.337 C  
HETATM   19  C   UNL     1      -8.904  12.126  66.915  1.00  0.00    -0.202 C  
HETATM   20  C   UNL     1      -9.229   6.638  67.052  1.00  0.00    -0.147 C  
HETATM   21  C   UNL     1     -10.635   7.649  69.031  1.00  0.00    -0.186 C  
HETATM   22  C   UNL     1      -7.752  11.792  67.815  1.00  0.00    -0.133 C  
ENDROOT
BRANCH   4  23
HETATM   23  C   UNL     1     -12.732   7.334  71.357  1.00  0.00    -0.427 C  
HETATM   24  C   UNL     1     -13.925   7.180  71.376  1.00  0.00    -0.384 C  
ENDBRANCH   4  23
TORSDOF 1
ENDMDL
MODEL       37
REMARK 921   NORMALIZED FREE ENERGY PREDICTED BY IDOCK:   -5.47 KCAL/MOL
REMARK 922        TOTAL FREE ENERGY PREDICTED BY IDOCK:   -5.81 KCAL/MOL
REMARK 923 INTER-LIGAND FREE ENERGY PREDICTED BY IDOCK:   -5.80 KCAL/MOL
REMARK 924 INTRA-LIGAND FREE ENERGY PREDICTED BY IDOCK:   -0.01 KCAL/MOL
REMARK 927      BINDING AFFINITY PREDICTED BY RF-SCORE:    0.00 PKD
ROOT
HETATM    1  C   UNL     1      -8.889  15.613  68.534  1.00  0.00    -0.187 C  
HETATM    2  C   UNL     1      -7.775  16.273  67.961  1.00  0.00    -0.154 C  
HETATM    3  C   UNL     1      -8.860  15.835  67.049  1.00  0.00    -0.241 C  
HETATM    4  C   UNL     1     -10.618  15.375  68.028  1.00  0.00    -0.263 C  
HETATM    5  C   UNL     1     -10.226  16.550  67.450  1.00  0.00    -0.287 C  
HETATM    6  C   UNL     1     -10.142  11.111  65.424  1.00  0.00    -0.317 C  
HETATM    7  O   UNL     1     -11.945  15.210  67.519  1.00  0.00    -0.379 OA 
HETATM    8  C   UNL     1     -10.650  15.812  65.788  1.00  0.00    -0.369 C  
HETATM    9  C   UNL     1     -10.585  17.983  67.727  1.00  0.00    -0.409 C  
HETATM   10  O   UNL     1     -10.341   7.848  66.604  1.00  0.00    -0.291 OA 
HETATM   11  H   UNL     1     -12.753  14.998  67.970  1.00  0.00     0.000 HD 
HETATM   12  C   UNL     1     -10.525  14.090  65.799  1.00  0.00    -0.317 C  
HETATM   13  C   UNL     1      -9.360  13.280  66.634  1.00  0.00    -0.247 C  
HETATM   14  C   UNL     1      -9.443  11.740  66.615  1.00  0.00    -0.215 C  
HETATM   15  C   UNL     1      -8.804  10.976  67.539  1.00  0.00    -0.131 C  
HETATM   16  C   UNL     1      -7.974  11.540  68.686  1.00  0.00    -0.135 C  
HETATM   17  C   UNL     1      -8.799   9.461  67.502  1.00  0.00    -0.123 C  
HETATM   18  C   UNL     1      -7.605  13.038  68.564  1.00  0.00    -0.121 C  
HETATM   19  C   UNL     1      -9.736   8.909  66.451  1.00  0.00    -0.262 C  
HETATM   20  C   UNL     1      -6.414  13.141  67.593  1.00  0.00    -0.166 C  
HETATM   21  C   UNL     1      -8.895  13.795  68.167  1.00  0.00    -0.185 C  
HETATM   22  C   UNL     1      -9.768   9.659  65.151  1.00  0.00    -0.287 C  
ENDROOT
BRANCH   4  23
HETATM   23  C   UNL     1     -10.993  15.727  69.499  1.00  0.00    -0.295 C  
HETATM   24  C   UNL     1     -11.288  15.948  70.644  1.00  0.00    -0.421 C  
ENDBRANCH   4  23
TORSDOF 1
ENDMDL
MODEL       38
REMARK 921   NORMALIZED FREE ENERGY PREDICTED BY IDOCK:   -5.43 KCAL/MOL
REMARK 922        TOTAL FREE ENERGY PREDICTED BY IDOCK:   -5.77 KCAL/MOL
REMARK 923 INTER-LIGAND FREE ENERGY PREDICTED BY IDOCK:   -5.75 KCAL/MOL
REMARK 924 INTRA-LIGAND FREE ENERGY PREDICTED BY IDOCK:   -0.02 KCAL/MOL
REMARK 927      BINDING AFFINITY PREDICTED BY RF-SCORE:    0.00 PKD
ROOT
HETATM    1  C   UNL     1      -8.176  17.629  69.030  1.00  0.00    -0.051 C  
HETATM    2  C   UNL     1      -6.854  17.197  69.293  1.00  0.00    -0.209 C  
HETATM    3  C   UNL     1      -7.250  17.381  67.875  1.00  0.00    -0.193 C  
HETATM    4  C   UNL     1      -8.975  18.489  67.643  1.00  0.00    -0.271 C  
HETATM    5  C   UNL     1      -7.671  18.897  67.624  1.00  0.00    -0.259 C  
HETATM    6  C   UNL     1     -10.321  14.525  64.873  1.00  0.00    -0.401 C  
HETATM    7  O   UNL     1      -9.515  19.130  66.483  1.00  0.00    -0.328 OA 
HETATM    8  C   UNL     1      -7.546  18.236  65.882  1.00  0.00    -0.164 C  
HETATM    9  C   UNL     1      -7.016  20.207  67.958  1.00  0.00    -0.325 C  
HETATM   10  O   UNL     1     -13.265  12.688  65.053  1.00  0.00    -0.753 OA 
HETATM   11  H   UNL     1     -10.309  19.639  66.376  1.00  0.00     0.000 HD 
HETATM   12  C   UNL     1      -8.668  16.955  65.598  1.00  0.00     0.436 C  
HETATM   13  C   UNL     1      -9.048  15.827  66.736  1.00  0.00    -0.276 C  
HETATM   14  C   UNL     1     -10.137  14.804  66.354  1.00  0.00    -0.291 C  
HETATM   15  C   UNL     1     -10.803  14.083  67.293  1.00  0.00    -0.288 C  
HETATM   16  C   UNL     1     -10.575  14.217  68.793  1.00  0.00    -0.258 C  
HETATM   17  C   UNL     1     -11.821  13.014  66.949  1.00  0.00    -0.442 C  
HETATM   18  C   UNL     1      -9.294  14.983  69.203  1.00  0.00    -0.189 C  
HETATM   19  C   UNL     1     -12.146  12.984  65.472  1.00  0.00    -0.452 C  
HETATM   20  C   UNL     1      -8.110  14.008  69.066  1.00  0.00     0.087 C  
HETATM   21  C   UNL     1      -9.239  16.271  68.347  1.00  0.00    -0.203 C  
HETATM   22  C   UNL     1     -10.983  13.192  64.547  1.00  0.00    -0.392 C  
ENDROOT
BRANCH   4  23
HETATM   23  C   UNL     1      -9.681  19.365  68.721  1.00  0.00    -0.516 C  
HETATM   24  C   UNL     1     -10.267  20.044  69.523  1.00  0.00    -0.010 C  
ENDBRANCH   4  23
TORSDOF 1
ENDMDL
MODEL       39
REMARK 921   NORMALIZED FREE ENERGY PREDICTED BY IDOCK:   -5.30 KCAL/MOL
REMARK 922        TOTAL FREE ENERGY PREDICTED BY IDOCK:   -5.62 KCAL/MOL
REMARK 923 INTER-LIGAND FREE ENERGY PREDICTED BY IDOCK:   -5.61 KCAL/MOL
REMARK 924 INTRA-LIGAND FREE ENERGY PREDICTED BY IDOCK:   -0.02 KCAL/MOL
REMARK 927      BINDING AFFINITY PREDICTED BY RF-SCORE:    0.00 PKD
ROOT
HETATM    1  C   UNL     1      -9.956   6.189  72.155  1.00  0.00    -0.188 C  
HETATM    2  C   UNL     1     -10.595   5.135  71.459  1.00  0.00    -0.217 C  
HETATM    3  C   UNL     1      -9.805   6.106  70.663  1.00  0.00    -0.214 C  
HETATM    4  C   UNL     1      -8.522   7.250  71.805  1.00  0.00    -0.111 C  
HETATM    5  C   UNL     1      -8.284   6.082  71.137  1.00  0.00    -0.123 C  
HETATM    6  C   UNL     1     -10.835  10.998  69.397  1.00  0.00    -0.278 C  
HETATM    7  O   UNL     1      -7.410   8.060  71.416  1.00  0.00    -0.062 OA 
HETATM    8  C   UNL     1      -8.182   7.071  69.555  1.00  0.00    -0.132 C  
HETATM    9  C   UNL     1      -7.304   4.967  71.366  1.00  0.00    -0.073 C  
HETATM   10  O   UNL     1     -12.259  13.861  70.759  1.00  0.00    -0.338 OA 
HETATM   11  H   UNL     1      -6.819   8.586  71.941  1.00  0.00     0.000 HD 
HETATM   12  C   UNL     1      -9.107   8.526  69.646  1.00  0.00    -0.149 C  
HETATM   13  C   UNL     1     -10.554   8.622  70.425  1.00  0.00    -0.244 C  
HETATM   14  C   UNL     1     -11.209  10.017  70.493  1.00  0.00    -0.408 C  
HETATM   15  C   UNL     1     -12.176  10.311  71.400  1.00  0.00    -0.481 C  
HETATM   16  C   UNL     1     -12.694   9.330  72.444  1.00  0.00    -0.383 C  
HETATM   17  C   UNL     1     -12.895  11.645  71.443  1.00  0.00    -0.461 C  
HETATM   18  C   UNL     1     -12.304   7.850  72.214  1.00  0.00    -0.299 C  
HETATM   19  C   UNL     1     -12.282  12.658  70.501  1.00  0.00    -0.299 C  
HETATM   20  C   UNL     1     -13.258   7.283  71.146  1.00  0.00    -0.273 C  
HETATM   21  C   UNL     1     -10.792   7.822  71.885  1.00  0.00    -0.281 C  
HETATM   22  C   UNL     1     -11.838  12.123  69.172  1.00  0.00    -0.361 C  
ENDROOT
BRANCH   4  23
HETATM   23  C   UNL     1      -8.096   6.992  73.281  1.00  0.00    -0.112 C  
HETATM   24  C   UNL     1      -7.731   6.828  74.415  1.00  0.00    -0.119 C  
ENDBRANCH   4  23
TORSDOF 1
ENDMDL
MODEL       40
REMARK 921   NORMALIZED FREE ENERGY PREDICTED BY IDOCK:   -5.29 KCAL/MOL
REMARK 922        TOTAL FREE ENERGY PREDICTED BY IDOCK:   -5.61 KCAL/MOL
REMARK 923 INTER-LIGAND FREE ENERGY PREDICTED BY IDOCK:   -5.61 KCAL/MOL
REMARK 924 INTRA-LIGAND FREE ENERGY PREDICTED BY IDOCK:   -0.01 KCAL/MOL
REMARK 927      BINDING AFFINITY PREDICTED BY RF-SCORE:    0.00 PKD
ROOT
HETATM    1  C   UNL     1     -11.509  15.085  67.591  1.00  0.00    -0.344 C  
HETATM    2  C   UNL     1     -11.874  15.528  68.885  1.00  0.00    -0.357 C  
HETATM    3  C   UNL     1     -10.427  15.404  68.582  1.00  0.00    -0.237 C  
HETATM    4  C   UNL     1     -10.021  15.269  66.563  1.00  0.00    -0.265 C  
HETATM    5  C   UNL     1     -10.044  16.369  67.373  1.00  0.00    -0.262 C  
HETATM    6  C   UNL     1      -7.478  11.206  68.053  1.00  0.00    -0.094 C  
HETATM    7  O   UNL     1      -8.791  15.434  65.853  1.00  0.00    -0.425 OA 
HETATM    8  C   UNL     1      -8.363  15.865  68.013  1.00  0.00    -0.161 C  
HETATM    9  C   UNL     1     -10.316  17.821  67.100  1.00  0.00    -0.354 C  
HETATM   10  O   UNL     1      -7.631   7.987  66.752  1.00  0.00    -0.091 OA 
HETATM   11  H   UNL     1      -8.604  15.372  64.924  1.00  0.00     0.000 HD 
HETATM   12  C   UNL     1      -8.113  14.161  67.890  1.00  0.00    -0.154 C  
HETATM   13  C   UNL     1      -9.307  13.058  68.149  1.00  0.00    -0.217 C  
HETATM   14  C   UNL     1      -8.942  11.578  67.909  1.00  0.00    -0.159 C  
HETATM   15  C   UNL     1      -9.893  10.628  67.716  1.00  0.00    -0.187 C  
HETATM   16  C   UNL     1     -11.390  10.911  67.691  1.00  0.00    -0.345 C  
HETATM   17  C   UNL     1      -9.574   9.155  67.556  1.00  0.00    -0.186 C  
HETATM   18  C   UNL     1     -11.812  12.297  68.235  1.00  0.00    -0.367 C  
HETATM   19  C   UNL     1      -8.087   8.900  67.441  1.00  0.00    -0.108 C  
HETATM   20  C   UNL     1     -11.810  12.210  69.772  1.00  0.00    -0.397 C  
HETATM   21  C   UNL     1     -10.869  13.345  67.595  1.00  0.00    -0.273 C  
HETATM   22  C   UNL     1      -7.214   9.731  68.333  1.00  0.00    -0.077 C  
ENDROOT
BRANCH   4  23
HETATM   23  C   UNL     1     -10.994  15.584  65.387  1.00  0.00    -0.365 C  
HETATM   24  C   UNL     1     -11.704  15.847  64.453  1.00  0.00    -0.179 C  
ENDBRANCH   4  23
TORSDOF 1
ENDMDL
MODEL       41
REMARK 921   NORMALIZED FREE ENERGY PREDICTED BY IDOCK:   -5.22 KCAL/MOL
REMARK 922        TOTAL FREE ENERGY PREDICTED BY IDOCK:   -5.54 KCAL/MOL
REMARK 923 INTER-LIGAND FREE ENERGY PREDICTED BY IDOCK:   -5.54 KCAL/MOL
REMARK 924 INTRA-LIGAND FREE ENERGY PREDICTED BY IDOCK:   -0.00 KCAL/MOL
REMARK 927      BINDING AFFINITY PREDICTED BY RF-SCORE:    0.00 PKD
ROOT
HETATM    1  C   UNL     1     -10.900   8.651  71.775  1.00  0.00    -0.395 C  
HETATM    2  C   UNL     1     -12.310   8.743  71.860  1.00  0.00    -0.429 C  
HETATM    3  C   UNL     1     -11.740   7.731  70.937  1.00  0.00    -0.281 C  
HETATM    4  C   UNL     1      -9.744   7.337  71.283  1.00  0.00    -0.166 C  
HETATM    5  C   UNL     1     -10.853   6.691  71.755  1.00  0.00    -0.265 C  
HETATM    6  C   UNL     1      -9.412   8.319  66.373  1.00  0.00    -0.287 C  
HETATM    7  O   UNL     1      -8.924   6.253  70.838  1.00  0.00    -0.145 OA 
HETATM    8  C   UNL     1     -11.003   5.849  70.095  1.00  0.00    -0.412 C  
HETATM    9  C   UNL     1     -11.105   5.895  73.004  1.00  0.00    -0.289 C  
HETATM   10  O   UNL     1      -7.204  10.466  64.763  1.00  0.00    -0.121 OA 
HETATM   11  H   UNL     1      -8.006   6.072  70.997  1.00  0.00     0.000 HD 
HETATM   12  C   UNL     1     -10.305   6.793  68.829  1.00  0.00    -0.211 C  
HETATM   13  C   UNL     1     -10.401   8.436  68.779  1.00  0.00    -0.225 C  
HETATM   14  C   UNL     1      -9.646   9.136  67.630  1.00  0.00    -0.181 C  
HETATM   15  C   UNL     1      -9.328  10.455  67.680  1.00  0.00    -0.161 C  
HETATM   16  C   UNL     1      -9.650  11.367  68.858  1.00  0.00    -0.087 C  
HETATM   17  C   UNL     1      -8.657  11.191  66.537  1.00  0.00    -0.169 C  
HETATM   18  C   UNL     1     -10.669  10.800  69.876  1.00  0.00    -0.202 C  
HETATM   19  C   UNL     1      -8.214  10.256  65.434  1.00  0.00    -0.156 C  
HETATM   20  C   UNL     1     -12.075  10.999  69.280  1.00  0.00    -0.363 C  
HETATM   21  C   UNL     1     -10.243   9.345  70.186  1.00  0.00    -0.271 C  
HETATM   22  C   UNL     1      -9.161   9.137  65.111  1.00  0.00    -0.234 C  
ENDROOT
BRANCH   4  23
HETATM   23  C   UNL     1      -8.914   7.733  72.541  1.00  0.00    -0.213 C  
HETATM   24  C   UNL     1      -8.246   8.072  73.482  1.00  0.00    -0.271 C  
ENDBRANCH   4  23
TORSDOF 1
ENDMDL
MODEL       42
REMARK 921   NORMALIZED FREE ENERGY PREDICTED BY IDOCK:   -5.22 KCAL/MOL
REMARK 922        TOTAL FREE ENERGY PREDICTED BY IDOCK:   -5.54 KCAL/MOL
REMARK 923 INTER-LIGAND FREE ENERGY PREDICTED BY IDOCK:   -5.55 KCAL/MOL
REMARK 924 INTRA-LIGAND FREE ENERGY PREDICTED BY IDOCK:    0.02 KCAL/MOL
REMARK 927      BINDING AFFINITY PREDICTED BY RF-SCORE:    0.00 PKD
ROOT
HETATM    1  C   UNL     1     -11.318  14.049  67.018  1.00  0.00    -0.346 C  
HETATM    2  C   UNL     1     -11.873  13.841  68.303  1.00  0.00    -0.413 C  
HETATM    3  C   UNL     1     -10.417  14.113  68.216  1.00  0.00    -0.249 C  
HETATM    4  C   UNL     1      -9.837  14.903  66.401  1.00  0.00    -0.274 C  
HETATM    5  C   UNL     1     -10.172  15.544  67.561  1.00  0.00    -0.254 C  
HETATM    6  C   UNL     1      -6.557  11.109  66.581  1.00  0.00    -0.137 C  
HETATM    7  O   UNL     1      -8.626  15.564  66.024  1.00  0.00    -0.392 OA 
HETATM    8  C   UNL     1      -8.475  15.124  68.219  1.00  0.00    -0.152 C  
HETATM    9  C   UNL     1     -10.747  16.904  67.836  1.00  0.00    -0.344 C  
HETATM   10  O   UNL     1      -5.871   8.753  64.120  1.00  0.00    -0.068 OA 
HETATM   11  H   UNL     1      -8.359  15.928  65.188  1.00  0.00     0.000 HD 
HETATM   12  C   UNL     1      -7.834  13.700  67.483  1.00  0.00    -0.185 C  
HETATM   13  C   UNL     1      -8.762  12.397  67.091  1.00  0.00    -0.195 C  
HETATM   14  C   UNL     1      -8.052  11.242  66.355  1.00  0.00    -0.138 C  
HETATM   15  C   UNL     1      -8.743  10.307  65.655  1.00  0.00    -0.176 C  
HETATM   16  C   UNL     1     -10.259  10.305  65.497  1.00  0.00    -0.308 C  
HETATM   17  C   UNL     1      -8.085   9.116  64.987  1.00  0.00    -0.130 C  
HETATM   18  C   UNL     1     -11.026  11.241  66.462  1.00  0.00    -0.303 C  
HETATM   19  C   UNL     1      -6.575   9.198  65.026  1.00  0.00    -0.073 C  
HETATM   20  C   UNL     1     -11.123  10.523  67.821  1.00  0.00    -0.382 C  
HETATM   21  C   UNL     1     -10.301  12.608  66.446  1.00  0.00    -0.264 C  
HETATM   22  C   UNL     1      -5.986   9.723  66.302  1.00  0.00    -0.063 C  
ENDROOT
BRANCH   4  23
HETATM   23  C   UNL     1     -10.762  15.503  65.300  1.00  0.00    -0.440 C  
HETATM   24  C   UNL     1     -11.495  15.919  64.441  1.00  0.00    -0.268 C  
ENDBRANCH   4  23
TORSDOF 1
ENDMDL
MODEL       43
REMARK 921   NORMALIZED FREE ENERGY PREDICTED BY IDOCK:   -5.18 KCAL/MOL
REMARK 922        TOTAL FREE ENERGY PREDICTED BY IDOCK:   -5.49 KCAL/MOL
REMARK 923 INTER-LIGAND FREE ENERGY PREDICTED BY IDOCK:   -5.48 KCAL/MOL
REMARK 924 INTRA-LIGAND FREE ENERGY PREDICTED BY IDOCK:   -0.01 KCAL/MOL
REMARK 927      BINDING AFFINITY PREDICTED BY RF-SCORE:    0.00 PKD
ROOT
HETATM    1  C   UNL     1     -11.574  11.926  67.656  1.00  0.00    -0.382 C  
HETATM    2  C   UNL     1     -11.727  12.031  69.059  1.00  0.00    -0.382 C  
HETATM    3  C   UNL     1     -10.443  12.485  68.471  1.00  0.00    -0.246 C  
HETATM    4  C   UNL     1     -10.533  12.773  66.429  1.00  0.00    -0.250 C  
HETATM    5  C   UNL     1     -10.709  13.673  67.443  1.00  0.00    -0.272 C  
HETATM    6  C   UNL     1      -6.520   9.760  66.526  1.00  0.00    -0.071 C  
HETATM    7  O   UNL     1      -9.642  13.468  65.553  1.00  0.00    -0.499 OA 
HETATM    8  C   UNL     1      -8.853  13.736  67.636  1.00  0.00    -0.189 C  
HETATM    9  C   UNL     1     -11.499  14.948  67.539  1.00  0.00    -0.361 C  
HETATM   10  O   UNL     1      -5.937   6.909  64.626  1.00  0.00    -0.035 OA 
HETATM   11  H   UNL     1      -9.684  13.600  64.613  1.00  0.00     0.000 HD 
HETATM   12  C   UNL     1      -8.101  12.274  67.111  1.00  0.00    -0.173 C  
HETATM   13  C   UNL     1      -8.767  10.787  67.351  1.00  0.00    -0.126 C  
HETATM   14  C   UNL     1      -8.013   9.588  66.740  1.00  0.00    -0.109 C  
HETATM   15  C   UNL     1      -8.619   8.390  66.533  1.00  0.00    -0.128 C  
HETATM   16  C   UNL     1     -10.083   8.108  66.849  1.00  0.00    -0.367 C  
HETATM   17  C   UNL     1      -7.888   7.170  66.009  1.00  0.00    -0.107 C  
HETATM   18  C   UNL     1     -10.783   9.161  67.742  1.00  0.00    -0.243 C  
HETATM   19  C   UNL     1      -6.478   7.492  65.565  1.00  0.00    -0.041 C  
HETATM   20  C   UNL     1     -10.369   8.879  69.198  1.00  0.00    -0.230 C  
HETATM   21  C   UNL     1     -10.423  10.555  67.172  1.00  0.00    -0.302 C  
HETATM   22  C   UNL     1      -5.730   8.460  66.434  1.00  0.00    -0.040 C  
ENDROOT
BRANCH   4  23
HETATM   23  C   UNL     1     -11.816  12.864  65.550  1.00  0.00    -0.455 C  
HETATM   24  C   UNL     1     -12.783  12.907  64.835  1.00  0.00    -0.474 C  
ENDBRANCH   4  23
TORSDOF 1
ENDMDL
MODEL       44
REMARK 921   NORMALIZED FREE ENERGY PREDICTED BY IDOCK:   -5.16 KCAL/MOL
REMARK 922        TOTAL FREE ENERGY PREDICTED BY IDOCK:   -5.48 KCAL/MOL
REMARK 923 INTER-LIGAND FREE ENERGY PREDICTED BY IDOCK:   -5.49 KCAL/MOL
REMARK 924 INTRA-LIGAND FREE ENERGY PREDICTED BY IDOCK:    0.01 KCAL/MOL
REMARK 927      BINDING AFFINITY PREDICTED BY RF-SCORE:    0.00 PKD
ROOT
HETATM    1  C   UNL     1      -9.350  13.418  67.870  1.00  0.00    -0.216 C  
HETATM    2  C   UNL     1      -8.136  13.755  67.225  1.00  0.00    -0.154 C  
HETATM    3  C   UNL     1      -9.129  12.966  66.456  1.00  0.00    -0.138 C  
HETATM    4  C   UNL     1     -11.018  12.991  67.286  1.00  0.00    -0.264 C  
HETATM    5  C   UNL     1     -10.484  13.791  66.315  1.00  0.00    -0.291 C  
HETATM    6  C   UNL     1     -10.505   8.014  66.887  1.00  0.00    -0.387 C  
HETATM    7  O   UNL     1     -12.281  12.625  66.724  1.00  0.00    -0.506 OA 
HETATM    8  C   UNL     1     -10.750  12.399  65.098  1.00  0.00    -0.327 C  
HETATM    9  C   UNL     1     -10.781  15.201  65.889  1.00  0.00    -0.341 C  
HETATM   10  O   UNL     1     -11.054   5.602  69.328  1.00  0.00    -0.274 OA 
HETATM   11  H   UNL     1     -13.150  12.637  67.106  1.00  0.00     0.000 HD 
HETATM   12  C   UNL     1     -10.739  10.856  65.873  1.00  0.00    -0.193 C  
HETATM   13  C   UNL     1      -9.737  10.491  67.128  1.00  0.00    -0.202 C  
HETATM   14  C   UNL     1      -9.916   9.099  67.770  1.00  0.00    -0.236 C  
HETATM   15  C   UNL     1      -9.444   8.816  69.011  1.00  0.00    -0.160 C  
HETATM   16  C   UNL     1      -8.724   9.822  69.901  1.00  0.00    -0.238 C  
HETATM   17  C   UNL     1      -9.532   7.439  69.638  1.00  0.00    -0.156 C  
HETATM   18  C   UNL     1      -8.248  11.112  69.191  1.00  0.00    -0.007 C  
HETATM   19  C   UNL     1     -10.368   6.485  68.813  1.00  0.00    -0.193 C  
HETATM   20  C   UNL     1      -6.944  10.773  68.446  1.00  0.00    -0.070 C  
HETATM   21  C   UNL     1      -9.429  11.624  68.332  1.00  0.00    -0.193 C  
HETATM   22  C   UNL     1     -10.194   6.588  67.327  1.00  0.00    -0.242 C  
ENDROOT
BRANCH   4  23
HETATM   23  C   UNL     1     -11.544  13.955  68.391  1.00  0.00    -0.368 C  
HETATM   24  C   UNL     1     -11.926  14.670  69.280  1.00  0.00    -0.337 C  
ENDBRANCH   4  23
TORSDOF 1
ENDMDL
MODEL       45
REMARK 921   NORMALIZED FREE ENERGY PREDICTED BY IDOCK:   -5.14 KCAL/MOL
REMARK 922        TOTAL FREE ENERGY PREDICTED BY IDOCK:   -5.46 KCAL/MOL
REMARK 923 INTER-LIGAND FREE ENERGY PREDICTED BY IDOCK:   -5.45 KCAL/MOL
REMARK 924 INTRA-LIGAND FREE ENERGY PREDICTED BY IDOCK:   -0.01 KCAL/MOL
REMARK 927      BINDING AFFINITY PREDICTED BY RF-SCORE:    0.00 PKD
ROOT
HETATM    1  C   UNL     1      -9.596  10.952  67.207  1.00  0.00    -0.184 C  
HETATM    2  C   UNL     1     -10.169  10.097  66.235  1.00  0.00    -0.288 C  
HETATM    3  C   UNL     1     -10.960  10.379  67.457  1.00  0.00    -0.358 C  
HETATM    4  C   UNL     1     -10.273  12.008  68.522  1.00  0.00    -0.212 C  
HETATM    5  C   UNL     1     -11.248  11.942  67.567  1.00  0.00    -0.359 C  
HETATM    6  C   UNL     1     -10.339   8.696  72.293  1.00  0.00    -0.376 C  
HETATM    7  O   UNL     1     -10.904  12.772  69.553  1.00  0.00    -0.442 OA 
HETATM    8  C   UNL     1     -12.397  11.245  68.864  1.00  0.00     0.037 C  
HETATM    9  C   UNL     1     -11.778  12.953  66.589  1.00  0.00    -0.452 C  
HETATM   10  O   UNL     1      -7.806   7.987  74.564  1.00  0.00    -0.203 OA 
HETATM   11  H   UNL     1     -10.587  13.522  70.043  1.00  0.00     0.000 HD 
HETATM   12  C   UNL     1     -11.533  10.423  70.112  1.00  0.00    -0.396 C  
HETATM   13  C   UNL     1     -10.189   9.516  69.826  1.00  0.00    -0.249 C  
HETATM   14  C   UNL     1      -9.481   8.923  71.061  1.00  0.00    -0.318 C  
HETATM   15  C   UNL     1      -8.194   8.492  71.012  1.00  0.00    -0.163 C  
HETATM   16  C   UNL     1      -7.315   8.568  69.770  1.00  0.00    -0.056 C  
HETATM   17  C   UNL     1      -7.495   7.833  72.184  1.00  0.00    -0.086 C  
HETATM   18  C   UNL     1      -8.063   8.855  68.446  1.00  0.00    -0.109 C  
HETATM   19  C   UNL     1      -8.321   7.888  73.450  1.00  0.00    -0.203 C  
HETATM   20  C   UNL     1      -8.690   7.530  67.974  1.00  0.00    -0.121 C  
HETATM   21  C   UNL     1      -9.035  10.029  68.715  1.00  0.00    -0.145 C  
HETATM   22  C   UNL     1      -9.794   7.666  73.275  1.00  0.00    -0.360 C  
ENDROOT
BRANCH   4  23
HETATM   23  C   UNL     1      -9.268  13.093  68.032  1.00  0.00    -0.211 C  
HETATM   24  C   UNL     1      -8.467  13.926  67.698  1.00  0.00    -0.193 C  
ENDBRANCH   4  23
TORSDOF 1
ENDMDL
MODEL       46
REMARK 921   NORMALIZED FREE ENERGY PREDICTED BY IDOCK:   -5.08 KCAL/MOL
REMARK 922        TOTAL FREE ENERGY PREDICTED BY IDOCK:   -5.39 KCAL/MOL
REMARK 923 INTER-LIGAND FREE ENERGY PREDICTED BY IDOCK:   -5.37 KCAL/MOL
REMARK 924 INTRA-LIGAND FREE ENERGY PREDICTED BY IDOCK:   -0.02 KCAL/MOL
REMARK 927      BINDING AFFINITY PREDICTED BY RF-SCORE:    0.00 PKD
ROOT
HETATM    1  C   UNL     1     -10.606  13.266  65.990  1.00  0.00    -0.292 C  
HETATM    2  C   UNL     1      -9.457  14.080  66.134  1.00  0.00    -0.210 C  
HETATM    3  C   UNL     1      -9.299  12.620  66.347  1.00  0.00    -0.198 C  
HETATM    4  C   UNL     1     -10.874  11.509  65.610  1.00  0.00    -0.252 C  
HETATM    5  C   UNL     1      -9.687  11.835  65.016  1.00  0.00    -0.212 C  
HETATM    6  C   UNL     1     -10.826   9.637  70.267  1.00  0.00    -0.339 C  
HETATM    7  O   UNL     1     -10.974  10.107  65.347  1.00  0.00     0.343 OA 
HETATM    8  C   UNL     1      -8.873  10.496  66.032  1.00  0.00    -0.179 C  
HETATM    9  C   UNL     1      -9.288  12.005  63.577  1.00  0.00     0.175 C  
HETATM   10  O   UNL     1     -13.501   9.274  72.456  1.00  0.00    -0.464 OA 
HETATM   11  H   UNL     1     -11.699   9.595  65.009  1.00  0.00     0.000 HD 
HETATM   12  C   UNL     1      -9.722  10.200  67.505  1.00  0.00    -0.190 C  
HETATM   13  C   UNL     1     -10.434  11.395  68.386  1.00  0.00    -0.221 C  
HETATM   14  C   UNL     1     -11.233  10.953  69.629  1.00  0.00    -0.348 C  
HETATM   15  C   UNL     1     -12.158  11.759  70.211  1.00  0.00    -0.426 C  
HETATM   16  C   UNL     1     -12.521  13.148  69.701  1.00  0.00     0.017 C  
HETATM   17  C   UNL     1     -12.903  11.388  71.478  1.00  0.00    -0.508 C  
HETATM   18  C   UNL     1     -11.540  13.753  68.668  1.00  0.00    -0.369 C  
HETATM   19  C   UNL     1     -12.643   9.959  71.898  1.00  0.00    -0.381 C  
HETATM   20  C   UNL     1     -10.334  14.308  69.448  1.00  0.00     0.007 C  
HETATM   21  C   UNL     1     -11.246  12.653  67.619  1.00  0.00    -0.329 C  
HETATM   22  C   UNL     1     -11.233   9.477  71.727  1.00  0.00    -0.263 C  
ENDROOT
BRANCH   4  23
HETATM   23  C   UNL     1     -11.987  11.992  64.633  1.00  0.00    -0.326 C  
HETATM   24  C   UNL     1     -12.880  12.334  63.903  1.00  0.00    -0.409 C  
ENDBRANCH   4  23
TORSDOF 1
ENDMDL
MODEL       47
REMARK 921   NORMALIZED FREE ENERGY PREDICTED BY IDOCK:   -4.99 KCAL/MOL
REMARK 922        TOTAL FREE ENERGY PREDICTED BY IDOCK:   -5.29 KCAL/MOL
REMARK 923 INTER-LIGAND FREE ENERGY PREDICTED BY IDOCK:   -5.27 KCAL/MOL
REMARK 924 INTRA-LIGAND FREE ENERGY PREDICTED BY IDOCK:   -0.02 KCAL/MOL
REMARK 927      BINDING AFFINITY PREDICTED BY RF-SCORE:    0.00 PKD
ROOT
HETATM    1  C   UNL     1      -8.642   7.102  72.049  1.00  0.00    -0.118 C  
HETATM    2  C   UNL     1      -8.109   7.907  73.083  1.00  0.00    -0.213 C  
HETATM    3  C   UNL     1      -9.487   8.204  72.620  1.00  0.00    -0.346 C  
HETATM    4  C   UNL     1     -10.327   6.676  71.516  1.00  0.00    -0.209 C  
HETATM    5  C   UNL     1     -10.421   6.935  72.855  1.00  0.00    -0.271 C  
HETATM    6  C   UNL     1     -11.135  10.409  68.259  1.00  0.00    -0.338 C  
HETATM    7  O   UNL     1     -11.690   6.439  71.153  1.00  0.00    -0.325 OA 
HETATM    8  C   UNL     1     -11.669   8.266  72.455  1.00  0.00    -0.451 C  
HETATM    9  C   UNL     1     -10.656   6.046  74.043  1.00  0.00    -0.200 C  
HETATM   10  O   UNL     1     -10.391  10.487  64.865  1.00  0.00    -0.328 OA 
HETATM   11  H   UNL     1     -12.076   5.736  70.644  1.00  0.00     0.000 HD 
HETATM   12  C   UNL     1     -11.440   8.906  70.868  1.00  0.00    -0.339 C  
HETATM   13  C   UNL     1      -9.953   9.134  70.198  1.00  0.00    -0.231 C  
HETATM   14  C   UNL     1      -9.924   9.628  68.737  1.00  0.00    -0.184 C  
HETATM   15  C   UNL     1      -8.820   9.496  67.958  1.00  0.00    -0.123 C  
HETATM   16  C   UNL     1      -7.524   8.840  68.418  1.00  0.00    -0.091 C  
HETATM   17  C   UNL     1      -8.731  10.041  66.547  1.00  0.00    -0.142 C  
HETATM   18  C   UNL     1      -7.397   8.621  69.945  1.00  0.00    -0.052 C  
HETATM   19  C   UNL     1     -10.060  10.563  66.048  1.00  0.00    -0.256 C  
HETATM   20  C   UNL     1      -6.989   9.967  70.572  1.00  0.00    -0.118 C  
HETATM   21  C   UNL     1      -8.731   8.002  70.429  1.00  0.00    -0.136 C  
HETATM   22  C   UNL     1     -10.884  11.310  67.055  1.00  0.00    -0.332 C  
ENDROOT
BRANCH   4  23
HETATM   23  C   UNL     1      -9.813   5.210  71.400  1.00  0.00    -0.239 C  
HETATM   24  C   UNL     1      -9.450   4.071  71.271  1.00  0.00    -0.233 C  
ENDBRANCH   4  23
TORSDOF 1
ENDMDL
MODEL       48
REMARK 921   NORMALIZED FREE ENERGY PREDICTED BY IDOCK:   -4.89 KCAL/MOL
REMARK 922        TOTAL FREE ENERGY PREDICTED BY IDOCK:   -5.19 KCAL/MOL
REMARK 923 INTER-LIGAND FREE ENERGY PREDICTED BY IDOCK:   -5.18 KCAL/MOL
REMARK 924 INTRA-LIGAND FREE ENERGY PREDICTED BY IDOCK:   -0.01 KCAL/MOL
REMARK 927      BINDING AFFINITY PREDICTED BY RF-SCORE:    0.00 PKD
ROOT
HETATM    1  C   UNL     1      -8.906  11.466  68.422  1.00  0.00    -0.167 C  
HETATM    2  C   UNL     1      -7.684  11.499  67.709  1.00  0.00    -0.124 C  
HETATM    3  C   UNL     1      -8.732  10.560  67.238  1.00  0.00    -0.126 C  
HETATM    4  C   UNL     1     -10.604  10.969  68.004  1.00  0.00    -0.204 C  
HETATM    5  C   UNL     1     -10.040  11.371  66.826  1.00  0.00    -0.250 C  
HETATM    6  C   UNL     1     -10.383   6.118  69.274  1.00  0.00    -0.276 C  
HETATM    7  O   UNL     1     -11.894  10.513  67.588  1.00  0.00    -0.598 OA 
HETATM    8  C   UNL     1     -10.403   9.674  66.136  1.00  0.00    -0.202 C  
HETATM    9  C   UNL     1     -10.262  12.576  65.957  1.00  0.00    -0.269 C  
HETATM   10  O   UNL     1     -11.033   4.684  72.372  1.00  0.00    -0.124 OA 
HETATM   11  H   UNL     1     -12.755  10.701  67.940  1.00  0.00     0.000 HD 
HETATM   12  C   UNL     1     -10.468   8.475  67.377  1.00  0.00    -0.351 C  
HETATM   13  C   UNL     1      -9.471   8.486  68.688  1.00  0.00    -0.144 C  
HETATM   14  C   UNL     1      -9.720   7.397  69.752  1.00  0.00    -0.170 C  
HETATM   15  C   UNL     1      -9.246   7.512  71.019  1.00  0.00    -0.153 C  
HETATM   16  C   UNL     1      -8.457   8.712  71.530  1.00  0.00    -0.238 C  
HETATM   17  C   UNL     1      -9.404   6.427  72.065  1.00  0.00    -0.151 C  
HETATM   18  C   UNL     1      -7.918   9.665  70.437  1.00  0.00    -0.191 C  
HETATM   19  C   UNL     1     -10.305   5.306  71.598  1.00  0.00    -0.216 C  
HETATM   20  C   UNL     1      -6.647   9.023  69.852  1.00  0.00    -0.042 C  
HETATM   21  C   UNL     1      -9.081   9.933  69.451  1.00  0.00    -0.216 C  
HETATM   22  C   UNL     1     -10.148   4.902  70.162  1.00  0.00    -0.332 C  
ENDROOT
BRANCH   4  23
HETATM   23  C   UNL     1     -11.058  12.273  68.726  1.00  0.00    -0.295 C  
HETATM   24  C   UNL     1     -11.456  13.271  69.267  1.00  0.00    -0.345 C  
ENDBRANCH   4  23
TORSDOF 1
ENDMDL
MODEL       49
REMARK 921   NORMALIZED FREE ENERGY PREDICTED BY IDOCK:   -4.84 KCAL/MOL
REMARK 922        TOTAL FREE ENERGY PREDICTED BY IDOCK:   -5.14 KCAL/MOL
REMARK 923 INTER-LIGAND FREE ENERGY PREDICTED BY IDOCK:   -5.12 KCAL/MOL
REMARK 924 INTRA-LIGAND FREE ENERGY PREDICTED BY IDOCK:   -0.02 KCAL/MOL
REMARK 927      BINDING AFFINITY PREDICTED BY RF-SCORE:    0.00 PKD
ROOT
HETATM    1  C   UNL     1      -9.469  13.013  68.204  1.00  0.00    -0.218 C  
HETATM    2  C   UNL     1      -8.620  14.127  67.996  1.00  0.00    -0.172 C  
HETATM    3  C   UNL     1      -9.452  13.672  66.855  1.00  0.00    -0.263 C  
HETATM    4  C   UNL     1     -10.992  12.417  67.412  1.00  0.00    -0.254 C  
HETATM    5  C   UNL     1     -10.995  13.772  67.236  1.00  0.00    -0.302 C  
HETATM    6  C   UNL     1      -8.989   9.509  63.845  1.00  0.00    -0.217 C  
HETATM    7  O   UNL     1     -12.161  12.011  66.695  1.00  0.00    -0.615 OA 
HETATM    8  C   UNL     1     -11.070  13.479  65.394  1.00  0.00    -0.302 C  
HETATM    9  C   UNL     1     -11.829  14.869  67.837  1.00  0.00    -0.286 C  
HETATM   10  O   UNL     1      -8.126   6.150  64.055  1.00  0.00    -0.119 OA 
HETATM   11  H   UNL     1     -12.870  11.433  66.951  1.00  0.00     0.000 HD 
HETATM   12  C   UNL     1     -10.372  11.962  64.955  1.00  0.00    -0.328 C  
HETATM   13  C   UNL     1      -9.040  11.340  65.696  1.00  0.00    -0.203 C  
HETATM   14  C   UNL     1      -8.597   9.932  65.248  1.00  0.00    -0.168 C  
HETATM   15  C   UNL     1      -7.779   9.162  66.011  1.00  0.00    -0.095 C  
HETATM   16  C   UNL     1      -7.239   9.579  67.374  1.00  0.00    -0.087 C  
HETATM   17  C   UNL     1      -7.261   7.809  65.567  1.00  0.00    -0.064 C  
HETATM   18  C   UNL     1      -7.393  11.081  67.716  1.00  0.00    -0.093 C  
HETATM   19  C   UNL     1      -7.909   7.340  64.283  1.00  0.00    -0.125 C  
HETATM   20  C   UNL     1      -6.265  11.837  66.990  1.00  0.00    -0.152 C  
HETATM   21  C   UNL     1      -8.845  11.484  67.361  1.00  0.00    -0.157 C  
HETATM   22  C   UNL     1      -8.134   8.399  63.245  1.00  0.00    -0.151 C  
ENDROOT
BRANCH   4  23
HETATM   23  C   UNL     1     -11.528  12.172  68.855  1.00  0.00    -0.350 C  
HETATM   24  C   UNL     1     -11.967  11.942  69.951  1.00  0.00    -0.398 C  
ENDBRANCH   4  23
TORSDOF 1
ENDMDL
MODEL       50
REMARK 921   NORMALIZED FREE ENERGY PREDICTED BY IDOCK:   -4.82 KCAL/MOL
REMARK 922        TOTAL FREE ENERGY PREDICTED BY IDOCK:   -5.11 KCAL/MOL
REMARK 923 INTER-LIGAND FREE ENERGY PREDICTED BY IDOCK:   -5.12 KCAL/MOL
REMARK 924 INTRA-LIGAND FREE ENERGY PREDICTED BY IDOCK:    0.01 KCAL/MOL
REMARK 927      BINDING AFFINITY PREDICTED BY RF-SCORE:    0.00 PKD
ROOT
HETATM    1  C   UNL     1     -10.891   6.363  71.056  1.00  0.00    -0.314 C  
HETATM    2  C   UNL     1     -10.529   5.004  71.215  1.00  0.00    -0.213 C  
HETATM    3  C   UNL     1      -9.453   6.020  71.320  1.00  0.00    -0.180 C  
HETATM    4  C   UNL     1     -10.162   7.939  71.594  1.00  0.00    -0.192 C  
HETATM    5  C   UNL     1      -9.766   7.017  72.522  1.00  0.00    -0.170 C  
HETATM    6  C   UNL     1      -7.182   8.859  67.661  1.00  0.00    -0.080 C  
HETATM    7  O   UNL     1      -9.486   9.122  72.027  1.00  0.00    -0.323 OA 
HETATM    8  C   UNL     1      -7.995   7.447  72.114  1.00  0.00    -0.101 C  
HETATM    9  C   UNL     1     -10.153   6.796  73.957  1.00  0.00    -0.389 C  
HETATM   10  O   UNL     1      -7.967  10.553  64.730  1.00  0.00    -0.135 OA 
HETATM   11  H   UNL     1      -9.812  10.005  72.153  1.00  0.00     0.000 HD 
HETATM   12  C   UNL     1      -7.832   8.041  70.502  1.00  0.00    -0.094 C  
HETATM   13  C   UNL     1      -8.706   7.452  69.236  1.00  0.00    -0.137 C  
HETATM   14  C   UNL     1      -8.509   8.154  67.877  1.00  0.00    -0.132 C  
HETATM   15  C   UNL     1      -9.412   8.033  66.870  1.00  0.00    -0.244 C  
HETATM   16  C   UNL     1     -10.704   7.231  66.974  1.00  0.00    -0.406 C  
HETATM   17  C   UNL     1      -9.212   8.644  65.498  1.00  0.00    -0.158 C  
HETATM   18  C   UNL     1     -10.790   6.267  68.182  1.00  0.00    -0.401 C  
HETATM   19  C   UNL     1      -8.003   9.551  65.444  1.00  0.00    -0.113 C  
HETATM   20  C   UNL     1      -9.984   5.005  67.823  1.00  0.00    -0.198 C  
HETATM   21  C   UNL     1     -10.329   7.057  69.430  1.00  0.00    -0.218 C  
HETATM   22  C   UNL     1      -6.799   9.075  66.202  1.00  0.00    -0.081 C  
ENDROOT
BRANCH   4  23
HETATM   23  C   UNL     1     -11.608   8.356  71.996  1.00  0.00    -0.418 C  
HETATM   24  C   UNL     1     -12.706   8.696  72.352  1.00  0.00    -0.423 C  
ENDBRANCH   4  23
TORSDOF 1
ENDMDL
MODEL       51
REMARK 921   NORMALIZED FREE ENERGY PREDICTED BY IDOCK:   -4.80 KCAL/MOL
REMARK 922        TOTAL FREE ENERGY PREDICTED BY IDOCK:   -5.10 KCAL/MOL
REMARK 923 INTER-LIGAND FREE ENERGY PREDICTED BY IDOCK:   -5.09 KCAL/MOL
REMARK 924 INTRA-LIGAND FREE ENERGY PREDICTED BY IDOCK:   -0.01 KCAL/MOL
REMARK 927      BINDING AFFINITY PREDICTED BY RF-SCORE:    0.00 PKD
ROOT
HETATM    1  C   UNL     1      -9.770  13.667  67.783  1.00  0.00    -0.225 C  
HETATM    2  C   UNL     1      -9.127  14.447  66.792  1.00  0.00    -0.278 C  
HETATM    3  C   UNL     1      -9.795  13.195  66.358  1.00  0.00    -0.279 C  
HETATM    4  C   UNL     1     -11.112  12.441  67.758  1.00  0.00    -0.247 C  
HETATM    5  C   UNL     1     -11.351  13.268  66.696  1.00  0.00    -0.353 C  
HETATM    6  C   UNL     1      -8.413   8.272  67.030  1.00  0.00    -0.122 C  
HETATM    7  O   UNL     1     -12.144  11.461  67.623  1.00  0.00    -0.630 OA 
HETATM    8  C   UNL     1     -11.266  11.772  65.581  1.00  0.00    -0.324 C  
HETATM    9  C   UNL     1     -12.403  14.310  66.442  1.00  0.00    -0.378 C  
HETATM   10  O   UNL     1      -6.967   6.212  69.427  1.00  0.00    -0.063 OA 
HETATM   11  H   UNL     1     -12.750  11.114  68.267  1.00  0.00     0.000 HD 
HETATM   12  C   UNL     1     -10.280  10.524  66.253  1.00  0.00    -0.296 C  
HETATM   13  C   UNL     1      -8.901  10.829  67.101  1.00  0.00    -0.135 C  
HETATM   14  C   UNL     1      -8.185   9.608  67.713  1.00  0.00    -0.114 C  
HETATM   15  C   UNL     1      -7.285   9.737  68.723  1.00  0.00    -0.072 C  
HETATM   16  C   UNL     1      -6.910  11.066  69.367  1.00  0.00    -0.119 C  
HETATM   17  C   UNL     1      -6.506   8.569  69.293  1.00  0.00    -0.042 C  
HETATM   18  C   UNL     1      -7.353  12.329  68.589  1.00  0.00    -0.106 C  
HETATM   19  C   UNL     1      -6.983   7.241  68.750  1.00  0.00    -0.079 C  
HETATM   20  C   UNL     1      -6.342  12.546  67.449  1.00  0.00    -0.157 C  
HETATM   21  C   UNL     1      -8.831  12.117  68.180  1.00  0.00    -0.187 C  
HETATM   22  C   UNL     1      -7.338   7.224  67.293  1.00  0.00    -0.098 C  
ENDROOT
BRANCH   4  23
HETATM   23  C   UNL     1     -11.676  13.179  69.009  1.00  0.00    -0.367 C  
HETATM   24  C   UNL     1     -12.096  13.709  70.003  1.00  0.00    -0.417 C  
ENDBRANCH   4  23
TORSDOF 1
ENDMDL
MODEL       52
REMARK 921   NORMALIZED FREE ENERGY PREDICTED BY IDOCK:   -4.79 KCAL/MOL
REMARK 922        TOTAL FREE ENERGY PREDICTED BY IDOCK:   -5.09 KCAL/MOL
REMARK 923 INTER-LIGAND FREE ENERGY PREDICTED BY IDOCK:   -5.08 KCAL/MOL
REMARK 924 INTRA-LIGAND FREE ENERGY PREDICTED BY IDOCK:   -0.01 KCAL/MOL
REMARK 927      BINDING AFFINITY PREDICTED BY RF-SCORE:    0.00 PKD
ROOT
HETATM    1  C   UNL     1     -11.263   7.520  69.956  1.00  0.00    -0.173 C  
HETATM    2  C   UNL     1     -10.996   6.340  69.222  1.00  0.00    -0.435 C  
HETATM    3  C   UNL     1      -9.895   6.908  70.038  1.00  0.00    -0.180 C  
HETATM    4  C   UNL     1     -10.538   8.280  71.439  1.00  0.00    -0.223 C  
HETATM    5  C   UNL     1     -10.321   6.938  71.573  1.00  0.00    -0.220 C  
HETATM    6  C   UNL     1      -7.000  11.107  69.273  1.00  0.00    -0.118 C  
HETATM    7  O   UNL     1      -9.869   8.816  72.584  1.00  0.00    -0.199 OA 
HETATM    8  C   UNL     1      -8.491   7.298  71.672  1.00  0.00    -0.114 C  
HETATM    9  C   UNL     1     -10.913   5.904  72.489  1.00  0.00    -0.307 C  
HETATM   10  O   UNL     1      -7.286  14.363  68.094  1.00  0.00    -0.107 OA 
HETATM   11  H   UNL     1     -10.164   9.448  73.228  1.00  0.00     0.000 HD 
HETATM   12  C   UNL     1      -8.077   8.757  70.847  1.00  0.00    -0.174 C  
HETATM   13  C   UNL     1      -8.796   9.228  69.443  1.00  0.00    -0.149 C  
HETATM   14  C   UNL     1      -8.378  10.604  68.883  1.00  0.00    -0.150 C  
HETATM   15  C   UNL     1      -9.139  11.269  67.976  1.00  0.00    -0.156 C  
HETATM   16  C   UNL     1     -10.471  10.759  67.440  1.00  0.00    -0.268 C  
HETATM   17  C   UNL     1      -8.720  12.583  67.346  1.00  0.00    -0.189 C  
HETATM   18  C   UNL     1     -10.772   9.267  67.724  1.00  0.00    -0.270 C  
HETATM   19  C   UNL     1      -7.471  13.152  67.983  1.00  0.00    -0.132 C  
HETATM   20  C   UNL     1      -9.989   8.435  66.692  1.00  0.00    -0.354 C  
HETATM   21  C   UNL     1     -10.449   9.012  69.216  1.00  0.00    -0.238 C  
HETATM   22  C   UNL     1      -6.409  12.153  68.335  1.00  0.00    -0.054 C  
ENDROOT
BRANCH   4  23
HETATM   23  C   UNL     1     -12.002   8.526  71.910  1.00  0.00    -0.409 C  
HETATM   24  C   UNL     1     -13.115   8.726  72.320  1.00  0.00    -0.458 C  
ENDBRANCH   4  23
TORSDOF 1
ENDMDL
MODEL       53
REMARK 921   NORMALIZED FREE ENERGY PREDICTED BY IDOCK:   -4.75 KCAL/MOL
REMARK 922        TOTAL FREE ENERGY PREDICTED BY IDOCK:   -5.05 KCAL/MOL
REMARK 923 INTER-LIGAND FREE ENERGY PREDICTED BY IDOCK:   -5.07 KCAL/MOL
REMARK 924 INTRA-LIGAND FREE ENERGY PREDICTED BY IDOCK:    0.03 KCAL/MOL
REMARK 927      BINDING AFFINITY PREDICTED BY RF-SCORE:    0.00 PKD
ROOT
HETATM    1  C   UNL     1      -9.952   5.602  72.801  1.00  0.00    -0.195 C  
HETATM    2  C   UNL     1     -10.951   4.602  72.731  1.00  0.00    -0.238 C  
HETATM    3  C   UNL     1     -10.136   4.847  71.516  1.00  0.00    -0.266 C  
HETATM    4  C   UNL     1      -8.413   5.920  71.888  1.00  0.00    -0.126 C  
HETATM    5  C   UNL     1      -8.600   4.567  71.830  1.00  0.00    -0.125 C  
HETATM    6  C   UNL     1     -10.222   8.782  68.183  1.00  0.00    -0.250 C  
HETATM    7  O   UNL     1      -7.245   6.104  71.082  1.00  0.00    -0.075 OA 
HETATM    8  C   UNL     1      -8.596   4.700  69.967  1.00  0.00    -0.101 C  
HETATM    9  C   UNL     1      -7.884   3.418  72.482  1.00  0.00    -0.067 C  
HETATM   10  O   UNL     1     -10.619  12.234  68.143  1.00  0.00    -0.201 OA 
HETATM   11  H   UNL     1      -6.453   6.597  71.254  1.00  0.00     0.000 HD 
HETATM   12  C   UNL     1      -9.112   6.259  69.433  1.00  0.00    -0.139 C  
HETATM   13  C   UNL     1     -10.304   7.114  70.181  1.00  0.00    -0.218 C  
HETATM   14  C   UNL     1     -10.583   8.530  69.635  1.00  0.00    -0.221 C  
HETATM   15  C   UNL     1     -11.245   9.462  70.367  1.00  0.00    -0.309 C  
HETATM   16  C   UNL     1     -11.753   9.232  71.785  1.00  0.00    -0.456 C  
HETATM   17  C   UNL     1     -11.605  10.834  69.833  1.00  0.00    -0.410 C  
HETATM   18  C   UNL     1     -11.779   7.755  72.248  1.00  0.00    -0.390 C  
HETATM   19  C   UNL     1     -10.978  11.107  68.483  1.00  0.00    -0.220 C  
HETATM   20  C   UNL     1     -13.038   7.106  71.645  1.00  0.00    -0.410 C  
HETATM   21  C   UNL     1     -10.417   7.131  71.859  1.00  0.00    -0.220 C  
HETATM   22  C   UNL     1     -10.957   9.947  67.531  1.00  0.00    -0.239 C  
ENDROOT
BRANCH   4  23
HETATM   23  C   UNL     1      -7.764   6.202  73.276  1.00  0.00    -0.100 C  
HETATM   24  C   UNL     1      -7.309   6.439  74.364  1.00  0.00    -0.096 C  
ENDBRANCH   4  23
TORSDOF 1
ENDMDL
MODEL       54
REMARK 921   NORMALIZED FREE ENERGY PREDICTED BY IDOCK:   -4.74 KCAL/MOL
REMARK 922        TOTAL FREE ENERGY PREDICTED BY IDOCK:   -5.03 KCAL/MOL
REMARK 923 INTER-LIGAND FREE ENERGY PREDICTED BY IDOCK:   -5.02 KCAL/MOL
REMARK 924 INTRA-LIGAND FREE ENERGY PREDICTED BY IDOCK:   -0.02 KCAL/MOL
REMARK 927      BINDING AFFINITY PREDICTED BY RF-SCORE:    0.00 PKD
ROOT
HETATM    1  C   UNL     1      -8.799   9.254  66.892  1.00  0.00    -0.141 C  
HETATM    2  C   UNL     1      -9.700   9.310  65.802  1.00  0.00    -0.339 C  
HETATM    3  C   UNL     1     -10.128   9.928  67.081  1.00  0.00    -0.270 C  
HETATM    4  C   UNL     1      -8.571  10.246  68.398  1.00  0.00    -0.125 C  
HETATM    5  C   UNL     1      -9.121  11.096  67.481  1.00  0.00    -0.146 C  
HETATM    6  C   UNL     1     -11.607   7.737  71.510  1.00  0.00    -0.303 C  
HETATM    7  O   UNL     1      -8.504  11.061  69.571  1.00  0.00    -0.377 OA 
HETATM    8  C   UNL     1     -10.534  11.379  68.669  1.00  0.00    -0.224 C  
HETATM    9  C   UNL     1      -8.561  12.265  66.720  1.00  0.00    -0.149 C  
HETATM   10  O   UNL     1     -10.830   5.017  73.529  1.00  0.00    -0.257 OA 
HETATM   11  H   UNL     1      -7.788  11.208  70.177  1.00  0.00     0.000 HD 
HETATM   12  C   UNL     1     -10.772  10.029  69.719  1.00  0.00    -0.304 C  
HETATM   13  C   UNL     1     -10.588   8.468  69.228  1.00  0.00    -0.193 C  
HETATM   14  C   UNL     1     -10.747   7.382  70.311  1.00  0.00    -0.250 C  
HETATM   15  C   UNL     1     -10.262   6.125  70.142  1.00  0.00    -0.254 C  
HETATM   16  C   UNL     1      -9.502   5.662  68.905  1.00  0.00    -0.157 C  
HETATM   17  C   UNL     1     -10.469   5.013  71.151  1.00  0.00    -0.205 C  
HETATM   18  C   UNL     1      -9.594   6.603  67.680  1.00  0.00    -0.135 C  
HETATM   19  C   UNL     1     -11.097   5.511  72.434  1.00  0.00    -0.256 C  
HETATM   20  C   UNL     1     -10.950   6.342  66.998  1.00  0.00    -0.463 C  
HETATM   21  C   UNL     1      -9.335   8.042  68.189  1.00  0.00    -0.145 C  
HETATM   22  C   UNL     1     -12.173   6.544  72.271  1.00  0.00    -0.201 C  
ENDROOT
BRANCH   4  23
HETATM   23  C   UNL     1      -7.047  10.200  68.079  1.00  0.00    -0.084 C  
HETATM   24  C   UNL     1      -5.861  10.180  67.880  1.00  0.00    -0.041 C  
ENDBRANCH   4  23
TORSDOF 1
ENDMDL
MODEL       55
REMARK 921   NORMALIZED FREE ENERGY PREDICTED BY IDOCK:   -4.66 KCAL/MOL
REMARK 922        TOTAL FREE ENERGY PREDICTED BY IDOCK:   -4.94 KCAL/MOL
REMARK 923 INTER-LIGAND FREE ENERGY PREDICTED BY IDOCK:   -4.93 KCAL/MOL
REMARK 924 INTRA-LIGAND FREE ENERGY PREDICTED BY IDOCK:   -0.02 KCAL/MOL
REMARK 927      BINDING AFFINITY PREDICTED BY RF-SCORE:    0.00 PKD
ROOT
HETATM    1  C   UNL     1      -9.287   5.833  73.657  1.00  0.00    -0.137 C  
HETATM    2  C   UNL     1     -10.461   5.570  74.403  1.00  0.00    -0.236 C  
HETATM    3  C   UNL     1     -10.212   4.744  73.196  1.00  0.00    -0.216 C  
HETATM    4  C   UNL     1      -8.267   4.854  72.514  1.00  0.00    -0.115 C  
HETATM    5  C   UNL     1      -8.842   3.947  73.359  1.00  0.00    -0.096 C  
HETATM    6  C   UNL     1     -10.577   5.953  68.195  1.00  0.00    -0.312 C  
HETATM    7  O   UNL     1      -7.559   4.015  71.598  1.00  0.00    -0.061 OA 
HETATM    8  C   UNL     1      -9.598   3.116  71.867  1.00  0.00    -0.222 C  
HETATM    9  C   UNL     1      -8.282   3.096  74.464  1.00  0.00    -0.069 C  
HETATM   10  O   UNL     1      -9.939   8.604  66.040  1.00  0.00    -0.222 OA 
HETATM   11  H   UNL     1      -6.664   4.066  71.284  1.00  0.00     0.000 HD 
HETATM   12  C   UNL     1      -9.820   4.221  70.559  1.00  0.00    -0.269 C  
HETATM   13  C   UNL     1     -10.273   5.789  70.777  1.00  0.00    -0.279 C  
HETATM   14  C   UNL     1     -10.337   6.670  69.512  1.00  0.00    -0.232 C  
HETATM   15  C   UNL     1     -10.322   8.026  69.581  1.00  0.00    -0.220 C  
HETATM   16  C   UNL     1     -10.216   8.813  70.882  1.00  0.00    -0.284 C  
HETATM   17  C   UNL     1     -10.463   8.920  68.366  1.00  0.00    -0.230 C  
HETATM   18  C   UNL     1     -10.467   7.997  72.173  1.00  0.00    -0.329 C  
HETATM   19  C   UNL     1     -10.425   8.139  67.071  1.00  0.00    -0.326 C  
HETATM   20  C   UNL     1     -11.991   7.848  72.336  1.00  0.00    -0.373 C  
HETATM   21  C   UNL     1      -9.647   6.689  72.052  1.00  0.00    -0.150 C  
HETATM   22  C   UNL     1     -11.149   6.825  67.084  1.00  0.00    -0.404 C  
ENDROOT
BRANCH   4  23
HETATM   23  C   UNL     1      -7.036   5.428  73.277  1.00  0.00    -0.082 C  
HETATM   24  C   UNL     1      -6.056   5.857  73.827  1.00  0.00    -0.063 C  
ENDBRANCH   4  23
TORSDOF 1
ENDMDL
MODEL       56
REMARK 921   NORMALIZED FREE ENERGY PREDICTED BY IDOCK:   -4.59 KCAL/MOL
REMARK 922        TOTAL FREE ENERGY PREDICTED BY IDOCK:   -4.88 KCAL/MOL
REMARK 923 INTER-LIGAND FREE ENERGY PREDICTED BY IDOCK:   -4.86 KCAL/MOL
REMARK 924 INTRA-LIGAND FREE ENERGY PREDICTED BY IDOCK:   -0.02 KCAL/MOL
REMARK 927      BINDING AFFINITY PREDICTED BY RF-SCORE:    0.00 PKD
ROOT
HETATM    1  C   UNL     1      -7.420   7.764  67.362  1.00  0.00    -0.093 C  
HETATM    2  C   UNL     1      -6.283   7.140  67.929  1.00  0.00    -0.042 C  
HETATM    3  C   UNL     1      -7.528   6.340  67.825  1.00  0.00    -0.093 C  
HETATM    4  C   UNL     1      -8.920   7.153  66.538  1.00  0.00    -0.151 C  
HETATM    5  C   UNL     1      -7.961   6.209  66.298  1.00  0.00    -0.106 C  
HETATM    6  C   UNL     1     -11.905   6.621  70.537  1.00  0.00    -0.430 C  
HETATM    7  O   UNL     1     -10.082   6.569  65.942  1.00  0.00    -0.321 OA 
HETATM    8  C   UNL     1      -9.069   4.952  67.124  1.00  0.00    -0.122 C  
HETATM    9  C   UNL     1      -7.213   5.819  65.054  1.00  0.00    -0.066 C  
HETATM   10  O   UNL     1     -14.006   8.990  71.972  1.00  0.00    -0.414 OA 
HETATM   11  H   UNL     1     -10.723   6.943  65.350  1.00  0.00     0.000 HD 
HETATM   12  C   UNL     1     -10.125   5.684  68.276  1.00  0.00    -0.217 C  
HETATM   13  C   UNL     1      -9.669   6.939  69.241  1.00  0.00    -0.156 C  
HETATM   14  C   UNL     1     -10.760   7.539  70.152  1.00  0.00    -0.248 C  
HETATM   15  C   UNL     1     -10.637   8.777  70.697  1.00  0.00    -0.258 C  
HETATM   16  C   UNL     1      -9.449   9.701  70.457  1.00  0.00    -0.243 C  
HETATM   17  C   UNL     1     -11.651   9.365  71.658  1.00  0.00    -0.466 C  
HETATM   18  C   UNL     1      -8.206   9.032  69.823  1.00  0.00    -0.122 C  
HETATM   19  C   UNL     1     -12.890   8.506  71.780  1.00  0.00    -0.348 C  
HETATM   20  C   UNL     1      -7.458   8.290  70.945  1.00  0.00    -0.064 C  
HETATM   21  C   UNL     1      -8.706   8.176  68.633  1.00  0.00    -0.134 C  
HETATM   22  C   UNL     1     -12.655   7.025  71.802  1.00  0.00    -0.388 C  
ENDROOT
BRANCH   4  23
HETATM   23  C   UNL     1      -8.683   8.279  65.488  1.00  0.00    -0.173 C  
HETATM   24  C   UNL     1      -8.546   9.139  64.657  1.00  0.00    -0.206 C  
ENDBRANCH   4  23
TORSDOF 1
ENDMDL
MODEL       57
REMARK 921   NORMALIZED FREE ENERGY PREDICTED BY IDOCK:   -4.56 KCAL/MOL
REMARK 922        TOTAL FREE ENERGY PREDICTED BY IDOCK:   -4.85 KCAL/MOL
REMARK 923 INTER-LIGAND FREE ENERGY PREDICTED BY IDOCK:   -4.83 KCAL/MOL
REMARK 924 INTRA-LIGAND FREE ENERGY PREDICTED BY IDOCK:   -0.02 KCAL/MOL
REMARK 927      BINDING AFFINITY PREDICTED BY RF-SCORE:    0.00 PKD
ROOT
HETATM    1  C   UNL     1      -8.700   9.727  68.230  1.00  0.00    -0.119 C  
HETATM    2  C   UNL     1      -7.312   9.776  67.955  1.00  0.00    -0.085 C  
HETATM    3  C   UNL     1      -8.040   8.531  67.607  1.00  0.00    -0.107 C  
HETATM    4  C   UNL     1     -10.090   8.765  67.563  1.00  0.00    -0.222 C  
HETATM    5  C   UNL     1      -9.183   8.852  66.544  1.00  0.00    -0.231 C  
HETATM    6  C   UNL     1      -9.913   4.806  70.643  1.00  0.00    -0.300 C  
HETATM    7  O   UNL     1     -11.105   7.929  67.001  1.00  0.00    -0.419 OA 
HETATM    8  C   UNL     1      -9.131   6.985  66.505  1.00  0.00    -0.183 C  
HETATM    9  C   UNL     1      -9.187   9.611  65.248  1.00  0.00    -0.295 C  
HETATM   10  O   UNL     1     -11.490   4.411  73.715  1.00  0.00    -0.202 OA 
HETATM   11  H   UNL     1     -12.048   8.037  66.981  1.00  0.00     0.000 HD 
HETATM   12  C   UNL     1      -9.526   6.298  68.038  1.00  0.00    -0.116 C  
HETATM   13  C   UNL     1      -9.062   6.969  69.469  1.00  0.00    -0.146 C  
HETATM   14  C   UNL     1      -9.575   6.282  70.751  1.00  0.00    -0.193 C  
HETATM   15  C   UNL     1      -9.592   6.921  71.949  1.00  0.00    -0.159 C  
HETATM   16  C   UNL     1      -9.142   8.362  72.154  1.00  0.00    -0.309 C  
HETATM   17  C   UNL     1     -10.015   6.251  73.241  1.00  0.00    -0.189 C  
HETATM   18  C   UNL     1      -8.335   8.978  70.985  1.00  0.00    -0.237 C  
HETATM   19  C   UNL     1     -10.592   4.872  73.010  1.00  0.00    -0.223 C  
HETATM   20  C   UNL     1      -6.889   8.463  71.101  1.00  0.00    -0.058 C  
HETATM   21  C   UNL     1      -9.094   8.637  69.679  1.00  0.00    -0.149 C  
HETATM   22  C   UNL     1      -9.903   4.046  71.964  1.00  0.00    -0.242 C  
ENDROOT
BRANCH   4  23
HETATM   23  C   UNL     1     -10.881  10.107  67.545  1.00  0.00    -0.349 C  
HETATM   24  C   UNL     1     -11.534  11.118  67.546  1.00  0.00    -0.296 C  
ENDBRANCH   4  23
TORSDOF 1
ENDMDL
MODEL       58
REMARK 921   NORMALIZED FREE ENERGY PREDICTED BY IDOCK:   -4.52 KCAL/MOL
REMARK 922        TOTAL FREE ENERGY PREDICTED BY IDOCK:   -4.80 KCAL/MOL
REMARK 923 INTER-LIGAND FREE ENERGY PREDICTED BY IDOCK:   -4.81 KCAL/MOL
REMARK 924 INTRA-LIGAND FREE ENERGY PREDICTED BY IDOCK:    0.01 KCAL/MOL
REMARK 927      BINDING AFFINITY PREDICTED BY RF-SCORE:    0.00 PKD
ROOT
HETATM    1  C   UNL     1     -10.589   9.171  68.633  1.00  0.00    -0.207 C  
HETATM    2  C   UNL     1     -10.446   8.271  67.550  1.00  0.00    -0.325 C  
HETATM    3  C   UNL     1      -9.227   8.621  68.320  1.00  0.00    -0.140 C  
HETATM    4  C   UNL     1      -9.634   9.494  70.145  1.00  0.00    -0.248 C  
HETATM    5  C   UNL     1      -9.403   8.182  69.841  1.00  0.00    -0.159 C  
HETATM    6  C   UNL     1      -6.474  12.982  68.400  1.00  0.00    -0.084 C  
HETATM    7  O   UNL     1      -8.790   9.699  71.281  1.00  0.00    -0.307 OA 
HETATM    8  C   UNL     1      -7.580   8.576  69.761  1.00  0.00    -0.083 C  
HETATM    9  C   UNL     1      -9.846   6.900  70.488  1.00  0.00    -0.187 C  
HETATM   10  O   UNL     1      -6.932  16.426  68.298  1.00  0.00    -0.131 OA 
HETATM   11  H   UNL     1      -8.977  10.100  72.121  1.00  0.00     0.000 HD 
HETATM   12  C   UNL     1      -7.296  10.229  69.353  1.00  0.00    -0.115 C  
HETATM   13  C   UNL     1      -8.228  11.060  68.278  1.00  0.00    -0.130 C  
HETATM   14  C   UNL     1      -7.899  12.556  68.094  1.00  0.00    -0.151 C  
HETATM   15  C   UNL     1      -8.791  13.425  67.552  1.00  0.00    -0.210 C  
HETATM   16  C   UNL     1     -10.193  13.036  67.100  1.00  0.00    -0.243 C  
HETATM   17  C   UNL     1      -8.472  14.882  67.284  1.00  0.00    -0.229 C  
HETATM   18  C   UNL     1     -10.451  11.516  66.971  1.00  0.00    -0.263 C  
HETATM   19  C   UNL     1      -7.136  15.293  67.862  1.00  0.00    -0.141 C  
HETATM   20  C   UNL     1      -9.845  11.057  65.632  1.00  0.00    -0.287 C  
HETATM   21  C   UNL     1      -9.896  10.849  68.253  1.00  0.00    -0.179 C  
HETATM   22  C   UNL     1      -6.035  14.282  67.736  1.00  0.00    -0.112 C  
ENDROOT
BRANCH   4  23
HETATM   23  C   UNL     1     -11.004   9.527  70.885  1.00  0.00    -0.407 C  
HETATM   24  C   UNL     1     -12.074   9.595  71.431  1.00  0.00    -0.472 C  
ENDBRANCH   4  23
TORSDOF 1
ENDMDL
MODEL       59
REMARK 921   NORMALIZED FREE ENERGY PREDICTED BY IDOCK:   -4.51 KCAL/MOL
REMARK 922        TOTAL FREE ENERGY PREDICTED BY IDOCK:   -4.79 KCAL/MOL
REMARK 923 INTER-LIGAND FREE ENERGY PREDICTED BY IDOCK:   -4.81 KCAL/MOL
REMARK 924 INTRA-LIGAND FREE ENERGY PREDICTED BY IDOCK:    0.02 KCAL/MOL
REMARK 927      BINDING AFFINITY PREDICTED BY RF-SCORE:    0.00 PKD
ROOT
HETATM    1  C   UNL     1      -8.247  18.685  67.211  1.00  0.00    -0.261 C  
HETATM    2  C   UNL     1      -7.617  19.068  66.002  1.00  0.00    -0.273 C  
HETATM    3  C   UNL     1      -8.547  17.913  65.959  1.00  0.00    -0.030 C  
HETATM    4  C   UNL     1      -9.774  17.785  67.613  1.00  0.00    -0.282 C  
HETATM    5  C   UNL     1     -10.006  18.375  66.403  1.00  0.00    -0.399 C  
HETATM    6  C   UNL     1      -7.970  13.103  67.728  1.00  0.00    -0.162 C  
HETATM    7  O   UNL     1     -10.970  17.031  67.822  1.00  0.00    -0.316 OA 
HETATM    8  C   UNL     1     -10.335  16.677  65.699  1.00  0.00    -0.310 C  
HETATM    9  C   UNL     1     -10.883  19.522  65.987  1.00  0.00    -0.428 C  
HETATM   10  O   UNL     1      -6.596  11.403  70.430  1.00  0.00    -0.218 OA 
HETATM   11  H   UNL     1     -11.535  16.972  68.583  1.00  0.00     0.000 HD 
HETATM   12  C   UNL     1      -9.501  15.445  66.574  1.00  0.00    -0.298 C  
HETATM   13  C   UNL     1      -7.989  15.652  67.193  1.00  0.00    -0.254 C  
HETATM   14  C   UNL     1      -7.421  14.486  68.028  1.00  0.00    -0.142 C  
HETATM   15  C   UNL     1      -6.385  14.659  68.889  1.00  0.00    -0.088 C  
HETATM   16  C   UNL     1      -5.699  15.996  69.141  1.00  0.00    -0.114 C  
HETATM   17  C   UNL     1      -5.752  13.521  69.665  1.00  0.00    -0.104 C  
HETATM   18  C   UNL     1      -6.015  17.108  68.112  1.00  0.00    -0.127 C  
HETATM   19  C   UNL     1      -6.524  12.228  69.520  1.00  0.00    -0.094 C  
HETATM   20  C   UNL     1      -5.145  16.847  66.869  1.00  0.00    -0.149 C  
HETATM   21  C   UNL     1      -7.549  17.112  67.902  1.00  0.00    -0.180 C  
HETATM   22  C   UNL     1      -7.069  11.948  68.150  1.00  0.00    -0.081 C  
ENDROOT
BRANCH   4  23
HETATM   23  C   UNL     1     -10.026  18.891  68.682  1.00  0.00    -0.470 C  
HETATM   24  C   UNL     1     -10.254  19.766  69.475  1.00  0.00    -0.031 C  
ENDBRANCH   4  23
TORSDOF 1
ENDMDL
MODEL       60
REMARK 921   NORMALIZED FREE ENERGY PREDICTED BY IDOCK:   -4.50 KCAL/MOL
REMARK 922        TOTAL FREE ENERGY PREDICTED BY IDOCK:   -4.78 KCAL/MOL
REMARK 923 INTER-LIGAND FREE ENERGY PREDICTED BY IDOCK:   -4.76 KCAL/MOL
REMARK 924 INTRA-LIGAND FREE ENERGY PREDICTED BY IDOCK:   -0.02 KCAL/MOL
REMARK 927      BINDING AFFINITY PREDICTED BY RF-SCORE:    0.00 PKD
ROOT
HETATM    1  C   UNL     1      -8.821  10.650  65.991  1.00  0.00    -0.187 C  
HETATM    2  C   UNL     1      -9.483  10.270  64.799  1.00  0.00    -0.341 C  
HETATM    3  C   UNL     1     -10.321  10.674  65.954  1.00  0.00    -0.291 C  
HETATM    4  C   UNL     1      -9.271  11.686  67.415  1.00  0.00    -0.168 C  
HETATM    5  C   UNL     1      -9.991  12.178  66.363  1.00  0.00    -0.243 C  
HETATM    6  C   UNL     1     -11.353   8.190  70.355  1.00  0.00    -0.181 C  
HETATM    7  O   UNL     1      -9.739  12.482  68.507  1.00  0.00    -0.306 OA 
HETATM    8  C   UNL     1     -11.547  11.845  67.340  1.00  0.00    -0.367 C  
HETATM    9  C   UNL     1      -9.883  13.451  65.571  1.00  0.00    -0.157 C  
HETATM   10  O   UNL     1      -9.788   6.154  72.697  1.00  0.00    -0.166 OA 
HETATM   11  H   UNL     1      -9.256  12.947  69.179  1.00  0.00     0.000 HD 
HETATM   12  C   UNL     1     -11.332  10.561  68.473  1.00  0.00    -0.320 C  
HETATM   13  C   UNL     1     -10.421   9.227  68.155  1.00  0.00    -0.263 C  
HETATM   14  C   UNL     1     -10.254   8.215  69.308  1.00  0.00    -0.216 C  
HETATM   15  C   UNL     1      -9.255   7.296  69.316  1.00  0.00    -0.144 C  
HETATM   16  C   UNL     1      -8.194   7.178  68.228  1.00  0.00    -0.124 C  
HETATM   17  C   UNL     1      -9.109   6.237  70.391  1.00  0.00    -0.157 C  
HETATM   18  C   UNL     1      -8.500   7.945  66.919  1.00  0.00    -0.128 C  
HETATM   19  C   UNL     1     -10.075   6.446  71.536  1.00  0.00    -0.192 C  
HETATM   20  C   UNL     1      -9.491   7.093  66.105  1.00  0.00    -0.059 C  
HETATM   21  C   UNL     1      -8.967   9.365  67.320  1.00  0.00    -0.143 C  
HETATM   22  C   UNL     1     -11.454   6.893  71.149  1.00  0.00    -0.347 C  
ENDROOT
BRANCH   4  23
HETATM   23  C   UNL     1      -7.848  12.307  67.288  1.00  0.00    -0.171 C  
HETATM   24  C   UNL     1      -6.751  12.796  67.240  1.00  0.00    -0.089 C  
ENDBRANCH   4  23
TORSDOF 1
ENDMDL
MODEL       61
REMARK 921   NORMALIZED FREE ENERGY PREDICTED BY IDOCK:   -4.46 KCAL/MOL
REMARK 922        TOTAL FREE ENERGY PREDICTED BY IDOCK:   -4.73 KCAL/MOL
REMARK 923 INTER-LIGAND FREE ENERGY PREDICTED BY IDOCK:   -4.72 KCAL/MOL
REMARK 924 INTRA-LIGAND FREE ENERGY PREDICTED BY IDOCK:   -0.01 KCAL/MOL
REMARK 927      BINDING AFFINITY PREDICTED BY RF-SCORE:    0.00 PKD
ROOT
HETATM    1  C   UNL     1      -7.518  10.530  65.546  1.00  0.00    -0.111 C  
HETATM    2  C   UNL     1      -6.195  10.792  65.974  1.00  0.00    -0.134 C  
HETATM    3  C   UNL     1      -6.831   9.534  66.434  1.00  0.00    -0.083 C  
HETATM    4  C   UNL     1      -8.510   9.020  65.349  1.00  0.00    -0.160 C  
HETATM    5  C   UNL     1      -7.212   8.630  65.179  1.00  0.00    -0.087 C  
HETATM    6  C   UNL     1     -10.541   8.759  69.932  1.00  0.00    -0.230 C  
HETATM    7  O   UNL     1      -9.217   7.779  65.271  1.00  0.00    -0.369 OA 
HETATM    8  C   UNL     1      -7.440   7.437  66.597  1.00  0.00    -0.088 C  
HETATM    9  C   UNL     1      -6.439   8.187  63.968  1.00  0.00    -0.067 C  
HETATM   10  O   UNL     1     -13.496  10.207  71.050  1.00  0.00    -0.351 OA 
HETATM   11  H   UNL     1      -9.989   7.543  64.771  1.00  0.00     0.000 HD 
HETATM   12  C   UNL     1      -8.660   7.970  67.696  1.00  0.00    -0.130 C  
HETATM   13  C   UNL     1      -8.885   9.554  68.086  1.00  0.00    -0.124 C  
HETATM   14  C   UNL     1     -10.078   9.873  69.011  1.00  0.00    -0.199 C  
HETATM   15  C   UNL     1     -10.599  11.124  69.104  1.00  0.00    -0.238 C  
HETATM   16  C   UNL     1     -10.095  12.320  68.305  1.00  0.00    -0.218 C  
HETATM   17  C   UNL     1     -11.717  11.488  70.060  1.00  0.00    -0.414 C  
HETATM   18  C   UNL     1      -8.722  12.126  67.616  1.00  0.00    -0.172 C  
HETATM   19  C   UNL     1     -12.306  10.274  70.743  1.00  0.00    -0.350 C  
HETATM   20  C   UNL     1      -7.636  12.328  68.688  1.00  0.00    -0.089 C  
HETATM   21  C   UNL     1      -8.757  10.749  66.909  1.00  0.00    -0.141 C  
HETATM   22  C   UNL     1     -11.321   9.220  71.157  1.00  0.00    -0.412 C  
ENDROOT
BRANCH   4  23
HETATM   23  C   UNL     1      -8.961   9.613  63.981  1.00  0.00    -0.261 C  
HETATM   24  C   UNL     1      -9.358  10.072  62.942  1.00  0.00    -0.290 C  
ENDBRANCH   4  23
TORSDOF 1
ENDMDL
MODEL       62
REMARK 921   NORMALIZED FREE ENERGY PREDICTED BY IDOCK:   -4.41 KCAL/MOL
REMARK 922        TOTAL FREE ENERGY PREDICTED BY IDOCK:   -4.68 KCAL/MOL
REMARK 923 INTER-LIGAND FREE ENERGY PREDICTED BY IDOCK:   -4.67 KCAL/MOL
REMARK 924 INTRA-LIGAND FREE ENERGY PREDICTED BY IDOCK:   -0.01 KCAL/MOL
REMARK 927      BINDING AFFINITY PREDICTED BY RF-SCORE:    0.00 PKD
ROOT
HETATM    1  C   UNL     1      -9.779   9.142  69.979  1.00  0.00    -0.217 C  
HETATM    2  C   UNL     1     -10.890  10.002  69.807  1.00  0.00    -0.308 C  
HETATM    3  C   UNL     1     -11.151   8.543  69.871  1.00  0.00    -0.114 C  
HETATM    4  C   UNL     1      -9.569   7.460  70.634  1.00  0.00    -0.171 C  
HETATM    5  C   UNL     1     -10.664   7.968  71.274  1.00  0.00    -0.265 C  
HETATM    6  C   UNL     1     -10.226   4.836  66.406  1.00  0.00    -0.308 C  
HETATM    7  O   UNL     1      -9.518   6.119  71.128  1.00  0.00    -0.165 OA 
HETATM    8  C   UNL     1     -11.657   6.540  70.594  1.00  0.00    -0.442 C  
HETATM    9  C   UNL     1     -10.894   8.408  72.693  1.00  0.00    -0.308 C  
HETATM   10  O   UNL     1      -7.830   3.913  64.065  1.00  0.00    -0.082 OA 
HETATM   11  H   UNL     1      -8.790   5.620  71.479  1.00  0.00     0.000 HD 
HETATM   12  C   UNL     1     -10.990   5.937  69.120  1.00  0.00    -0.382 C  
HETATM   13  C   UNL     1     -10.314   6.911  67.977  1.00  0.00    -0.230 C  
HETATM   14  C   UNL     1      -9.680   6.207  66.759  1.00  0.00    -0.191 C  
HETATM   15  C   UNL     1      -8.781   6.834  65.958  1.00  0.00    -0.155 C  
HETATM   16  C   UNL     1      -8.288   8.259  66.178  1.00  0.00    -0.125 C  
HETATM   17  C   UNL     1      -8.200   6.200  64.710  1.00  0.00    -0.112 C  
HETATM   18  C   UNL     1      -9.117   9.100  67.179  1.00  0.00    -0.146 C  
HETATM   19  C   UNL     1      -8.582   4.743  64.574  1.00  0.00    -0.144 C  
HETATM   20  C   UNL     1     -10.368   9.601  66.435  1.00  0.00    -0.246 C  
HETATM   21  C   UNL     1      -9.355   8.217  68.428  1.00  0.00    -0.136 C  
HETATM   22  C   UNL     1      -9.990   4.402  64.964  1.00  0.00    -0.165 C  
ENDROOT
BRANCH   4  23
HETATM   23  C   UNL     1      -8.331   8.018  71.398  1.00  0.00    -0.131 C  
HETATM   24  C   UNL     1      -7.368   8.403  72.008  1.00  0.00    -0.122 C  
ENDBRANCH   4  23
TORSDOF 1
ENDMDL
MODEL       63
REMARK 921   NORMALIZED FREE ENERGY PREDICTED BY IDOCK:   -4.39 KCAL/MOL
REMARK 922        TOTAL FREE ENERGY PREDICTED BY IDOCK:   -4.66 KCAL/MOL
REMARK 923 INTER-LIGAND FREE ENERGY PREDICTED BY IDOCK:   -4.64 KCAL/MOL
REMARK 924 INTRA-LIGAND FREE ENERGY PREDICTED BY IDOCK:   -0.02 KCAL/MOL
REMARK 927      BINDING AFFINITY PREDICTED BY RF-SCORE:    0.00 PKD
ROOT
HETATM    1  C   UNL     1     -10.745   9.835  68.313  1.00  0.00    -0.277 C  
HETATM    2  C   UNL     1     -11.299  11.114  68.558  1.00  0.00    -0.348 C  
HETATM    3  C   UNL     1      -9.955  10.828  69.115  1.00  0.00    -0.206 C  
HETATM    4  C   UNL     1      -9.052   9.176  68.269  1.00  0.00    -0.132 C  
HETATM    5  C   UNL     1      -8.939  10.496  67.933  1.00  0.00    -0.137 C  
HETATM    6  C   UNL     1      -8.557   7.844  73.083  1.00  0.00    -0.258 C  
HETATM    7  O   UNL     1      -7.687   8.749  68.301  1.00  0.00    -0.098 OA 
HETATM    8  C   UNL     1      -7.785  10.711  69.386  1.00  0.00    -0.132 C  
HETATM    9  C   UNL     1      -8.620  11.187  66.638  1.00  0.00    -0.165 C  
HETATM   10  O   UNL     1      -9.392   4.812  74.563  1.00  0.00    -0.118 OA 
HETATM   11  H   UNL     1      -7.272   7.989  67.912  1.00  0.00     0.000 HD 
HETATM   12  C   UNL     1      -8.093   9.554  70.629  1.00  0.00    -0.152 C  
HETATM   13  C   UNL     1      -9.608   9.043  71.024  1.00  0.00    -0.348 C  
HETATM   14  C   UNL     1      -9.705   7.936  72.095  1.00  0.00    -0.257 C  
HETATM   15  C   UNL     1     -10.820   7.174  72.238  1.00  0.00    -0.264 C  
HETATM   16  C   UNL     1     -12.061   7.304  71.364  1.00  0.00    -0.370 C  
HETATM   17  C   UNL     1     -10.978   6.134  73.329  1.00  0.00    -0.230 C  
HETATM   18  C   UNL     1     -12.134   8.587  70.502  1.00  0.00     0.137 C  
HETATM   19  C   UNL     1      -9.696   5.912  74.101  1.00  0.00    -0.191 C  
HETATM   20  C   UNL     1     -12.607   9.731  71.418  1.00  0.00    -0.482 C  
HETATM   21  C   UNL     1     -10.753   8.761  69.825  1.00  0.00    -0.220 C  
HETATM   22  C   UNL     1      -8.893   7.145  74.395  1.00  0.00    -0.238 C  
ENDROOT
BRANCH   4  23
HETATM   23  C   UNL     1      -9.479   8.438  66.965  1.00  0.00    -0.225 C  
HETATM   24  C   UNL     1      -9.765   7.841  65.961  1.00  0.00     0.066 C  
ENDBRANCH   4  23
TORSDOF 1
ENDMDL
MODEL       64
REMARK 921   NORMALIZED FREE ENERGY PREDICTED BY IDOCK:   -4.34 KCAL/MOL
REMARK 922        TOTAL FREE ENERGY PREDICTED BY IDOCK:   -4.61 KCAL/MOL
REMARK 923 INTER-LIGAND FREE ENERGY PREDICTED BY IDOCK:   -4.64 KCAL/MOL
REMARK 924 INTRA-LIGAND FREE ENERGY PREDICTED BY IDOCK:    0.04 KCAL/MOL
REMARK 927      BINDING AFFINITY PREDICTED BY RF-SCORE:    0.00 PKD
ROOT
HETATM    1  C   UNL     1      -8.744  11.777  66.672  1.00  0.00    -0.186 C  
HETATM    2  C   UNL     1      -8.010  12.913  67.091  1.00  0.00    -0.104 C  
HETATM    3  C   UNL     1      -7.704  11.617  67.744  1.00  0.00    -0.126 C  
HETATM    4  C   UNL     1      -8.437   9.987  66.712  1.00  0.00    -0.125 C  
HETATM    5  C   UNL     1      -7.201  10.568  66.655  1.00  0.00    -0.119 C  
HETATM    6  C   UNL     1     -10.408   8.906  71.199  1.00  0.00    -0.338 C  
HETATM    7  O   UNL     1      -8.117   8.597  66.829  1.00  0.00    -0.099 OA 
HETATM    8  C   UNL     1      -6.778   9.700  68.253  1.00  0.00    -0.061 C  
HETATM    9  C   UNL     1      -6.167  10.643  65.567  1.00  0.00    -0.093 C  
HETATM   10  O   UNL     1     -13.697   8.067  71.947  1.00  0.00    -0.343 OA 
HETATM   11  H   UNL     1      -8.454   7.847  66.354  1.00  0.00     0.000 HD 
HETATM   12  C   UNL     1      -8.184   9.374  69.200  1.00  0.00    -0.112 C  
HETATM   13  C   UNL     1      -9.460  10.412  69.298  1.00  0.00    -0.214 C  
HETATM   14  C   UNL     1     -10.678   9.931  70.113  1.00  0.00    -0.361 C  
HETATM   15  C   UNL     1     -11.905  10.494  69.967  1.00  0.00    -0.388 C  
HETATM   16  C   UNL     1     -12.217  11.619  68.987  1.00  0.00    -0.162 C  
HETATM   17  C   UNL     1     -13.104  10.100  70.806  1.00  0.00    -0.351 C  
HETATM   18  C   UNL     1     -10.984  12.338  68.389  1.00  0.00    -0.270 C  
HETATM   19  C   UNL     1     -12.825   8.892  71.673  1.00  0.00    -0.349 C  
HETATM   20  C   UNL     1     -10.477  13.338  69.443  1.00  0.00     0.287 C  
HETATM   21  C   UNL     1      -9.992  11.240  67.934  1.00  0.00    -0.189 C  
HETATM   22  C   UNL     1     -11.462   8.842  72.298  1.00  0.00    -0.376 C  
ENDROOT
BRANCH   4  23
HETATM   23  C   UNL     1      -8.966   9.964  65.246  1.00  0.00    -0.228 C  
HETATM   24  C   UNL     1      -9.333   9.974  64.101  1.00  0.00    -0.335 C  
ENDBRANCH   4  23
TORSDOF 1
ENDMDL
MODEL       65
REMARK 921   NORMALIZED FREE ENERGY PREDICTED BY IDOCK:   -4.34 KCAL/MOL
REMARK 922        TOTAL FREE ENERGY PREDICTED BY IDOCK:   -4.60 KCAL/MOL
REMARK 923 INTER-LIGAND FREE ENERGY PREDICTED BY IDOCK:   -4.59 KCAL/MOL
REMARK 924 INTRA-LIGAND FREE ENERGY PREDICTED BY IDOCK:   -0.02 KCAL/MOL
REMARK 927      BINDING AFFINITY PREDICTED BY RF-SCORE:    0.00 PKD
ROOT
HETATM    1  C   UNL     1      -9.870  10.526  67.930  1.00  0.00    -0.181 C  
HETATM    2  C   UNL     1      -9.192  10.589  69.171  1.00  0.00    -0.183 C  
HETATM    3  C   UNL     1      -8.380  10.345  67.953  1.00  0.00    -0.114 C  
HETATM    4  C   UNL     1      -9.375  10.791  66.201  1.00  0.00    -0.183 C  
HETATM    5  C   UNL     1      -8.534  11.569  66.946  1.00  0.00    -0.165 C  
HETATM    6  C   UNL     1      -7.957   6.123  65.021  1.00  0.00    -0.123 C  
HETATM    7  O   UNL     1      -8.874  10.979  64.875  1.00  0.00    -0.312 OA 
HETATM    8  C   UNL     1      -7.098  10.634  66.202  1.00  0.00    -0.138 C  
HETATM    9  C   UNL     1      -8.424  13.057  67.124  1.00  0.00    -0.176 C  
HETATM   10  O   UNL     1      -9.917   3.544  63.763  1.00  0.00    -0.148 OA 
HETATM   11  H   UNL     1      -9.332  11.184  64.069  1.00  0.00     0.000 HD 
HETATM   12  C   UNL     1      -7.549   9.040  65.720  1.00  0.00    -0.090 C  
HETATM   13  C   UNL     1      -8.607   8.110  66.574  1.00  0.00    -0.146 C  
HETATM   14  C   UNL     1      -8.976   6.744  65.959  1.00  0.00    -0.129 C  
HETATM   15  C   UNL     1     -10.087   6.063  66.341  1.00  0.00    -0.142 C  
HETATM   16  C   UNL     1     -11.085   6.568  67.376  1.00  0.00    -0.411 C  
HETATM   17  C   UNL     1     -10.436   4.685  65.816  1.00  0.00    -0.290 C  
HETATM   18  C   UNL     1     -10.601   7.760  68.236  1.00  0.00    -0.169 C  
HETATM   19  C   UNL     1      -9.523   4.251  64.690  1.00  0.00    -0.163 C  
HETATM   20  C   UNL     1      -9.683   7.193  69.335  1.00  0.00    -0.160 C  
HETATM   21  C   UNL     1      -9.976   8.796  67.271  1.00  0.00    -0.281 C  
HETATM   22  C   UNL     1      -8.076   4.613  64.851  1.00  0.00    -0.102 C  
ENDROOT
BRANCH   4  23
HETATM   23  C   UNL     1     -10.693  11.608  66.053  1.00  0.00    -0.328 C  
HETATM   24  C   UNL     1     -11.711  12.227  65.888  1.00  0.00    -0.451 C  
ENDBRANCH   4  23
TORSDOF 1
ENDMDL
MODEL       66
REMARK 921   NORMALIZED FREE ENERGY PREDICTED BY IDOCK:   -4.25 KCAL/MOL
REMARK 922        TOTAL FREE ENERGY PREDICTED BY IDOCK:   -4.51 KCAL/MOL
REMARK 923 INTER-LIGAND FREE ENERGY PREDICTED BY IDOCK:   -4.52 KCAL/MOL
REMARK 924 INTRA-LIGAND FREE ENERGY PREDICTED BY IDOCK:    0.01 KCAL/MOL
REMARK 927      BINDING AFFINITY PREDICTED BY RF-SCORE:    0.00 PKD
ROOT
HETATM    1  C   UNL     1      -7.594   9.828  66.556  1.00  0.00    -0.098 C  
HETATM    2  C   UNL     1      -6.272  10.001  67.034  1.00  0.00    -0.063 C  
HETATM    3  C   UNL     1      -6.804   8.617  66.959  1.00  0.00    -0.067 C  
HETATM    4  C   UNL     1      -8.492   8.449  65.785  1.00  0.00    -0.156 C  
HETATM    5  C   UNL     1      -7.180   8.262  65.453  1.00  0.00    -0.071 C  
HETATM    6  C   UNL     1     -10.294   6.225  69.908  1.00  0.00    -0.249 C  
HETATM    7  O   UNL     1      -9.119   7.292  65.226  1.00  0.00    -0.364 OA 
HETATM    8  C   UNL     1      -7.265   6.589  66.278  1.00  0.00    -0.072 C  
HETATM    9  C   UNL     1      -6.435   8.401  64.155  1.00  0.00    -0.067 C  
HETATM   10  O   UNL     1     -13.284   6.872  71.557  1.00  0.00    -0.345 OA 
HETATM   11  H   UNL     1      -9.896   7.215  64.686  1.00  0.00     0.000 HD 
HETATM   12  C   UNL     1      -8.467   6.543  67.516  1.00  0.00    -0.120 C  
HETATM   13  C   UNL     1      -8.778   7.817  68.511  1.00  0.00    -0.128 C  
HETATM   14  C   UNL     1      -9.946   7.646  69.505  1.00  0.00    -0.182 C  
HETATM   15  C   UNL     1     -10.544   8.712  70.099  1.00  0.00    -0.235 C  
HETATM   16  C   UNL     1     -10.155  10.162  69.839  1.00  0.00    -0.268 C  
HETATM   17  C   UNL     1     -11.639   8.576  71.137  1.00  0.00    -0.325 C  
HETATM   18  C   UNL     1      -8.806  10.367  69.110  1.00  0.00    -0.180 C  
HETATM   19  C   UNL     1     -12.116   7.148  71.285  1.00  0.00    -0.348 C  
HETATM   20  C   UNL     1      -7.687  10.209  70.157  1.00  0.00    -0.086 C  
HETATM   21  C   UNL     1      -8.782   9.388  67.911  1.00  0.00    -0.120 C  
HETATM   22  C   UNL     1     -11.046   6.097  71.227  1.00  0.00    -0.351 C  
ENDROOT
BRANCH   4  23
HETATM   23  C   UNL     1      -9.042   9.502  64.776  1.00  0.00    -0.271 C  
HETATM   24  C   UNL     1      -9.488  10.340  64.037  1.00  0.00    -0.356 C  
ENDBRANCH   4  23
TORSDOF 1
ENDMDL
MODEL       67
REMARK 921   NORMALIZED FREE ENERGY PREDICTED BY IDOCK:   -4.24 KCAL/MOL
REMARK 922        TOTAL FREE ENERGY PREDICTED BY IDOCK:   -4.50 KCAL/MOL
REMARK 923 INTER-LIGAND FREE ENERGY PREDICTED BY IDOCK:   -4.53 KCAL/MOL
REMARK 924 INTRA-LIGAND FREE ENERGY PREDICTED BY IDOCK:    0.04 KCAL/MOL
REMARK 927      BINDING AFFINITY PREDICTED BY RF-SCORE:    0.00 PKD
ROOT
HETATM    1  C   UNL     1      -9.040  15.400  69.239  1.00  0.00    -0.260 C  
HETATM    2  C   UNL     1      -7.628  15.368  69.149  1.00  0.00    -0.198 C  
HETATM    3  C   UNL     1      -8.371  16.076  68.078  1.00  0.00    -0.162 C  
HETATM    4  C   UNL     1     -10.326  16.503  68.580  1.00  0.00    -0.287 C  
HETATM    5  C   UNL     1      -9.208  17.278  68.704  1.00  0.00    -0.266 C  
HETATM    6  C   UNL     1     -11.221  14.212  64.205  1.00  0.00    -0.194 C  
HETATM    7  O   UNL     1     -11.260  17.404  67.980  1.00  0.00    -0.157 OA 
HETATM    8  C   UNL     1      -9.321  17.639  66.875  1.00  0.00    -0.268 C  
HETATM    9  C   UNL     1      -8.847  18.391  69.648  1.00  0.00     0.852 C  
HETATM   10  O   UNL     1     -13.483  11.656  63.550  1.00  0.00    -0.354 OA 
HETATM   11  H   UNL     1     -12.160  17.600  68.211  1.00  0.00     0.000 HD 
HETATM   12  C   UNL     1     -10.116  16.370  66.017  1.00  0.00    -0.373 C  
HETATM   13  C   UNL     1      -9.928  14.778  66.394  1.00  0.00    -0.291 C  
HETATM   14  C   UNL     1     -10.781  13.774  65.590  1.00  0.00    -0.288 C  
HETATM   15  C   UNL     1     -11.009  12.511  66.034  1.00  0.00    -0.318 C  
HETATM   16  C   UNL     1     -10.485  11.963  67.356  1.00  0.00    -0.242 C  
HETATM   17  C   UNL     1     -11.775  11.476  65.234  1.00  0.00     0.113 C  
HETATM   18  C   UNL     1      -9.381  12.810  68.034  1.00  0.00    -0.213 C  
HETATM   19  C   UNL     1     -12.410  12.065  63.994  1.00  0.00    -0.401 C  
HETATM   20  C   UNL     1      -8.053  12.489  67.324  1.00  0.00    -0.179 C  
HETATM   21  C   UNL     1      -9.852  14.284  68.000  1.00  0.00    -0.224 C  
HETATM   22  C   UNL     1     -11.581  13.075  63.256  1.00  0.00    -0.250 C  
ENDROOT
BRANCH   4  23
HETATM   23  C   UNL     1     -10.965  16.444  70.000  1.00  0.00    -0.322 C  
HETATM   24  C   UNL     1     -11.423  16.363  71.109  1.00  0.00    -0.252 C  
ENDBRANCH   4  23
TORSDOF 1
ENDMDL
MODEL       68
REMARK 921   NORMALIZED FREE ENERGY PREDICTED BY IDOCK:   -4.21 KCAL/MOL
REMARK 922        TOTAL FREE ENERGY PREDICTED BY IDOCK:   -4.47 KCAL/MOL
REMARK 923 INTER-LIGAND FREE ENERGY PREDICTED BY IDOCK:   -4.45 KCAL/MOL
REMARK 924 INTRA-LIGAND FREE ENERGY PREDICTED BY IDOCK:   -0.02 KCAL/MOL
REMARK 927      BINDING AFFINITY PREDICTED BY RF-SCORE:    0.00 PKD
ROOT
HETATM    1  C   UNL     1      -8.227  18.655  68.084  1.00  0.00    -0.327 C  
HETATM    2  C   UNL     1      -7.094  18.849  67.258  1.00  0.00    -0.216 C  
HETATM    3  C   UNL     1      -8.398  18.607  66.593  1.00  0.00    -0.297 C  
HETATM    4  C   UNL     1     -10.017  18.862  67.847  1.00  0.00    -0.352 C  
HETATM    5  C   UNL     1      -9.430  19.753  66.993  1.00  0.00    -0.476 C  
HETATM    6  C   UNL     1     -11.165  14.277  66.160  1.00  0.00    -0.331 C  
HETATM    7  O   UNL     1     -11.406  19.016  67.545  1.00  0.00    -0.098 OA 
HETATM    8  C   UNL     1     -10.318  18.907  65.585  1.00  0.00    -0.115 C  
HETATM    9  C   UNL     1      -9.336  21.253  67.003  1.00  0.00     0.343 C  
HETATM   10  O   UNL     1     -12.026  11.466  68.014  1.00  0.00    -0.613 OA 
HETATM   11  H   UNL     1     -12.151  19.134  68.122  1.00  0.00     0.000 HD 
HETATM   12  C   UNL     1     -10.661  17.253  65.943  1.00  0.00    -0.206 C  
HETATM   13  C   UNL     1      -9.630  16.285  66.786  1.00  0.00    -0.254 C  
HETATM   14  C   UNL     1     -10.126  14.859  67.101  1.00  0.00    -0.240 C  
HETATM   15  C   UNL     1      -9.566  14.106  68.083  1.00  0.00    -0.218 C  
HETATM   16  C   UNL     1      -8.430  14.580  68.980  1.00  0.00    -0.048 C  
HETATM   17  C   UNL     1      -9.976  12.674  68.365  1.00  0.00    -0.210 C  
HETATM   18  C   UNL     1      -7.698  15.858  68.503  1.00  0.00    -0.147 C  
HETATM   19  C   UNL     1     -11.194  12.258  67.571  1.00  0.00    -0.297 C  
HETATM   20  C   UNL     1      -6.710  15.439  67.399  1.00  0.00    -0.178 C  
HETATM   21  C   UNL     1      -8.786  16.887  68.111  1.00  0.00    -0.226 C  
HETATM   22  C   UNL     1     -11.248  12.755  66.156  1.00  0.00    -0.336 C  
ENDROOT
BRANCH   4  23
HETATM   23  C   UNL     1     -10.022  19.550  69.245  1.00  0.00    -0.344 C  
HETATM   24  C   UNL     1     -10.077  20.078  70.325  1.00  0.00     0.735 C  
ENDBRANCH   4  23
TORSDOF 1
ENDMDL
MODEL       69
REMARK 921   NORMALIZED FREE ENERGY PREDICTED BY IDOCK:   -4.11 KCAL/MOL
REMARK 922        TOTAL FREE ENERGY PREDICTED BY IDOCK:   -4.36 KCAL/MOL
REMARK 923 INTER-LIGAND FREE ENERGY PREDICTED BY IDOCK:   -4.39 KCAL/MOL
REMARK 924 INTRA-LIGAND FREE ENERGY PREDICTED BY IDOCK:    0.03 KCAL/MOL
REMARK 927      BINDING AFFINITY PREDICTED BY RF-SCORE:    0.00 PKD
ROOT
HETATM    1  C   UNL     1      -7.764  11.383  67.866  1.00  0.00    -0.114 C  
HETATM    2  C   UNL     1      -8.268  11.118  69.162  1.00  0.00    -0.007 C  
HETATM    3  C   UNL     1      -9.204  11.688  68.162  1.00  0.00    -0.184 C  
HETATM    4  C   UNL     1      -8.519  11.539  66.221  1.00  0.00    -0.108 C  
HETATM    5  C   UNL     1      -9.338  10.698  66.921  1.00  0.00    -0.180 C  
HETATM    6  C   UNL     1      -9.513  16.459  66.227  1.00  0.00    -0.347 C  
HETATM    7  O   UNL     1      -9.216  11.684  64.980  1.00  0.00    -0.405 OA 
HETATM    8  C   UNL     1     -10.739  11.894  66.614  1.00  0.00    -0.291 C  
HETATM    9  C   UNL     1      -9.600   9.222  66.816  1.00  0.00    -0.240 C  
HETATM   10  O   UNL     1      -7.448  19.062  65.208  1.00  0.00    -0.377 OA 
HETATM   11  H   UNL     1      -8.900  11.616  64.087  1.00  0.00     0.000 HD 
HETATM   12  C   UNL     1     -10.169  13.509  66.391  1.00  0.00    -0.291 C  
HETATM   13  C   UNL     1      -8.900  14.136  67.233  1.00  0.00    -0.227 C  
HETATM   14  C   UNL     1      -8.458  15.563  66.849  1.00  0.00    -0.289 C  
HETATM   15  C   UNL     1      -7.231  16.046  67.177  1.00  0.00    -0.257 C  
HETATM   16  C   UNL     1      -6.169  15.244  67.920  1.00  0.00    -0.170 C  
HETATM   17  C   UNL     1      -6.794  17.467  66.886  1.00  0.00    -0.220 C  
HETATM   18  C   UNL     1      -6.670  13.944  68.593  1.00  0.00    -0.098 C  
HETATM   19  C   UNL     1      -7.794  18.211  66.028  1.00  0.00    -0.139 C  
HETATM   20  C   UNL     1      -7.354  14.343  69.914  1.00  0.00     0.182 C  
HETATM   21  C   UNL     1      -7.542  13.198  67.554  1.00  0.00    -0.166 C  
HETATM   22  C   UNL     1      -9.238  17.953  66.342  1.00  0.00    -0.258 C  
ENDROOT
BRANCH   4  23
HETATM   23  C   UNL     1      -7.342  10.658  65.706  1.00  0.00    -0.110 C  
HETATM   24  C   UNL     1      -6.406   9.990  65.351  1.00  0.00    -0.101 C  
ENDBRANCH   4  23
TORSDOF 1
ENDMDL
MODEL       70
REMARK 921   NORMALIZED FREE ENERGY PREDICTED BY IDOCK:   -4.10 KCAL/MOL
REMARK 922        TOTAL FREE ENERGY PREDICTED BY IDOCK:   -4.36 KCAL/MOL
REMARK 923 INTER-LIGAND FREE ENERGY PREDICTED BY IDOCK:   -4.40 KCAL/MOL
REMARK 924 INTRA-LIGAND FREE ENERGY PREDICTED BY IDOCK:    0.04 KCAL/MOL
REMARK 927      BINDING AFFINITY PREDICTED BY RF-SCORE:    0.00 PKD
ROOT
HETATM    1  C   UNL     1      -8.619   6.261  65.804  1.00  0.00    -0.153 C  
HETATM    2  C   UNL     1      -7.313   6.708  65.491  1.00  0.00    -0.076 C  
HETATM    3  C   UNL     1      -7.521   6.053  66.806  1.00  0.00    -0.087 C  
HETATM    4  C   UNL     1      -9.292   5.000  66.926  1.00  0.00    -0.131 C  
HETATM    5  C   UNL     1      -8.041   4.563  66.592  1.00  0.00    -0.103 C  
HETATM    6  C   UNL     1      -9.865   7.789  71.060  1.00  0.00    -0.186 C  
HETATM    7  O   UNL     1      -9.720   4.015  67.870  1.00  0.00    -0.159 OA 
HETATM    8  C   UNL     1      -7.612   4.566  68.410  1.00  0.00    -0.068 C  
HETATM    9  C   UNL     1      -7.562   3.429  65.730  1.00  0.00    -0.077 C  
HETATM   10  O   UNL     1     -12.624   9.682  71.999  1.00  0.00    -0.379 OA 
HETATM   11  H   UNL     1     -10.535   3.530  67.926  1.00  0.00     0.000 HD 
HETATM   12  C   UNL     1      -8.561   5.707  69.292  1.00  0.00    -0.106 C  
HETATM   13  C   UNL     1      -8.991   7.176  68.684  1.00  0.00    -0.131 C  
HETATM   14  C   UNL     1      -9.918   8.041  69.564  1.00  0.00    -0.186 C  
HETATM   15  C   UNL     1     -10.639   9.070  69.049  1.00  0.00    -0.209 C  
HETATM   16  C   UNL     1     -10.636   9.461  67.576  1.00  0.00    -0.333 C  
HETATM   17  C   UNL     1     -11.496   9.988  69.897  1.00  0.00    -0.274 C  
HETATM   18  C   UNL     1      -9.501   8.840  66.727  1.00  0.00    -0.249 C  
HETATM   19  C   UNL     1     -11.607   9.510  71.328  1.00  0.00    -0.374 C  
HETATM   20  C   UNL     1      -8.225   9.660  66.993  1.00  0.00    -0.117 C  
HETATM   21  C   UNL     1      -9.446   7.332  67.073  1.00  0.00    -0.196 C  
HETATM   22  C   UNL     1     -10.350   8.948  71.924  1.00  0.00    -0.407 C  
ENDROOT
BRANCH   4  23
HETATM   23  C   UNL     1     -10.219   4.585  65.745  1.00  0.00    -0.289 C  
HETATM   24  C   UNL     1     -10.909   4.297  64.803  1.00  0.00    -0.108 C  
ENDBRANCH   4  23
TORSDOF 1
ENDMDL
MODEL       71
REMARK 921   NORMALIZED FREE ENERGY PREDICTED BY IDOCK:   -4.09 KCAL/MOL
REMARK 922        TOTAL FREE ENERGY PREDICTED BY IDOCK:   -4.34 KCAL/MOL
REMARK 923 INTER-LIGAND FREE ENERGY PREDICTED BY IDOCK:   -4.33 KCAL/MOL
REMARK 924 INTRA-LIGAND FREE ENERGY PREDICTED BY IDOCK:   -0.01 KCAL/MOL
REMARK 927      BINDING AFFINITY PREDICTED BY RF-SCORE:    0.00 PKD
ROOT
HETATM    1  C   UNL     1     -10.328   7.507  72.172  1.00  0.00    -0.252 C  
HETATM    2  C   UNL     1      -9.424   8.281  72.938  1.00  0.00    -0.321 C  
HETATM    3  C   UNL     1      -9.313   8.354  71.460  1.00  0.00    -0.263 C  
HETATM    4  C   UNL     1     -10.974   7.622  70.477  1.00  0.00    -0.249 C  
HETATM    5  C   UNL     1     -10.674   8.904  70.842  1.00  0.00    -0.292 C  
HETATM    6  C   UNL     1      -7.499   4.906  68.081  1.00  0.00    -0.074 C  
HETATM    7  O   UNL     1     -11.387   7.778  69.117  1.00  0.00    -0.391 OA 
HETATM    8  C   UNL     1      -9.520   8.995  69.377  1.00  0.00    -0.159 C  
HETATM    9  C   UNL     1     -11.537  10.091  71.168  1.00  0.00    -0.460 C  
HETATM   10  O   UNL     1      -7.469   1.475  67.529  1.00  0.00    -0.052 OA 
HETATM   11  H   UNL     1     -12.151   7.441  68.665  1.00  0.00     0.000 HD 
HETATM   12  C   UNL     1      -8.921   7.438  68.933  1.00  0.00    -0.130 C  
HETATM   13  C   UNL     1      -8.544   6.274  70.035  1.00  0.00    -0.134 C  
HETATM   14  C   UNL     1      -8.109   4.906  69.471  1.00  0.00    -0.074 C  
HETATM   15  C   UNL     1      -8.139   3.777  70.226  1.00  0.00    -0.057 C  
HETATM   16  C   UNL     1      -8.616   3.730  71.672  1.00  0.00    -0.113 C  
HETATM   17  C   UNL     1      -7.645   2.433  69.728  1.00  0.00    -0.043 C  
HETATM   18  C   UNL     1      -8.757   5.104  72.369  1.00  0.00    -0.124 C  
HETATM   19  C   UNL     1      -7.306   2.456  68.254  1.00  0.00    -0.048 C  
HETATM   20  C   UNL     1      -7.347   5.548  72.803  1.00  0.00    -0.092 C  
HETATM   21  C   UNL     1      -9.511   6.037  71.391  1.00  0.00    -0.172 C  
HETATM   22  C   UNL     1      -6.624   3.699  67.763  1.00  0.00    -0.042 C  
ENDROOT
BRANCH   4  23
HETATM   23  C   UNL     1     -12.371   7.317  71.095  1.00  0.00    -0.381 C  
HETATM   24  C   UNL     1     -13.472   7.095  71.526  1.00  0.00    -0.411 C  
ENDBRANCH   4  23
TORSDOF 1
ENDMDL
MODEL       72
REMARK 921   NORMALIZED FREE ENERGY PREDICTED BY IDOCK:   -4.03 KCAL/MOL
REMARK 922        TOTAL FREE ENERGY PREDICTED BY IDOCK:   -4.28 KCAL/MOL
REMARK 923 INTER-LIGAND FREE ENERGY PREDICTED BY IDOCK:   -4.26 KCAL/MOL
REMARK 924 INTRA-LIGAND FREE ENERGY PREDICTED BY IDOCK:   -0.02 KCAL/MOL
REMARK 927      BINDING AFFINITY PREDICTED BY RF-SCORE:    0.00 PKD
ROOT
HETATM    1  C   UNL     1      -7.036   6.007  69.114  1.00  0.00    -0.064 C  
HETATM    2  C   UNL     1      -6.211   5.487  70.140  1.00  0.00    -0.026 C  
HETATM    3  C   UNL     1      -7.588   4.947  70.022  1.00  0.00    -0.055 C  
HETATM    4  C   UNL     1      -8.487   5.382  68.216  1.00  0.00    -0.097 C  
HETATM    5  C   UNL     1      -7.784   4.272  68.592  1.00  0.00    -0.066 C  
HETATM    6  C   UNL     1     -12.122   7.089  71.227  1.00  0.00    -0.403 C  
HETATM    7  O   UNL     1      -9.648   4.816  67.601  1.00  0.00    -0.139 OA 
HETATM    8  C   UNL     1      -9.302   3.686  69.509  1.00  0.00    -0.247 C  
HETATM    9  C   UNL     1      -6.970   3.277  67.814  1.00  0.00    -0.050 C  
HETATM   10  O   UNL     1     -13.733  10.166  71.107  1.00  0.00    -0.200 OA 
HETATM   11  H   UNL     1     -10.061   5.016  66.770  1.00  0.00     0.000 HD 
HETATM   12  C   UNL     1     -10.304   5.003  70.002  1.00  0.00    -0.303 C  
HETATM   13  C   UNL     1      -9.699   6.444  70.522  1.00  0.00    -0.186 C  
HETATM   14  C   UNL     1     -10.728   7.549  70.839  1.00  0.00    -0.244 C  
HETATM   15  C   UNL     1     -10.376   8.858  70.905  1.00  0.00    -0.303 C  
HETATM   16  C   UNL     1      -8.965   9.376  70.656  1.00  0.00    -0.285 C  
HETATM   17  C   UNL     1     -11.343   9.959  71.290  1.00  0.00    -0.404 C  
HETATM   18  C   UNL     1      -7.854   8.298  70.650  1.00  0.00    -0.092 C  
HETATM   19  C   UNL     1     -12.767   9.460  71.398  1.00  0.00    -0.345 C  
HETATM   20  C   UNL     1      -7.522   7.971  72.118  1.00  0.00    -0.111 C  
HETATM   21  C   UNL     1      -8.359   7.128  69.772  1.00  0.00    -0.132 C  
HETATM   22  C   UNL     1     -12.936   8.105  72.020  1.00  0.00    -0.329 C  
ENDROOT
BRANCH   4  23
HETATM   23  C   UNL     1      -7.793   5.910  66.925  1.00  0.00    -0.101 C  
HETATM   24  C   UNL     1      -7.304   6.325  65.908  1.00  0.00    -0.080 C  
ENDBRANCH   4  23
TORSDOF 1
ENDMDL
MODEL       73
REMARK 921   NORMALIZED FREE ENERGY PREDICTED BY IDOCK:   -4.02 KCAL/MOL
REMARK 922        TOTAL FREE ENERGY PREDICTED BY IDOCK:   -4.27 KCAL/MOL
REMARK 923 INTER-LIGAND FREE ENERGY PREDICTED BY IDOCK:   -4.26 KCAL/MOL
REMARK 924 INTRA-LIGAND FREE ENERGY PREDICTED BY IDOCK:   -0.01 KCAL/MOL
REMARK 927      BINDING AFFINITY PREDICTED BY RF-SCORE:    0.00 PKD
ROOT
HETATM    1  C   UNL     1      -8.942   8.765  70.707  1.00  0.00    -0.231 C  
HETATM    2  C   UNL     1      -7.573   8.963  70.409  1.00  0.00    -0.088 C  
HETATM    3  C   UNL     1      -8.283   7.872  69.696  1.00  0.00    -0.122 C  
HETATM    4  C   UNL     1     -10.338   8.018  69.814  1.00  0.00    -0.219 C  
HETATM    5  C   UNL     1      -9.488   8.475  68.847  1.00  0.00    -0.147 C  
HETATM    6  C   UNL     1      -9.890   3.275  71.396  1.00  0.00    -0.194 C  
HETATM    7  O   UNL     1     -11.357   7.370  69.047  1.00  0.00    -0.433 OA 
HETATM    8  C   UNL     1      -9.385   6.731  68.188  1.00  0.00    -0.122 C  
HETATM    9  C   UNL     1      -9.580   9.619  67.877  1.00  0.00    -0.159 C  
HETATM   10  O   UNL     1     -11.293   1.819  74.223  1.00  0.00    -0.104 OA 
HETATM   11  H   UNL     1     -12.302   7.437  69.101  1.00  0.00     0.000 HD 
HETATM   12  C   UNL     1      -9.681   5.559  69.421  1.00  0.00    -0.216 C  
HETATM   13  C   UNL     1      -9.162   5.740  70.973  1.00  0.00    -0.166 C  
HETATM   14  C   UNL     1      -9.588   4.646  71.974  1.00  0.00    -0.205 C  
HETATM   15  C   UNL     1      -9.561   4.852  73.316  1.00  0.00    -0.144 C  
HETATM   16  C   UNL     1      -9.141   6.163  73.969  1.00  0.00    -0.136 C  
HETATM   17  C   UNL     1      -9.897   3.775  74.328  1.00  0.00    -0.162 C  
HETATM   18  C   UNL     1      -8.414   7.165  73.040  1.00  0.00    -0.142 C  
HETATM   19  C   UNL     1     -10.446   2.526  73.675  1.00  0.00    -0.137 C  
HETATM   20  C   UNL     1      -6.950   6.704  72.921  1.00  0.00    -0.076 C  
HETATM   21  C   UNL     1      -9.229   7.242  71.726  1.00  0.00    -0.153 C  
HETATM   22  C   UNL     1      -9.789   2.123  72.388  1.00  0.00    -0.201 C  
ENDROOT
BRANCH   4  23
HETATM   23  C   UNL     1     -11.166   9.254  70.274  1.00  0.00    -0.267 C  
HETATM   24  C   UNL     1     -11.845  10.191  70.602  1.00  0.00    -0.431 C  
ENDBRANCH   4  23
TORSDOF 1
ENDMDL
MODEL       74
REMARK 921   NORMALIZED FREE ENERGY PREDICTED BY IDOCK:   -3.98 KCAL/MOL
REMARK 922        TOTAL FREE ENERGY PREDICTED BY IDOCK:   -4.23 KCAL/MOL
REMARK 923 INTER-LIGAND FREE ENERGY PREDICTED BY IDOCK:   -4.21 KCAL/MOL
REMARK 924 INTRA-LIGAND FREE ENERGY PREDICTED BY IDOCK:   -0.02 KCAL/MOL
REMARK 927      BINDING AFFINITY PREDICTED BY RF-SCORE:    0.00 PKD
ROOT
HETATM    1  C   UNL     1      -9.871   7.391  70.752  1.00  0.00    -0.178 C  
HETATM    2  C   UNL     1     -11.233   7.757  70.626  1.00  0.00    -0.278 C  
HETATM    3  C   UNL     1     -10.929   6.380  71.087  1.00  0.00    -0.327 C  
HETATM    4  C   UNL     1      -8.981   6.141  71.725  1.00  0.00    -0.141 C  
HETATM    5  C   UNL     1     -10.102   6.436  72.448  1.00  0.00    -0.191 C  
HETATM    6  C   UNL     1      -9.121   2.313  68.481  1.00  0.00    -0.209 C  
HETATM    7  O   UNL     1      -8.382   5.098  72.498  1.00  0.00    -0.115 OA 
HETATM    8  C   UNL     1     -10.572   4.631  72.355  1.00  0.00    -0.225 C  
HETATM    9  C   UNL     1     -10.308   7.180  73.737  1.00  0.00    -0.390 C  
HETATM   10  O   UNL     1      -6.849   1.556  65.963  1.00  0.00    -0.032 OA 
HETATM   11  H   UNL     1      -7.485   4.988  72.791  1.00  0.00     0.000 HD 
HETATM   12  C   UNL     1      -9.910   3.865  70.957  1.00  0.00    -0.219 C  
HETATM   13  C   UNL     1      -9.780   4.618  69.498  1.00  0.00    -0.278 C  
HETATM   14  C   UNL     1      -9.081   3.826  68.374  1.00  0.00    -0.194 C  
HETATM   15  C   UNL     1      -8.578   4.440  67.272  1.00  0.00    -0.104 C  
HETATM   16  C   UNL     1      -8.622   5.945  67.038  1.00  0.00    -0.110 C  
HETATM   17  C   UNL     1      -7.957   3.686  66.113  1.00  0.00    -0.089 C  
HETATM   18  C   UNL     1      -9.577   6.733  67.966  1.00  0.00    -0.117 C  
HETATM   19  C   UNL     1      -7.788   2.212  66.412  1.00  0.00    -0.075 C  
HETATM   20  C   UNL     1     -11.003   6.561  67.413  1.00  0.00    -0.458 C  
HETATM   21  C   UNL     1      -9.324   6.234  69.410  1.00  0.00    -0.145 C  
HETATM   22  C   UNL     1      -8.915   1.570  67.166  1.00  0.00    -0.137 C  
ENDROOT
BRANCH   4  23
HETATM   23  C   UNL     1      -7.954   7.267  72.049  1.00  0.00    -0.093 C  
HETATM   24  C   UNL     1      -7.125   8.107  72.280  1.00  0.00    -0.102 C  
ENDBRANCH   4  23
TORSDOF 1
ENDMDL
MODEL       75
REMARK 921   NORMALIZED FREE ENERGY PREDICTED BY IDOCK:   -3.92 KCAL/MOL
REMARK 922        TOTAL FREE ENERGY PREDICTED BY IDOCK:   -4.16 KCAL/MOL
REMARK 923 INTER-LIGAND FREE ENERGY PREDICTED BY IDOCK:   -4.14 KCAL/MOL
REMARK 924 INTRA-LIGAND FREE ENERGY PREDICTED BY IDOCK:   -0.02 KCAL/MOL
REMARK 927      BINDING AFFINITY PREDICTED BY RF-SCORE:    0.00 PKD
ROOT
HETATM    1  C   UNL     1      -7.734   6.329  66.605  1.00  0.00    -0.100 C  
HETATM    2  C   UNL     1      -8.355   5.587  65.573  1.00  0.00    -0.136 C  
HETATM    3  C   UNL     1      -9.149   6.657  66.226  1.00  0.00    -0.168 C  
HETATM    4  C   UNL     1      -8.000   7.982  67.314  1.00  0.00    -0.121 C  
HETATM    5  C   UNL     1      -8.432   8.065  66.020  1.00  0.00    -0.144 C  
HETATM    6  C   UNL     1     -11.304   6.819  70.909  1.00  0.00    -0.363 C  
HETATM    7  O   UNL     1      -8.319   9.277  67.829  1.00  0.00    -0.115 OA 
HETATM    8  C   UNL     1     -10.108   8.574  66.670  1.00  0.00    -0.364 C  
HETATM    9  C   UNL     1      -7.875   8.759  64.810  1.00  0.00    -0.124 C  
HETATM   10  O   UNL     1     -10.654   5.836  74.178  1.00  0.00    -0.267 OA 
HETATM   11  H   UNL     1      -7.791   9.887  68.330  1.00  0.00     0.000 HD 
HETATM   12  C   UNL     1     -10.396   7.961  68.257  1.00  0.00    -0.239 C  
HETATM   13  C   UNL     1      -9.892   6.472  68.748  1.00  0.00    -0.146 C  
HETATM   14  C   UNL     1     -10.148   6.111  70.226  1.00  0.00    -0.237 C  
HETATM   15  C   UNL     1      -9.470   5.112  70.848  1.00  0.00    -0.223 C  
HETATM   16  C   UNL     1      -8.388   4.271  70.181  1.00  0.00    -0.081 C  
HETATM   17  C   UNL     1      -9.753   4.679  72.272  1.00  0.00    -0.213 C  
HETATM   18  C   UNL     1      -8.320   4.380  68.639  1.00  0.00    -0.090 C  
HETATM   19  C   UNL     1     -10.724   5.604  72.972  1.00  0.00    -0.255 C  
HETATM   20  C   UNL     1      -9.431   3.482  68.065  1.00  0.00    -0.217 C  
HETATM   21  C   UNL     1      -8.386   5.885  68.284  1.00  0.00    -0.112 C  
HETATM   22  C   UNL     1     -11.864   6.103  72.133  1.00  0.00    -0.339 C  
ENDROOT
BRANCH   4  23
HETATM   23  C   UNL     1      -6.452   8.147  67.259  1.00  0.00    -0.057 C  
HETATM   24  C   UNL     1      -5.261   8.317  67.243  1.00  0.00    -0.033 C  
ENDBRANCH   4  23
TORSDOF 1
ENDMDL
MODEL       76
REMARK 921   NORMALIZED FREE ENERGY PREDICTED BY IDOCK:   -3.88 KCAL/MOL
REMARK 922        TOTAL FREE ENERGY PREDICTED BY IDOCK:   -4.12 KCAL/MOL
REMARK 923 INTER-LIGAND FREE ENERGY PREDICTED BY IDOCK:   -4.14 KCAL/MOL
REMARK 924 INTRA-LIGAND FREE ENERGY PREDICTED BY IDOCK:    0.02 KCAL/MOL
REMARK 927      BINDING AFFINITY PREDICTED BY RF-SCORE:    0.00 PKD
ROOT
HETATM    1  C   UNL     1      -9.064   8.558  66.603  1.00  0.00    -0.203 C  
HETATM    2  C   UNL     1      -8.579   8.165  65.332  1.00  0.00    -0.154 C  
HETATM    3  C   UNL     1      -7.657   8.917  66.219  1.00  0.00    -0.095 C  
HETATM    4  C   UNL     1      -8.275   8.969  68.187  1.00  0.00    -0.113 C  
HETATM    5  C   UNL     1      -7.420   8.103  67.567  1.00  0.00    -0.094 C  
HETATM    6  C   UNL     1      -7.626  13.904  67.535  1.00  0.00    -0.190 C  
HETATM    7  O   UNL     1      -7.555   9.315  69.374  1.00  0.00    -0.074 OA 
HETATM    8  C   UNL     1      -6.097   9.417  67.671  1.00  0.00    -0.053 C  
HETATM    9  C   UNL     1      -7.052   6.672  67.844  1.00  0.00    -0.085 C  
HETATM   10  O   UNL     1      -9.838  16.473  68.299  1.00  0.00    -0.231 OA 
HETATM   11  H   UNL     1      -7.839   9.339  70.280  1.00  0.00     0.000 HD 
HETATM   12  C   UNL     1      -6.771  11.006  67.713  1.00  0.00    -0.064 C  
HETATM   13  C   UNL     1      -8.104  11.438  66.848  1.00  0.00    -0.158 C  
HETATM   14  C   UNL     1      -8.634  12.870  67.068  1.00  0.00    -0.171 C  
HETATM   15  C   UNL     1      -9.900  13.225  66.728  1.00  0.00    -0.264 C  
HETATM   16  C   UNL     1     -10.924  12.269  66.130  1.00  0.00    -0.328 C  
HETATM   17  C   UNL     1     -10.427  14.640  66.857  1.00  0.00    -0.270 C  
HETATM   18  C   UNL     1     -10.353  10.930  65.605  1.00  0.00    -0.305 C  
HETATM   19  C   UNL     1      -9.458  15.550  67.579  1.00  0.00    -0.208 C  
HETATM   20  C   UNL     1      -9.736  11.203  64.221  1.00  0.00    -0.315 C  
HETATM   21  C   UNL     1      -9.403  10.379  66.696  1.00  0.00    -0.185 C  
HETATM   22  C   UNL     1      -8.009  15.351  67.246  1.00  0.00    -0.231 C  
ENDROOT
BRANCH   4  23
HETATM   23  C   UNL     1      -9.373   8.085  68.851  1.00  0.00    -0.150 C  
HETATM   24  C   UNL     1     -10.185   7.367  69.371  1.00  0.00    -0.201 C  
ENDBRANCH   4  23
TORSDOF 1
ENDMDL
MODEL       77
REMARK 921   NORMALIZED FREE ENERGY PREDICTED BY IDOCK:   -3.88 KCAL/MOL
REMARK 922        TOTAL FREE ENERGY PREDICTED BY IDOCK:   -4.12 KCAL/MOL
REMARK 923 INTER-LIGAND FREE ENERGY PREDICTED BY IDOCK:   -4.12 KCAL/MOL
REMARK 924 INTRA-LIGAND FREE ENERGY PREDICTED BY IDOCK:   -0.00 KCAL/MOL
REMARK 927      BINDING AFFINITY PREDICTED BY RF-SCORE:    0.00 PKD
ROOT
HETATM    1  C   UNL     1      -9.097  10.292  69.556  1.00  0.00    -0.187 C  
HETATM    2  C   UNL     1      -7.894  11.025  69.421  1.00  0.00     0.001 C  
HETATM    3  C   UNL     1      -8.611  10.643  68.180  1.00  0.00    -0.123 C  
HETATM    4  C   UNL     1     -10.563  10.061  68.507  1.00  0.00    -0.215 C  
HETATM    5  C   UNL     1     -10.067  11.290  68.175  1.00  0.00    -0.195 C  
HETATM    6  C   UNL     1      -9.076   6.052  65.878  1.00  0.00    -0.117 C  
HETATM    7  O   UNL     1     -11.650   9.910  67.590  1.00  0.00    -0.479 OA 
HETATM    8  C   UNL     1      -9.904  10.690  66.414  1.00  0.00    -0.259 C  
HETATM    9  C   UNL     1     -10.565  12.685  68.430  1.00  0.00    -0.258 C  
HETATM   10  O   UNL     1      -9.477   2.695  66.682  1.00  0.00    -0.053 OA 
HETATM   11  H   UNL     1     -12.548   9.642  67.740  1.00  0.00     0.000 HD 
HETATM   12  C   UNL     1      -9.704   8.977  66.334  1.00  0.00    -0.337 C  
HETATM   13  C   UNL     1      -8.826   8.124  67.435  1.00  0.00    -0.131 C  
HETATM   14  C   UNL     1      -8.822   6.590  67.274  1.00  0.00    -0.112 C  
HETATM   15  C   UNL     1      -8.472   5.763  68.293  1.00  0.00    -0.113 C  
HETATM   16  C   UNL     1      -8.078   6.243  69.685  1.00  0.00    -0.120 C  
HETATM   17  C   UNL     1      -8.382   4.258  68.146  1.00  0.00    -0.097 C  
HETATM   18  C   UNL     1      -7.764   7.754  69.801  1.00  0.00    -0.097 C  
HETATM   19  C   UNL     1      -8.908   3.779  66.811  1.00  0.00    -0.126 C  
HETATM   20  C   UNL     1      -6.333   7.969  69.274  1.00  0.00    -0.035 C  
HETATM   21  C   UNL     1      -8.897   8.513  69.070  1.00  0.00    -0.145 C  
HETATM   22  C   UNL     1      -8.563   4.638  65.631  1.00  0.00    -0.124 C  
ENDROOT
BRANCH   4  23
HETATM   23  C   UNL     1     -11.402  10.274  69.803  1.00  0.00    -0.334 C  
HETATM   24  C   UNL     1     -12.050  10.387  70.809  1.00  0.00    -0.463 C  
ENDBRANCH   4  23
TORSDOF 1
ENDMDL
MODEL       78
REMARK 921   NORMALIZED FREE ENERGY PREDICTED BY IDOCK:   -3.87 KCAL/MOL
REMARK 922        TOTAL FREE ENERGY PREDICTED BY IDOCK:   -4.11 KCAL/MOL
REMARK 923 INTER-LIGAND FREE ENERGY PREDICTED BY IDOCK:   -4.09 KCAL/MOL
REMARK 924 INTRA-LIGAND FREE ENERGY PREDICTED BY IDOCK:   -0.02 KCAL/MOL
REMARK 927      BINDING AFFINITY PREDICTED BY RF-SCORE:    0.00 PKD
ROOT
HETATM    1  C   UNL     1      -9.361   7.490  66.545  1.00  0.00    -0.231 C  
HETATM    2  C   UNL     1      -8.792   8.685  66.042  1.00  0.00    -0.213 C  
HETATM    3  C   UNL     1      -7.942   7.826  66.902  1.00  0.00    -0.112 C  
HETATM    4  C   UNL     1      -8.677   5.911  67.131  1.00  0.00    -0.108 C  
HETATM    5  C   UNL     1      -7.768   6.391  66.231  1.00  0.00    -0.099 C  
HETATM    6  C   UNL     1      -8.095   7.015  71.993  1.00  0.00    -0.097 C  
HETATM    7  O   UNL     1      -8.037   4.726  67.612  1.00  0.00    -0.096 OA 
HETATM    8  C   UNL     1      -6.482   6.344  67.585  1.00  0.00    -0.052 C  
HETATM    9  C   UNL     1      -7.387   5.952  64.845  1.00  0.00    -0.073 C  
HETATM   10  O   UNL     1     -10.402   6.640  74.565  1.00  0.00    -0.328 OA 
HETATM   11  H   UNL     1      -8.376   3.845  67.717  1.00  0.00     0.000 HD 
HETATM   12  C   UNL     1      -7.191   6.499  69.151  1.00  0.00    -0.091 C  
HETATM   13  C   UNL     1      -8.479   7.479  69.459  1.00  0.00    -0.132 C  
HETATM   14  C   UNL     1      -9.051   7.434  70.891  1.00  0.00    -0.154 C  
HETATM   15  C   UNL     1     -10.301   7.879  71.177  1.00  0.00    -0.225 C  
HETATM   16  C   UNL     1     -11.267   8.437  70.139  1.00  0.00    -0.136 C  
HETATM   17  C   UNL     1     -10.865   7.923  72.584  1.00  0.00    -0.428 C  
HETATM   18  C   UNL     1     -10.638   8.792  68.771  1.00  0.00    -0.174 C  
HETATM   19  C   UNL     1      -9.960   7.241  73.586  1.00  0.00    -0.330 C  
HETATM   20  C   UNL     1      -9.945  10.159  68.923  1.00  0.00    -0.207 C  
HETATM   21  C   UNL     1      -9.743   7.599  68.357  1.00  0.00    -0.164 C  
HETATM   22  C   UNL     1      -8.489   7.469  73.394  1.00  0.00    -0.196 C  
ENDROOT
BRANCH   4  23
HETATM   23  C   UNL     1      -9.794   5.227  66.287  1.00  0.00    -0.202 C  
HETATM   24  C   UNL     1     -10.660   4.663  65.672  1.00  0.00    -0.241 C  
ENDBRANCH   4  23
TORSDOF 1
ENDMDL
MODEL       79
REMARK 921   NORMALIZED FREE ENERGY PREDICTED BY IDOCK:   -3.85 KCAL/MOL
REMARK 922        TOTAL FREE ENERGY PREDICTED BY IDOCK:   -4.09 KCAL/MOL
REMARK 923 INTER-LIGAND FREE ENERGY PREDICTED BY IDOCK:   -4.07 KCAL/MOL
REMARK 924 INTRA-LIGAND FREE ENERGY PREDICTED BY IDOCK:   -0.02 KCAL/MOL
REMARK 927      BINDING AFFINITY PREDICTED BY RF-SCORE:    0.00 PKD
ROOT
HETATM    1  C   UNL     1     -10.431   9.696  68.550  1.00  0.00    -0.241 C  
HETATM    2  C   UNL     1     -11.132  10.489  69.490  1.00  0.00    -0.320 C  
HETATM    3  C   UNL     1      -9.708  10.184  69.772  1.00  0.00    -0.232 C  
HETATM    4  C   UNL     1      -8.676   9.492  68.124  1.00  0.00    -0.120 C  
HETATM    5  C   UNL     1      -8.789  10.765  68.608  1.00  0.00    -0.152 C  
HETATM    6  C   UNL     1      -7.480   5.789  71.294  1.00  0.00    -0.095 C  
HETATM    7  O   UNL     1      -7.269   9.374  67.897  1.00  0.00    -0.081 OA 
HETATM    8  C   UNL     1      -7.528  10.325  69.913  1.00  0.00    -0.165 C  
HETATM    9  C   UNL     1      -8.714  12.111  67.943  1.00  0.00    -0.176 C  
HETATM   10  O   UNL     1      -7.709   2.361  70.766  1.00  0.00    -0.039 OA 
HETATM   11  H   UNL     1      -6.794   9.056  67.139  1.00  0.00     0.000 HD 
HETATM   12  C   UNL     1      -7.532   8.635  70.266  1.00  0.00    -0.066 C  
HETATM   13  C   UNL     1      -8.907   7.730  70.305  1.00  0.00    -0.144 C  
HETATM   14  C   UNL     1      -8.729   6.216  70.545  1.00  0.00    -0.142 C  
HETATM   15  C   UNL     1      -9.701   5.322  70.232  1.00  0.00    -0.261 C  
HETATM   16  C   UNL     1     -11.035   5.698  69.599  1.00  0.00    -0.292 C  
HETATM   17  C   UNL     1      -9.591   3.839  70.527  1.00  0.00    -0.262 C  
HETATM   18  C   UNL     1     -11.383   7.206  69.632  1.00  0.00    -0.109 C  
HETATM   19  C   UNL     1      -8.215   3.454  71.023  1.00  0.00    -0.065 C  
HETATM   20  C   UNL     1     -11.913   7.525  71.042  1.00  0.00    -0.317 C  
HETATM   21  C   UNL     1     -10.123   7.975  69.169  1.00  0.00    -0.202 C  
HETATM   22  C   UNL     1      -7.569   4.424  71.967  1.00  0.00    -0.080 C  
ENDROOT
BRANCH   4  23
HETATM   23  C   UNL     1      -9.131   9.559  66.636  1.00  0.00    -0.179 C  
HETATM   24  C   UNL     1      -9.443   9.579  65.474  1.00  0.00    -0.334 C  
ENDBRANCH   4  23
TORSDOF 1
ENDMDL
MODEL       80
REMARK 921   NORMALIZED FREE ENERGY PREDICTED BY IDOCK:   -3.84 KCAL/MOL
REMARK 922        TOTAL FREE ENERGY PREDICTED BY IDOCK:   -4.08 KCAL/MOL
REMARK 923 INTER-LIGAND FREE ENERGY PREDICTED BY IDOCK:   -4.09 KCAL/MOL
REMARK 924 INTRA-LIGAND FREE ENERGY PREDICTED BY IDOCK:    0.01 KCAL/MOL
REMARK 927      BINDING AFFINITY PREDICTED BY RF-SCORE:    0.00 PKD
ROOT
HETATM    1  C   UNL     1      -9.777   4.311  70.426  1.00  0.00    -0.280 C  
HETATM    2  C   UNL     1      -9.134   3.249  69.748  1.00  0.00    -0.200 C  
HETATM    3  C   UNL     1      -8.298   4.393  70.187  1.00  0.00    -0.079 C  
HETATM    4  C   UNL     1      -9.221   5.594  71.588  1.00  0.00    -0.142 C  
HETATM    5  C   UNL     1      -8.370   4.540  71.771  1.00  0.00    -0.108 C  
HETATM    6  C   UNL     1      -7.968   9.188  68.317  1.00  0.00    -0.103 C  
HETATM    7  O   UNL     1      -8.675   6.586  72.461  1.00  0.00    -0.126 OA 
HETATM    8  C   UNL     1      -6.954   5.679  71.341  1.00  0.00    -0.071 C  
HETATM    9  C   UNL     1      -8.202   3.558  72.896  1.00  0.00    -0.081 C  
HETATM   10  O   UNL     1      -9.998  11.678  66.990  1.00  0.00    -0.200 OA 
HETATM   11  H   UNL     1      -9.100   7.139  73.105  1.00  0.00     0.000 HD 
HETATM   12  C   UNL     1      -7.458   6.974  70.316  1.00  0.00    -0.086 C  
HETATM   13  C   UNL     1      -8.579   6.789  69.123  1.00  0.00    -0.131 C  
HETATM   14  C   UNL     1      -8.987   8.064  68.357  1.00  0.00    -0.133 C  
HETATM   15  C   UNL     1     -10.136   8.131  67.637  1.00  0.00    -0.267 C  
HETATM   16  C   UNL     1     -11.142   6.991  67.527  1.00  0.00    -0.231 C  
HETATM   17  C   UNL     1     -10.528   9.339  66.810  1.00  0.00    -0.263 C  
HETATM   18  C   UNL     1     -10.634   5.610  68.005  1.00  0.00    -0.260 C  
HETATM   19  C   UNL     1      -9.602  10.513  67.035  1.00  0.00    -0.173 C  
HETATM   20  C   UNL     1      -9.773   5.018  66.874  1.00  0.00    -0.182 C  
HETATM   21  C   UNL     1      -9.937   5.828  69.370  1.00  0.00    -0.244 C  
HETATM   22  C   UNL     1      -8.146  10.176  67.170  1.00  0.00    -0.120 C  
ENDROOT
BRANCH   4  23
HETATM   23  C   UNL     1     -10.499   5.259  72.415  1.00  0.00    -0.268 C  
HETATM   24  C   UNL     1     -11.513   5.017  73.013  1.00  0.00    -0.344 C  
ENDBRANCH   4  23
TORSDOF 1
ENDMDL
MODEL       81
REMARK 921   NORMALIZED FREE ENERGY PREDICTED BY IDOCK:   -3.77 KCAL/MOL
REMARK 922        TOTAL FREE ENERGY PREDICTED BY IDOCK:   -4.00 KCAL/MOL
REMARK 923 INTER-LIGAND FREE ENERGY PREDICTED BY IDOCK:   -4.01 KCAL/MOL
REMARK 924 INTRA-LIGAND FREE ENERGY PREDICTED BY IDOCK:    0.01 KCAL/MOL
REMARK 927      BINDING AFFINITY PREDICTED BY RF-SCORE:    0.00 PKD
ROOT
HETATM    1  C   UNL     1      -8.600   6.612  71.979  1.00  0.00    -0.123 C  
HETATM    2  C   UNL     1      -8.815   7.606  72.963  1.00  0.00    -0.220 C  
HETATM    3  C   UNL     1      -9.894   7.371  71.973  1.00  0.00    -0.191 C  
HETATM    4  C   UNL     1      -9.695   5.590  70.950  1.00  0.00    -0.176 C  
HETATM    5  C   UNL     1     -10.410   5.868  72.081  1.00  0.00    -0.241 C  
HETATM    6  C   UNL     1     -10.162   8.621  66.976  1.00  0.00    -0.360 C  
HETATM    7  O   UNL     1     -10.641   4.867  70.157  1.00  0.00    -0.184 OA 
HETATM    8  C   UNL     1     -11.717   6.648  70.998  1.00  0.00    -0.415 C  
HETATM    9  C   UNL     1     -10.837   5.016  73.243  1.00  0.00    -0.356 C  
HETATM   10  O   UNL     1      -8.138   8.781  64.156  1.00  0.00    -0.147 OA 
HETATM   11  H   UNL     1     -10.550   4.048  69.687  1.00  0.00     0.000 HD 
HETATM   12  C   UNL     1     -11.055   7.245  69.520  1.00  0.00    -0.129 C  
HETATM   13  C   UNL     1      -9.570   7.949  69.421  1.00  0.00    -0.160 C  
HETATM   14  C   UNL     1      -9.087   8.344  68.010  1.00  0.00    -0.140 C  
HETATM   15  C   UNL     1      -7.776   8.573  67.740  1.00  0.00    -0.103 C  
HETATM   16  C   UNL     1      -6.657   8.442  68.766  1.00  0.00    -0.054 C  
HETATM   17  C   UNL     1      -7.277   9.039  66.387  1.00  0.00    -0.087 C  
HETATM   18  C   UNL     1      -7.117   8.361  70.241  1.00  0.00    -0.040 C  
HETATM   19  C   UNL     1      -8.368   9.030  65.339  1.00  0.00    -0.144 C  
HETATM   20  C   UNL     1      -7.433   9.795  70.705  1.00  0.00    -0.050 C  
HETATM   21  C   UNL     1      -8.275   7.336  70.303  1.00  0.00    -0.133 C  
HETATM   22  C   UNL     1      -9.719   9.488  65.804  1.00  0.00    -0.357 C  
ENDROOT
BRANCH   4  23
HETATM   23  C   UNL     1      -8.763   4.397  71.316  1.00  0.00    -0.135 C  
HETATM   24  C   UNL     1      -8.007   3.496  71.569  1.00  0.00    -0.061 C  
ENDBRANCH   4  23
TORSDOF 1
ENDMDL
MODEL       82
REMARK 921   NORMALIZED FREE ENERGY PREDICTED BY IDOCK:   -3.76 KCAL/MOL
REMARK 922        TOTAL FREE ENERGY PREDICTED BY IDOCK:   -3.99 KCAL/MOL
REMARK 923 INTER-LIGAND FREE ENERGY PREDICTED BY IDOCK:   -3.99 KCAL/MOL
REMARK 924 INTRA-LIGAND FREE ENERGY PREDICTED BY IDOCK:    0.00 KCAL/MOL
REMARK 927      BINDING AFFINITY PREDICTED BY RF-SCORE:    0.00 PKD
ROOT
HETATM    1  C   UNL     1      -8.562   7.445  71.434  1.00  0.00    -0.118 C  
HETATM    2  C   UNL     1      -8.815   8.834  71.338  1.00  0.00    -0.292 C  
HETATM    3  C   UNL     1      -9.894   7.906  70.917  1.00  0.00    -0.192 C  
HETATM    4  C   UNL     1      -9.617   5.973  71.582  1.00  0.00    -0.151 C  
HETATM    5  C   UNL     1     -10.331   6.992  72.146  1.00  0.00    -0.214 C  
HETATM    6  C   UNL     1     -10.288   4.940  66.717  1.00  0.00    -0.264 C  
HETATM    7  O   UNL     1     -10.536   4.879  71.654  1.00  0.00    -0.193 OA 
HETATM    8  C   UNL     1     -11.689   6.654  70.910  1.00  0.00    -0.431 C  
HETATM    9  C   UNL     1     -10.699   7.304  73.570  1.00  0.00    -0.367 C  
HETATM   10  O   UNL     1      -8.311   2.960  64.655  1.00  0.00    -0.086 OA 
HETATM   11  H   UNL     1     -10.409   3.989  71.960  1.00  0.00     0.000 HD 
HETATM   12  C   UNL     1     -11.078   5.942  69.461  1.00  0.00    -0.403 C  
HETATM   13  C   UNL     1      -9.631   6.363  68.796  1.00  0.00    -0.127 C  
HETATM   14  C   UNL     1      -9.187   5.567  67.552  1.00  0.00    -0.110 C  
HETATM   15  C   UNL     1      -7.893   5.542  67.141  1.00  0.00    -0.101 C  
HETATM   16  C   UNL     1      -6.756   6.259  67.859  1.00  0.00    -0.064 C  
HETATM   17  C   UNL     1      -7.436   4.836  65.880  1.00  0.00    -0.078 C  
HETATM   18  C   UNL     1      -7.192   7.311  68.907  1.00  0.00    -0.090 C  
HETATM   19  C   UNL     1      -8.538   4.013  65.252  1.00  0.00    -0.114 C  
HETATM   20  C   UNL     1      -7.575   8.592  68.143  1.00  0.00    -0.098 C  
HETATM   21  C   UNL     1      -8.296   6.660  69.775  1.00  0.00    -0.132 C  
HETATM   22  C   UNL     1      -9.905   4.632  65.274  1.00  0.00    -0.139 C  
ENDROOT
BRANCH   4  23
HETATM   23  C   UNL     1      -8.621   5.491  72.679  1.00  0.00    -0.124 C  
HETATM   24  C   UNL     1      -7.892   5.098  73.551  1.00  0.00    -0.106 C  
ENDBRANCH   4  23
TORSDOF 1
ENDMDL
MODEL       83
REMARK 921   NORMALIZED FREE ENERGY PREDICTED BY IDOCK:   -3.75 KCAL/MOL
REMARK 922        TOTAL FREE ENERGY PREDICTED BY IDOCK:   -3.98 KCAL/MOL
REMARK 923 INTER-LIGAND FREE ENERGY PREDICTED BY IDOCK:   -3.97 KCAL/MOL
REMARK 924 INTRA-LIGAND FREE ENERGY PREDICTED BY IDOCK:   -0.01 KCAL/MOL
REMARK 927      BINDING AFFINITY PREDICTED BY RF-SCORE:    0.00 PKD
ROOT
HETATM    1  C   UNL     1      -7.399   9.753  68.721  1.00  0.00    -0.074 C  
HETATM    2  C   UNL     1      -7.105   9.956  70.091  1.00  0.00    -0.146 C  
HETATM    3  C   UNL     1      -8.529   9.783  69.709  1.00  0.00    -0.206 C  
HETATM    4  C   UNL     1      -8.781   8.988  67.822  1.00  0.00    -0.125 C  
HETATM    5  C   UNL     1      -8.738   8.356  69.033  1.00  0.00    -0.142 C  
HETATM    6  C   UNL     1     -11.743  13.005  67.282  1.00  0.00    -0.429 C  
HETATM    7  O   UNL     1      -9.934   8.404  67.210  1.00  0.00    -0.185 OA 
HETATM    8  C   UNL     1     -10.498   8.909  69.323  1.00  0.00    -0.234 C  
HETATM    9  C   UNL     1      -8.333   6.967  69.435  1.00  0.00    -0.132 C  
HETATM   10  O   UNL     1     -11.737  15.339  64.707  1.00  0.00    -0.353 OA 
HETATM   11  H   UNL     1     -10.051   8.038  66.342  1.00  0.00     0.000 HD 
HETATM   12  C   UNL     1     -10.870  10.355  68.455  1.00  0.00    -0.278 C  
HETATM   13  C   UNL     1      -9.789  11.580  68.249  1.00  0.00    -0.203 C  
HETATM   14  C   UNL     1     -10.247  12.762  67.370  1.00  0.00    -0.222 C  
HETATM   15  C   UNL     1      -9.360  13.629  66.817  1.00  0.00    -0.269 C  
HETATM   16  C   UNL     1      -7.849  13.522  66.975  1.00  0.00     0.094 C  
HETATM   17  C   UNL     1      -9.779  14.845  66.015  1.00  0.00    -0.358 C  
HETATM   18  C   UNL     1      -7.365  12.560  68.087  1.00  0.00    -0.110 C  
HETATM   19  C   UNL     1     -11.267  14.868  65.743  1.00  0.00    -0.334 C  
HETATM   20  C   UNL     1      -7.497  13.304  69.429  1.00  0.00     0.402 C  
HETATM   21  C   UNL     1      -8.170  11.247  67.937  1.00  0.00    -0.123 C  
HETATM   22  C   UNL     1     -12.142  14.419  66.876  1.00  0.00    -0.386 C  
ENDROOT
BRANCH   4  23
HETATM   23  C   UNL     1      -7.697   8.298  66.941  1.00  0.00    -0.095 C  
HETATM   24  C   UNL     1      -6.880   7.788  66.220  1.00  0.00    -0.062 C  
ENDBRANCH   4  23
TORSDOF 1
ENDMDL
MODEL       84
REMARK 921   NORMALIZED FREE ENERGY PREDICTED BY IDOCK:   -3.73 KCAL/MOL
REMARK 922        TOTAL FREE ENERGY PREDICTED BY IDOCK:   -3.96 KCAL/MOL
REMARK 923 INTER-LIGAND FREE ENERGY PREDICTED BY IDOCK:   -3.95 KCAL/MOL
REMARK 924 INTRA-LIGAND FREE ENERGY PREDICTED BY IDOCK:   -0.01 KCAL/MOL
REMARK 927      BINDING AFFINITY PREDICTED BY RF-SCORE:    0.00 PKD
ROOT
HETATM    1  C   UNL     1      -8.932   7.824  70.724  1.00  0.00    -0.148 C  
HETATM    2  C   UNL     1      -8.162   9.011  70.708  1.00  0.00    -0.213 C  
HETATM    3  C   UNL     1      -9.118   8.794  69.594  1.00  0.00    -0.149 C  
HETATM    4  C   UNL     1     -10.522   7.335  69.991  1.00  0.00    -0.224 C  
HETATM    5  C   UNL     1     -10.601   8.688  70.166  1.00  0.00    -0.235 C  
HETATM    6  C   UNL     1      -8.892   5.546  65.594  1.00  0.00    -0.154 C  
HETATM    7  O   UNL     1     -11.758   7.038  69.336  1.00  0.00    -0.545 OA 
HETATM    8  C   UNL     1     -10.905   8.854  68.331  1.00  0.00    -0.043 C  
HETATM    9  C   UNL     1     -11.391   9.541  71.118  1.00  0.00    -0.440 C  
HETATM   10  O   UNL     1      -7.878   2.308  64.843  1.00  0.00    -0.075 OA 
HETATM   11  H   UNL     1     -12.404   6.366  69.519  1.00  0.00     0.000 HD 
HETATM   12  C   UNL     1     -10.212   7.546  67.443  1.00  0.00    -0.318 C  
HETATM   13  C   UNL     1      -8.771   6.855  67.842  1.00  0.00    -0.121 C  
HETATM   14  C   UNL     1      -8.336   5.636  67.003  1.00  0.00    -0.107 C  
HETATM   15  C   UNL     1      -7.396   4.761  67.445  1.00  0.00    -0.074 C  
HETATM   16  C   UNL     1      -6.699   4.866  68.797  1.00  0.00    -0.050 C  
HETATM   17  C   UNL     1      -6.888   3.599  66.615  1.00  0.00    -0.054 C  
HETATM   18  C   UNL     1      -6.865   6.222  69.524  1.00  0.00    -0.065 C  
HETATM   19  C   UNL     1      -7.680   3.417  65.339  1.00  0.00    -0.081 C  
HETATM   20  C   UNL     1      -5.872   7.212  68.886  1.00  0.00    -0.019 C  
HETATM   21  C   UNL     1      -8.365   6.597  69.454  1.00  0.00    -0.128 C  
HETATM   22  C   UNL     1      -8.080   4.681  64.637  1.00  0.00    -0.104 C  
ENDROOT
BRANCH   4  23
HETATM   23  C   UNL     1     -10.855   6.705  71.377  1.00  0.00    -0.282 C  
HETATM   24  C   UNL     1     -11.119   6.174  72.423  1.00  0.00    -0.316 C  
ENDBRANCH   4  23
TORSDOF 1
ENDMDL
MODEL       85
REMARK 921   NORMALIZED FREE ENERGY PREDICTED BY IDOCK:   -3.66 KCAL/MOL
REMARK 922        TOTAL FREE ENERGY PREDICTED BY IDOCK:   -3.89 KCAL/MOL
REMARK 923 INTER-LIGAND FREE ENERGY PREDICTED BY IDOCK:   -3.88 KCAL/MOL
REMARK 924 INTRA-LIGAND FREE ENERGY PREDICTED BY IDOCK:   -0.01 KCAL/MOL
REMARK 927      BINDING AFFINITY PREDICTED BY RF-SCORE:    0.00 PKD
ROOT
HETATM    1  C   UNL     1      -8.910   4.821  66.399  1.00  0.00    -0.113 C  
HETATM    2  C   UNL     1      -8.760   5.798  65.386  1.00  0.00    -0.122 C  
HETATM    3  C   UNL     1      -7.751   5.772  66.474  1.00  0.00    -0.100 C  
HETATM    4  C   UNL     1      -7.771   4.022  67.568  1.00  0.00    -0.075 C  
HETATM    5  C   UNL     1      -7.006   4.364  66.488  1.00  0.00    -0.059 C  
HETATM    6  C   UNL     1      -8.129   7.239  71.404  1.00  0.00    -0.102 C  
HETATM    7  O   UNL     1      -6.802   3.486  68.473  1.00  0.00    -0.045 OA 
HETATM    8  C   UNL     1      -5.936   5.379  67.633  1.00  0.00    -0.025 C  
HETATM    9  C   UNL     1      -6.353   3.545  65.411  1.00  0.00    -0.032 C  
HETATM   10  O   UNL     1     -10.401   7.191  74.033  1.00  0.00    -0.349 OA 
HETATM   11  H   UNL     1      -6.810   2.681  68.976  1.00  0.00     0.000 HD 
HETATM   12  C   UNL     1      -6.812   5.921  69.019  1.00  0.00    -0.062 C  
HETATM   13  C   UNL     1      -8.389   6.390  68.956  1.00  0.00    -0.118 C  
HETATM   14  C   UNL     1      -9.052   6.760  70.299  1.00  0.00    -0.153 C  
HETATM   15  C   UNL     1     -10.402   6.792  70.447  1.00  0.00    -0.223 C  
HETATM   16  C   UNL     1     -11.391   6.450  69.339  1.00  0.00    -0.443 C  
HETATM   17  C   UNL     1     -11.086   7.227  71.728  1.00  0.00    -0.265 C  
HETATM   18  C   UNL     1     -10.792   6.385  67.913  1.00  0.00    -0.404 C  
HETATM   19  C   UNL     1     -10.105   7.428  72.862  1.00  0.00    -0.244 C  
HETATM   20  C   UNL     1     -10.655   7.831  67.404  1.00  0.00    -0.345 C  
HETATM   21  C   UNL     1      -9.492   5.550  68.002  1.00  0.00    -0.129 C  
HETATM   22  C   UNL     1      -8.803   8.072  72.488  1.00  0.00    -0.237 C  
ENDROOT
BRANCH   4  23
HETATM   23  C   UNL     1      -8.474   2.685  67.187  1.00  0.00    -0.107 C  
HETATM   24  C   UNL     1      -8.986   1.628  66.926  1.00  0.00    -0.126 C  
ENDBRANCH   4  23
TORSDOF 1
ENDMDL
MODEL       86
REMARK 921   NORMALIZED FREE ENERGY PREDICTED BY IDOCK:   -3.61 KCAL/MOL
REMARK 922        TOTAL FREE ENERGY PREDICTED BY IDOCK:   -3.83 KCAL/MOL
REMARK 923 INTER-LIGAND FREE ENERGY PREDICTED BY IDOCK:   -3.87 KCAL/MOL
REMARK 924 INTRA-LIGAND FREE ENERGY PREDICTED BY IDOCK:    0.03 KCAL/MOL
REMARK 927      BINDING AFFINITY PREDICTED BY RF-SCORE:    0.00 PKD
ROOT
HETATM    1  C   UNL     1      -9.026  12.666  67.110  1.00  0.00    -0.205 C  
HETATM    2  C   UNL     1      -9.075  12.012  68.365  1.00  0.00    -0.158 C  
HETATM    3  C   UNL     1      -9.804  13.297  68.228  1.00  0.00    -0.231 C  
HETATM    4  C   UNL     1     -10.094  13.871  66.267  1.00  0.00    -0.300 C  
HETATM    5  C   UNL     1     -10.920  13.168  67.099  1.00  0.00    -0.289 C  
HETATM    6  C   UNL     1      -8.019  18.127  67.931  1.00  0.00    -0.249 C  
HETATM    7  O   UNL     1     -10.977  14.848  65.710  1.00  0.00    -0.326 OA 
HETATM    8  C   UNL     1     -11.381  14.783  67.917  1.00  0.00    -0.331 C  
HETATM    9  C   UNL     1     -11.993  12.150  66.837  1.00  0.00    -0.164 C  
HETATM   10  O   UNL     1      -5.387  19.916  66.533  1.00  0.00    -0.166 OA 
HETATM   11  H   UNL     1     -11.111  15.112  64.808  1.00  0.00     0.000 HD 
HETATM   12  C   UNL     1     -10.123  15.957  67.777  1.00  0.00    -0.244 C  
HETATM   13  C   UNL     1      -8.524  15.573  67.865  1.00  0.00    -0.146 C  
HETATM   14  C   UNL     1      -7.525  16.724  67.628  1.00  0.00    -0.170 C  
HETATM   15  C   UNL     1      -6.228  16.491  67.300  1.00  0.00    -0.209 C  
HETATM   16  C   UNL     1      -5.632  15.102  67.109  1.00  0.00     0.635 C  
HETATM   17  C   UNL     1      -5.202  17.595  67.138  1.00  0.00    -0.155 C  
HETATM   18  C   UNL     1      -6.496  13.932  67.638  1.00  0.00    -0.161 C  
HETATM   19  C   UNL     1      -5.827  18.971  67.189  1.00  0.00    -0.156 C  
HETATM   20  C   UNL     1      -6.289  13.858  69.162  1.00  0.00    -0.107 C  
HETATM   21  C   UNL     1      -7.942  14.171  67.141  1.00  0.00    -0.100 C  
HETATM   22  C   UNL     1      -6.922  19.151  68.200  1.00  0.00    -0.280 C  
ENDROOT
BRANCH   4  23
HETATM   23  C   UNL     1      -9.918  12.988  64.996  1.00  0.00    -0.158 C  
HETATM   24  C   UNL     1      -9.822  12.278  64.029  1.00  0.00    -0.194 C  
ENDBRANCH   4  23
TORSDOF 1
ENDMDL
MODEL       87
REMARK 921   NORMALIZED FREE ENERGY PREDICTED BY IDOCK:   -3.44 KCAL/MOL
REMARK 922        TOTAL FREE ENERGY PREDICTED BY IDOCK:   -3.66 KCAL/MOL
REMARK 923 INTER-LIGAND FREE ENERGY PREDICTED BY IDOCK:   -3.65 KCAL/MOL
REMARK 924 INTRA-LIGAND FREE ENERGY PREDICTED BY IDOCK:   -0.01 KCAL/MOL
REMARK 927      BINDING AFFINITY PREDICTED BY RF-SCORE:    0.00 PKD
ROOT
HETATM    1  C   UNL     1      -8.544   9.151  64.918  1.00  0.00    -0.208 C  
HETATM    2  C   UNL     1      -8.683  10.534  65.185  1.00  0.00    -0.197 C  
HETATM    3  C   UNL     1      -7.587   9.806  65.872  1.00  0.00    -0.103 C  
HETATM    4  C   UNL     1      -7.164   7.973  65.024  1.00  0.00    -0.069 C  
HETATM    5  C   UNL     1      -6.588   9.191  64.794  1.00  0.00    -0.074 C  
HETATM    6  C   UNL     1      -7.759   6.422  69.760  1.00  0.00    -0.109 C  
HETATM    7  O   UNL     1      -6.026   7.121  65.183  1.00  0.00    -0.036 OA 
HETATM    8  C   UNL     1      -5.627   8.976  66.381  1.00  0.00    -0.049 C  
HETATM    9  C   UNL     1      -5.897   9.774  63.594  1.00  0.00    -0.108 C  
HETATM   10  O   UNL     1      -9.713   3.794  70.923  1.00  0.00    -0.180 OA 
HETATM   11  H   UNL     1      -5.831   6.277  64.793  1.00  0.00     0.000 HD 
HETATM   12  C   UNL     1      -6.451   7.950  67.498  1.00  0.00    -0.056 C  
HETATM   13  C   UNL     1      -8.088   7.955  67.681  1.00  0.00    -0.124 C  
HETATM   14  C   UNL     1      -8.676   6.914  68.655  1.00  0.00    -0.122 C  
HETATM   15  C   UNL     1      -9.985   6.556  68.617  1.00  0.00    -0.155 C  
HETATM   16  C   UNL     1     -10.993   7.110  67.617  1.00  0.00    -0.226 C  
HETATM   17  C   UNL     1     -10.612   5.597  69.609  1.00  0.00    -0.401 C  
HETATM   18  C   UNL     1     -10.535   8.370  66.843  1.00  0.00    -0.359 C  
HETATM   19  C   UNL     1      -9.583   4.945  70.506  1.00  0.00    -0.184 C  
HETATM   20  C   UNL     1     -10.728   9.580  67.775  1.00  0.00    -0.302 C  
HETATM   21  C   UNL     1      -9.095   8.098  66.342  1.00  0.00    -0.226 C  
HETATM   22  C   UNL     1      -8.471   5.837  70.974  1.00  0.00    -0.123 C  
ENDROOT
BRANCH   4  23
HETATM   23  C   UNL     1      -7.631   7.452  63.632  1.00  0.00    -0.121 C  
HETATM   24  C   UNL     1      -8.015   7.011  62.580  1.00  0.00    -0.116 C  
ENDBRANCH   4  23
TORSDOF 1
ENDMDL
MODEL       88
REMARK 921   NORMALIZED FREE ENERGY PREDICTED BY IDOCK:   -3.41 KCAL/MOL
REMARK 922        TOTAL FREE ENERGY PREDICTED BY IDOCK:   -3.63 KCAL/MOL
REMARK 923 INTER-LIGAND FREE ENERGY PREDICTED BY IDOCK:   -3.63 KCAL/MOL
REMARK 924 INTRA-LIGAND FREE ENERGY PREDICTED BY IDOCK:   -0.00 KCAL/MOL
REMARK 927      BINDING AFFINITY PREDICTED BY RF-SCORE:    0.00 PKD
ROOT
HETATM    1  C   UNL     1      -6.335   7.821  69.687  1.00  0.00    -0.031 C  
HETATM    2  C   UNL     1      -5.624   6.681  70.131  1.00  0.00    -0.019 C  
HETATM    3  C   UNL     1      -6.798   6.460  69.252  1.00  0.00    -0.065 C  
HETATM    4  C   UNL     1      -7.415   8.165  68.266  1.00  0.00    -0.097 C  
HETATM    5  C   UNL     1      -6.566   7.179  67.849  1.00  0.00    -0.053 C  
HETATM    6  C   UNL     1     -11.839   6.878  70.257  1.00  0.00    -0.311 C  
HETATM    7  O   UNL     1      -8.283   8.319  67.140  1.00  0.00    -0.116 OA 
HETATM    8  C   UNL     1      -8.060   6.115  67.497  1.00  0.00    -0.109 C  
HETATM    9  C   UNL     1      -5.419   7.174  66.878  1.00  0.00    -0.022 C  
HETATM   10  O   UNL     1     -14.044   8.879  72.050  1.00  0.00    -0.421 OA 
HETATM   11  H   UNL     1      -8.567   9.104  66.686  1.00  0.00     0.000 HD 
HETATM   12  C   UNL     1      -9.404   6.545  68.491  1.00  0.00    -0.123 C  
HETATM   13  C   UNL     1      -9.246   7.009  70.063  1.00  0.00    -0.148 C  
HETATM   14  C   UNL     1     -10.536   7.449  70.785  1.00  0.00    -0.221 C  
HETATM   15  C   UNL     1     -10.503   8.194  71.920  1.00  0.00    -0.312 C  
HETATM   16  C   UNL     1      -9.222   8.691  72.578  1.00  0.00    -0.204 C  
HETATM   17  C   UNL     1     -11.747   8.576  72.697  1.00  0.00    -0.301 C  
HETATM   18  C   UNL     1      -7.918   8.020  72.081  1.00  0.00    -0.154 C  
HETATM   19  C   UNL     1     -13.018   8.204  71.966  1.00  0.00    -0.305 C  
HETATM   20  C   UNL     1      -7.804   6.656  72.786  1.00  0.00    -0.100 C  
HETATM   21  C   UNL     1      -7.975   8.004  70.535  1.00  0.00    -0.096 C  
HETATM   22  C   UNL     1     -12.994   6.884  71.253  1.00  0.00    -0.309 C  
ENDROOT
BRANCH   4  23
HETATM   23  C   UNL     1      -6.626   9.500  68.116  1.00  0.00    -0.062 C  
HETATM   24  C   UNL     1      -6.050  10.552  68.033  1.00  0.00    -0.047 C  
ENDBRANCH   4  23
TORSDOF 1
ENDMDL
MODEL       89
REMARK 921   NORMALIZED FREE ENERGY PREDICTED BY IDOCK:   -3.40 KCAL/MOL
REMARK 922        TOTAL FREE ENERGY PREDICTED BY IDOCK:   -3.61 KCAL/MOL
REMARK 923 INTER-LIGAND FREE ENERGY PREDICTED BY IDOCK:   -3.65 KCAL/MOL
REMARK 924 INTRA-LIGAND FREE ENERGY PREDICTED BY IDOCK:    0.03 KCAL/MOL
REMARK 927      BINDING AFFINITY PREDICTED BY RF-SCORE:    0.00 PKD
ROOT
HETATM    1  C   UNL     1     -10.157  12.153  66.787  1.00  0.00    -0.218 C  
HETATM    2  C   UNL     1     -11.328  12.133  65.993  1.00  0.00    -0.410 C  
HETATM    3  C   UNL     1     -11.226  11.145  67.095  1.00  0.00    -0.320 C  
HETATM    4  C   UNL     1      -9.760  11.603  68.473  1.00  0.00    -0.184 C  
HETATM    5  C   UNL     1     -11.093  11.903  68.490  1.00  0.00    -0.290 C  
HETATM    6  C   UNL     1      -8.341   6.889  67.497  1.00  0.00    -0.123 C  
HETATM    7  O   UNL     1      -9.541  11.099  69.794  1.00  0.00    -0.208 OA 
HETATM    8  C   UNL     1     -11.425  10.147  69.033  1.00  0.00    -0.138 C  
HETATM    9  C   UNL     1     -11.871  13.023  69.122  1.00  0.00    -0.360 C  
HETATM   10  O   UNL     1      -5.166   5.733  66.683  1.00  0.00    -0.005 OA 
HETATM   11  H   UNL     1      -8.867  11.310  70.428  1.00  0.00     0.000 HD 
HETATM   12  C   UNL     1     -10.190   9.064  68.501  1.00  0.00    -0.224 C  
HETATM   13  C   UNL     1      -9.444   9.203  67.040  1.00  0.00    -0.201 C  
HETATM   14  C   UNL     1      -8.297   8.212  66.755  1.00  0.00    -0.115 C  
HETATM   15  C   UNL     1      -7.372   8.445  65.789  1.00  0.00    -0.073 C  
HETATM   16  C   UNL     1      -7.346   9.694  64.915  1.00  0.00    -0.118 C  
HETATM   17  C   UNL     1      -6.280   7.457  65.429  1.00  0.00    -0.038 C  
HETATM   18  C   UNL     1      -8.635  10.550  64.944  1.00  0.00    -0.179 C  
HETATM   19  C   UNL     1      -6.224   6.290  66.389  1.00  0.00    -0.037 C  
HETATM   20  C   UNL     1      -9.661   9.870  64.018  1.00  0.00    -0.137 C  
HETATM   21  C   UNL     1      -9.038  10.717  66.429  1.00  0.00    -0.183 C  
HETATM   22  C   UNL     1      -7.552   5.760  66.845  1.00  0.00    -0.099 C  
ENDROOT
BRANCH   4  23
HETATM   23  C   UNL     1      -9.015  12.962  68.635  1.00  0.00     0.048 C  
HETATM   24  C   UNL     1      -8.486  14.034  68.765  1.00  0.00    -0.038 C  
ENDBRANCH   4  23
TORSDOF 1
ENDMDL
MODEL       90
REMARK 921   NORMALIZED FREE ENERGY PREDICTED BY IDOCK:   -3.30 KCAL/MOL
REMARK 922        TOTAL FREE ENERGY PREDICTED BY IDOCK:   -3.51 KCAL/MOL
REMARK 923 INTER-LIGAND FREE ENERGY PREDICTED BY IDOCK:   -3.51 KCAL/MOL
REMARK 924 INTRA-LIGAND FREE ENERGY PREDICTED BY IDOCK:    0.01 KCAL/MOL
REMARK 927      BINDING AFFINITY PREDICTED BY RF-SCORE:    0.00 PKD
ROOT
HETATM    1  C   UNL     1     -11.186   8.283  71.840  1.00  0.00    -0.365 C  
HETATM    2  C   UNL     1     -10.055   8.722  72.568  1.00  0.00    -0.117 C  
HETATM    3  C   UNL     1     -10.288   9.321  71.231  1.00  0.00    -0.397 C  
HETATM    4  C   UNL     1     -12.197   9.006  70.513  1.00  0.00     0.132 C  
HETATM    5  C   UNL     1     -11.694  10.069  71.210  1.00  0.00    -0.452 C  
HETATM    6  C   UNL     1      -9.671   7.304  66.524  1.00  0.00    -0.207 C  
HETATM    7  O   UNL     1     -12.901   9.645  69.445  1.00  0.00     0.590 OA 
HETATM    8  C   UNL     1     -10.913  10.670  69.625  1.00  0.00    -0.331 C  
HETATM    9  C   UNL     1     -12.333  11.066  72.135  1.00  0.00     0.691 C  
HETATM   10  O   UNL     1     -10.113   4.301  64.831  1.00  0.00    -0.197 OA 
HETATM   11  H   UNL     1     -13.779   9.500  69.114  1.00  0.00     0.000 HD 
HETATM   12  C   UNL     1     -10.593   9.372  68.532  1.00  0.00    -0.234 C  
HETATM   13  C   UNL     1     -10.086   7.886  69.028  1.00  0.00    -0.204 C  
HETATM   14  C   UNL     1      -9.935   6.809  67.935  1.00  0.00    -0.164 C  
HETATM   15  C   UNL     1      -9.898   5.485  68.233  1.00  0.00    -0.185 C  
HETATM   16  C   UNL     1     -10.024   4.924  69.645  1.00  0.00    -0.302 C  
HETATM   17  C   UNL     1      -9.671   4.406  67.193  1.00  0.00    -0.230 C  
HETATM   18  C   UNL     1      -9.860   5.957  70.785  1.00  0.00    -0.229 C  
HETATM   19  C   UNL     1      -9.688   4.955  65.784  1.00  0.00    -0.169 C  
HETATM   20  C   UNL     1      -8.351   6.202  70.971  1.00  0.00    -0.124 C  
HETATM   21  C   UNL     1     -10.726   7.186  70.417  1.00  0.00    -0.255 C  
HETATM   22  C   UNL     1      -9.019   6.285  65.597  1.00  0.00    -0.035 C  
ENDROOT
BRANCH   4  23
HETATM   23  C   UNL     1     -13.434   8.512  71.322  1.00  0.00    -0.170 C  
HETATM   24  C   UNL     1     -14.376   8.082  71.934  1.00  0.00    -0.559 C  
ENDBRANCH   4  23
TORSDOF 1
ENDMDL
MODEL       91
REMARK 921   NORMALIZED FREE ENERGY PREDICTED BY IDOCK:   -3.30 KCAL/MOL
REMARK 922        TOTAL FREE ENERGY PREDICTED BY IDOCK:   -3.50 KCAL/MOL
REMARK 923 INTER-LIGAND FREE ENERGY PREDICTED BY IDOCK:   -3.48 KCAL/MOL
REMARK 924 INTRA-LIGAND FREE ENERGY PREDICTED BY IDOCK:   -0.02 KCAL/MOL
REMARK 927      BINDING AFFINITY PREDICTED BY RF-SCORE:    0.00 PKD
ROOT
HETATM    1  C   UNL     1      -8.042   7.242  64.693  1.00  0.00    -0.081 C  
HETATM    2  C   UNL     1      -7.321   8.263  64.030  1.00  0.00    -0.103 C  
HETATM    3  C   UNL     1      -6.722   7.682  65.256  1.00  0.00    -0.044 C  
HETATM    4  C   UNL     1      -7.581   5.891  65.817  1.00  0.00    -0.087 C  
HETATM    5  C   UNL     1      -6.474   6.122  65.050  1.00  0.00    -0.038 C  
HETATM    6  C   UNL     1      -8.030   8.279  70.209  1.00  0.00    -0.102 C  
HETATM    7  O   UNL     1      -7.120   4.889  66.728  1.00  0.00    -0.066 OA 
HETATM    8  C   UNL     1      -5.522   6.461  66.620  1.00  0.00    -0.013 C  
HETATM    9  C   UNL     1      -5.819   5.329  63.954  1.00  0.00    -0.017 C  
HETATM   10  O   UNL     1     -10.862   8.583  72.201  1.00  0.00    -0.312 OA 
HETATM   11  H   UNL     1      -7.515   4.065  66.986  1.00  0.00     0.000 HD 
HETATM   12  C   UNL     1      -6.549   7.025  67.887  1.00  0.00    -0.052 C  
HETATM   13  C   UNL     1      -7.825   8.033  67.625  1.00  0.00    -0.122 C  
HETATM   14  C   UNL     1      -8.699   8.370  68.850  1.00  0.00    -0.136 C  
HETATM   15  C   UNL     1      -9.959   8.859  68.718  1.00  0.00    -0.195 C  
HETATM   16  C   UNL     1     -10.646   9.101  67.379  1.00  0.00    -0.315 C  
HETATM   17  C   UNL     1     -10.816   9.275  69.898  1.00  0.00    -0.252 C  
HETATM   18  C   UNL     1      -9.714   9.081  66.144  1.00  0.00    -0.354 C  
HETATM   19  C   UNL     1     -10.187   8.903  71.222  1.00  0.00    -0.291 C  
HETATM   20  C   UNL     1      -9.007  10.447  66.077  1.00  0.00    -0.178 C  
HETATM   21  C   UNL     1      -8.808   7.832  66.275  1.00  0.00    -0.187 C  
HETATM   22  C   UNL     1      -8.701   9.090  71.312  1.00  0.00    -0.240 C  
ENDROOT
BRANCH   4  23
HETATM   23  C   UNL     1      -8.516   4.989  64.958  1.00  0.00    -0.146 C  
HETATM   24  C   UNL     1      -9.245   4.262  64.336  1.00  0.00    -0.155 C  
ENDBRANCH   4  23
TORSDOF 1
ENDMDL
MODEL       92
REMARK 921   NORMALIZED FREE ENERGY PREDICTED BY IDOCK:   -3.24 KCAL/MOL
REMARK 922        TOTAL FREE ENERGY PREDICTED BY IDOCK:   -3.45 KCAL/MOL
REMARK 923 INTER-LIGAND FREE ENERGY PREDICTED BY IDOCK:   -3.47 KCAL/MOL
REMARK 924 INTRA-LIGAND FREE ENERGY PREDICTED BY IDOCK:    0.02 KCAL/MOL
REMARK 927      BINDING AFFINITY PREDICTED BY RF-SCORE:    0.00 PKD
ROOT
HETATM    1  C   UNL     1     -11.246   7.565  69.818  1.00  0.00    -0.072 C  
HETATM    2  C   UNL     1     -11.568   6.368  70.503  1.00  0.00    -0.424 C  
HETATM    3  C   UNL     1     -10.225   6.955  70.735  1.00  0.00    -0.212 C  
HETATM    4  C   UNL     1     -10.072   8.919  70.118  1.00  0.00    -0.190 C  
HETATM    5  C   UNL     1     -10.373   8.416  71.353  1.00  0.00    -0.285 C  
HETATM    6  C   UNL     1      -6.081   7.111  67.669  1.00  0.00    -0.037 C  
HETATM    7  O   UNL     1      -9.086   9.910  70.422  1.00  0.00    -0.351 OA 
HETATM    8  C   UNL     1      -8.554   8.075  71.598  1.00  0.00    -0.162 C  
HETATM    9  C   UNL     1     -11.176   8.963  72.499  1.00  0.00     0.026 C  
HETATM   10  O   UNL     1      -5.258   7.524  64.317  1.00  0.00    -0.029 OA 
HETATM   11  H   UNL     1      -9.016  10.813  70.138  1.00  0.00     0.000 HD 
HETATM   12  C   UNL     1      -7.735   7.836  70.097  1.00  0.00    -0.090 C  
HETATM   13  C   UNL     1      -8.416   7.051  68.820  1.00  0.00    -0.122 C  
HETATM   14  C   UNL     1      -7.588   7.003  67.519  1.00  0.00    -0.109 C  
HETATM   15  C   UNL     1      -8.158   6.737  66.316  1.00  0.00    -0.112 C  
HETATM   16  C   UNL     1      -9.647   6.487  66.113  1.00  0.00    -0.028 C  
HETATM   17  C   UNL     1      -7.362   6.604  65.033  1.00  0.00    -0.082 C  
HETATM   18  C   UNL     1     -10.455   6.213  67.404  1.00  0.00    -0.309 C  
HETATM   19  C   UNL     1      -5.911   6.991  65.214  1.00  0.00    -0.036 C  
HETATM   20  C   UNL     1     -10.217   4.743  67.795  1.00  0.00    -0.077 C  
HETATM   21  C   UNL     1     -10.038   7.286  68.440  1.00  0.00    -0.188 C  
HETATM   22  C   UNL     1      -5.278   6.551  66.501  1.00  0.00    -0.013 C  
ENDROOT
BRANCH   4  23
HETATM   23  C   UNL     1     -11.241   9.882  69.752  1.00  0.00    -0.279 C  
HETATM   24  C   UNL     1     -12.146  10.639  69.519  1.00  0.00    -0.285 C  
ENDBRANCH   4  23
TORSDOF 1
ENDMDL
MODEL       93
REMARK 921   NORMALIZED FREE ENERGY PREDICTED BY IDOCK:   -3.23 KCAL/MOL
REMARK 922        TOTAL FREE ENERGY PREDICTED BY IDOCK:   -3.43 KCAL/MOL
REMARK 923 INTER-LIGAND FREE ENERGY PREDICTED BY IDOCK:   -3.45 KCAL/MOL
REMARK 924 INTRA-LIGAND FREE ENERGY PREDICTED BY IDOCK:    0.02 KCAL/MOL
REMARK 927      BINDING AFFINITY PREDICTED BY RF-SCORE:    0.00 PKD
ROOT
HETATM    1  C   UNL     1      -9.707   8.075  70.290  1.00  0.00    -0.175 C  
HETATM    2  C   UNL     1     -11.082   8.401  70.379  1.00  0.00    -0.240 C  
HETATM    3  C   UNL     1     -10.694   7.290  69.475  1.00  0.00    -0.244 C  
HETATM    4  C   UNL     1      -8.789   6.578  69.823  1.00  0.00    -0.143 C  
HETATM    5  C   UNL     1      -9.986   6.135  70.313  1.00  0.00    -0.226 C  
HETATM    6  C   UNL     1      -8.333   7.390  64.892  1.00  0.00    -0.029 C  
HETATM    7  O   UNL     1      -8.163   5.364  69.398  1.00  0.00    -0.094 OA 
HETATM    8  C   UNL     1     -10.285   5.296  68.671  1.00  0.00    -0.223 C  
HETATM    9  C   UNL     1     -10.358   5.417  71.579  1.00  0.00    -0.289 C  
HETATM   10  O   UNL     1      -5.810   9.108  63.229  1.00  0.00    -0.086 OA 
HETATM   11  H   UNL     1      -7.286   5.037  69.558  1.00  0.00     0.000 HD 
HETATM   12  C   UNL     1      -9.449   6.085  67.384  1.00  0.00    -0.113 C  
HETATM   13  C   UNL     1      -9.272   7.720  67.298  1.00  0.00    -0.162 C  
HETATM   14  C   UNL     1      -8.419   8.260  66.132  1.00  0.00    -0.141 C  
HETATM   15  C   UNL     1      -7.886   9.509  66.153  1.00  0.00    -0.100 C  
HETATM   16  C   UNL     1      -8.045  10.486  67.312  1.00  0.00    -0.115 C  
HETATM   17  C   UNL     1      -7.111  10.100  64.992  1.00  0.00    -0.135 C  
HETATM   18  C   UNL     1      -9.136  10.117  68.345  1.00  0.00    -0.133 C  
HETATM   19  C   UNL     1      -6.837   9.082  63.908  1.00  0.00    -0.088 C  
HETATM   20  C   UNL     1     -10.494  10.534  67.750  1.00  0.00    -0.263 C  
HETATM   21  C   UNL     1      -8.955   8.617  68.685  1.00  0.00    -0.142 C  
HETATM   22  C   UNL     1      -7.958   8.129  63.612  1.00  0.00    -0.140 C  
ENDROOT
BRANCH   4  23
HETATM   23  C   UNL     1      -7.895   6.857  71.069  1.00  0.00    -0.097 C  
HETATM   24  C   UNL     1      -7.211   7.123  72.022  1.00  0.00    -0.076 C  
ENDBRANCH   4  23
TORSDOF 1
ENDMDL
MODEL       94
REMARK 921   NORMALIZED FREE ENERGY PREDICTED BY IDOCK:   -3.23 KCAL/MOL
REMARK 922        TOTAL FREE ENERGY PREDICTED BY IDOCK:   -3.43 KCAL/MOL
REMARK 923 INTER-LIGAND FREE ENERGY PREDICTED BY IDOCK:   -3.41 KCAL/MOL
REMARK 924 INTRA-LIGAND FREE ENERGY PREDICTED BY IDOCK:   -0.02 KCAL/MOL
REMARK 927      BINDING AFFINITY PREDICTED BY RF-SCORE:    0.00 PKD
ROOT
HETATM    1  C   UNL     1      -9.827   8.413  67.328  1.00  0.00    -0.264 C  
HETATM    2  C   UNL     1     -10.381   9.701  67.130  1.00  0.00    -0.319 C  
HETATM    3  C   UNL     1      -8.924   9.611  67.397  1.00  0.00    -0.141 C  
HETATM    4  C   UNL     1      -8.161   7.710  67.147  1.00  0.00    -0.118 C  
HETATM    5  C   UNL     1      -8.218   8.748  66.259  1.00  0.00    -0.115 C  
HETATM    6  C   UNL     1      -6.394   8.560  71.767  1.00  0.00    -0.067 C  
HETATM    7  O   UNL     1      -6.808   7.266  67.014  1.00  0.00    -0.071 OA 
HETATM    8  C   UNL     1      -6.753   9.506  67.134  1.00  0.00    -0.072 C  
HETATM    9  C   UNL     1      -8.278   8.794  64.758  1.00  0.00    -0.163 C  
HETATM   10  O   UNL     1      -6.641   6.513  74.564  1.00  0.00    -0.080 OA 
HETATM   11  H   UNL     1      -6.457   6.392  66.899  1.00  0.00     0.000 HD 
HETATM   12  C   UNL     1      -6.667   9.017  68.787  1.00  0.00    -0.054 C  
HETATM   13  C   UNL     1      -8.000   8.808  69.732  1.00  0.00    -0.095 C  
HETATM   14  C   UNL     1      -7.757   8.279  71.160  1.00  0.00    -0.097 C  
HETATM   15  C   UNL     1      -8.750   7.714  71.894  1.00  0.00    -0.138 C  
HETATM   16  C   UNL     1     -10.176   7.520  71.394  1.00  0.00    -0.201 C  
HETATM   17  C   UNL     1      -8.565   7.256  73.327  1.00  0.00    -0.168 C  
HETATM   18  C   UNL     1     -10.543   8.308  70.113  1.00  0.00    -0.233 C  
HETATM   19  C   UNL     1      -7.120   7.320  73.768  1.00  0.00    -0.079 C  
HETATM   20  C   UNL     1     -10.841   9.758  70.534  1.00  0.00    -0.387 C  
HETATM   21  C   UNL     1      -9.389   8.098  69.102  1.00  0.00    -0.151 C  
HETATM   22  C   UNL     1      -6.347   8.514  73.290  1.00  0.00    -0.109 C  
ENDROOT
BRANCH   4  23
HETATM   23  C   UNL     1      -8.853   6.506  66.441  1.00  0.00    -0.149 C  
HETATM   24  C   UNL     1      -9.358   5.545  65.924  1.00  0.00    -0.140 C  
ENDBRANCH   4  23
TORSDOF 1
ENDMDL
MODEL       95
REMARK 921   NORMALIZED FREE ENERGY PREDICTED BY IDOCK:   -3.09 KCAL/MOL
REMARK 922        TOTAL FREE ENERGY PREDICTED BY IDOCK:   -3.28 KCAL/MOL
REMARK 923 INTER-LIGAND FREE ENERGY PREDICTED BY IDOCK:   -3.29 KCAL/MOL
REMARK 924 INTRA-LIGAND FREE ENERGY PREDICTED BY IDOCK:    0.01 KCAL/MOL
REMARK 927      BINDING AFFINITY PREDICTED BY RF-SCORE:    0.00 PKD
ROOT
HETATM    1  C   UNL     1      -6.051  10.278  67.201  1.00  0.00    -0.055 C  
HETATM    2  C   UNL     1      -5.397   9.773  68.351  1.00  0.00    -0.032 C  
HETATM    3  C   UNL     1      -6.861   9.556  68.238  1.00  0.00    -0.062 C  
HETATM    4  C   UNL     1      -7.590   9.856  66.331  1.00  0.00    -0.101 C  
HETATM    5  C   UNL     1      -7.181   8.699  66.933  1.00  0.00    -0.075 C  
HETATM    6  C   UNL     1     -10.774  12.872  68.770  1.00  0.00    -0.249 C  
HETATM    7  O   UNL     1      -8.838   9.474  65.746  1.00  0.00    -0.145 OA 
HETATM    8  C   UNL     1      -8.815   8.656  67.836  1.00  0.00    -0.137 C  
HETATM    9  C   UNL     1      -6.613   7.419  66.388  1.00  0.00    -0.053 C  
HETATM   10  O   UNL     1     -11.598  16.166  68.028  1.00  0.00    -0.236 OA 
HETATM   11  H   UNL     1      -9.173   9.612  64.869  1.00  0.00     0.000 HD 
HETATM   12  C   UNL     1      -9.483  10.236  68.034  1.00  0.00    -0.156 C  
HETATM   13  C   UNL     1      -8.563  11.566  68.341  1.00  0.00    -0.159 C  
HETATM   14  C   UNL     1      -9.303  12.918  68.400  1.00  0.00    -0.147 C  
HETATM   15  C   UNL     1      -8.649  14.100  68.266  1.00  0.00    -0.175 C  
HETATM   16  C   UNL     1      -7.149  14.223  68.024  1.00  0.00    -0.145 C  
HETATM   17  C   UNL     1      -9.332  15.446  68.397  1.00  0.00    -0.193 C  
HETATM   18  C   UNL     1      -6.330  12.934  68.272  1.00  0.00    -0.085 C  
HETATM   19  C   UNL     1     -10.836  15.319  68.495  1.00  0.00    -0.253 C  
HETATM   20  C   UNL     1      -6.118  12.807  69.792  1.00  0.00    -0.131 C  
HETATM   21  C   UNL     1      -7.081  11.774  67.574  1.00  0.00    -0.113 C  
HETATM   22  C   UNL     1     -11.338  14.175  69.326  1.00  0.00    -0.324 C  
ENDROOT
BRANCH   4  23
HETATM   23  C   UNL     1      -6.761   9.968  65.016  1.00  0.00    -0.128 C  
HETATM   24  C   UNL     1      -6.143  10.011  63.985  1.00  0.00    -0.132 C  
ENDBRANCH   4  23
TORSDOF 1
ENDMDL
MODEL       96
REMARK 921   NORMALIZED FREE ENERGY PREDICTED BY IDOCK:   -2.86 KCAL/MOL
REMARK 922        TOTAL FREE ENERGY PREDICTED BY IDOCK:   -3.04 KCAL/MOL
REMARK 923 INTER-LIGAND FREE ENERGY PREDICTED BY IDOCK:   -3.08 KCAL/MOL
REMARK 924 INTRA-LIGAND FREE ENERGY PREDICTED BY IDOCK:    0.04 KCAL/MOL
REMARK 927      BINDING AFFINITY PREDICTED BY RF-SCORE:    0.00 PKD
ROOT
HETATM    1  C   UNL     1      -8.896  15.308  68.402  1.00  0.00    -0.179 C  
HETATM    2  C   UNL     1      -9.539  15.627  69.621  1.00  0.00    -0.260 C  
HETATM    3  C   UNL     1      -8.390  14.691  69.673  1.00  0.00     0.255 C  
HETATM    4  C   UNL     1      -7.234  14.716  67.963  1.00  0.00    -0.140 C  
HETATM    5  C   UNL     1      -7.078  15.413  69.129  1.00  0.00    -0.161 C  
HETATM    6  C   UNL     1      -8.034   9.766  68.182  1.00  0.00    -0.100 C  
HETATM    7  O   UNL     1      -5.917  14.211  67.729  1.00  0.00    -0.200 OA 
HETATM    8  C   UNL     1      -6.376  13.863  69.898  1.00  0.00    -0.115 C  
HETATM    9  C   UNL     1      -6.440  16.738  69.438  1.00  0.00    -0.229 C  
HETATM   10  O   UNL     1      -9.139   7.662  65.647  1.00  0.00    -0.066 OA 
HETATM   11  H   UNL     1      -5.385  14.222  66.943  1.00  0.00     0.000 HD 
HETATM   12  C   UNL     1      -6.973  12.437  69.132  1.00  0.00    -0.034 C  
HETATM   13  C   UNL     1      -8.520  12.293  68.586  1.00  0.00     0.007 C  
HETATM   14  C   UNL     1      -8.869  10.987  67.842  1.00  0.00    -0.134 C  
HETATM   15  C   UNL     1      -9.954  10.893  67.030  1.00  0.00    -0.227 C  
HETATM   16  C   UNL     1     -10.911  12.044  66.748  1.00  0.00    -0.329 C  
HETATM   17  C   UNL     1     -10.370   9.605  66.348  1.00  0.00    -0.246 C  
HETATM   18  C   UNL     1     -10.789  13.257  67.702  1.00  0.00    -0.273 C  
HETATM   19  C   UNL     1      -9.342   8.508  66.517  1.00  0.00    -0.203 C  
HETATM   20  C   UNL     1     -11.533  12.899  69.001  1.00  0.00    -0.358 C  
HETATM   21  C   UNL     1      -9.282  13.587  67.829  1.00  0.00    -0.213 C  
HETATM   22  C   UNL     1      -8.693   8.428  67.867  1.00  0.00    -0.138 C  
ENDROOT
BRANCH   4  23
HETATM   23  C   UNL     1      -7.261  15.783  66.828  1.00  0.00    -0.002 C  
HETATM   24  C   UNL     1      -7.331  16.616  65.963  1.00  0.00     0.265 C  
ENDBRANCH   4  23
TORSDOF 1
ENDMDL
MODEL       97
REMARK 921   NORMALIZED FREE ENERGY PREDICTED BY IDOCK:   -2.83 KCAL/MOL
REMARK 922        TOTAL FREE ENERGY PREDICTED BY IDOCK:   -3.01 KCAL/MOL
REMARK 923 INTER-LIGAND FREE ENERGY PREDICTED BY IDOCK:   -3.05 KCAL/MOL
REMARK 924 INTRA-LIGAND FREE ENERGY PREDICTED BY IDOCK:    0.04 KCAL/MOL
REMARK 927      BINDING AFFINITY PREDICTED BY RF-SCORE:    0.00 PKD
ROOT
HETATM    1  C   UNL     1      -8.968   8.413  65.730  1.00  0.00    -0.207 C  
HETATM    2  C   UNL     1      -9.359   9.718  65.345  1.00  0.00    -0.311 C  
HETATM    3  C   UNL     1      -8.099   9.575  66.115  1.00  0.00    -0.111 C  
HETATM    4  C   UNL     1      -7.379   7.642  66.157  1.00  0.00    -0.078 C  
HETATM    5  C   UNL     1      -7.071   8.666  65.307  1.00  0.00    -0.082 C  
HETATM    6  C   UNL     1      -7.346   8.499  71.103  1.00  0.00    -0.080 C  
HETATM    7  O   UNL     1      -6.088   7.143  66.518  1.00  0.00    -0.036 OA 
HETATM    8  C   UNL     1      -5.985   9.381  66.647  1.00  0.00    -0.060 C  
HETATM    9  C   UNL     1      -6.588   8.689  63.884  1.00  0.00    -0.076 C  
HETATM   10  O   UNL     1      -8.663   6.510  73.629  1.00  0.00    -0.122 OA 
HETATM   11  H   UNL     1      -5.757   6.253  66.537  1.00  0.00     0.000 HD 
HETATM   12  C   UNL     1      -6.516   8.916  68.222  1.00  0.00    -0.059 C  
HETATM   13  C   UNL     1      -8.106   8.776  68.627  1.00  0.00    -0.116 C  
HETATM   14  C   UNL     1      -8.412   8.261  70.049  1.00  0.00    -0.123 C  
HETATM   15  C   UNL     1      -9.625   7.748  70.380  1.00  0.00    -0.175 C  
HETATM   16  C   UNL     1     -10.785   7.602  69.403  1.00  0.00    -0.188 C  
HETATM   17  C   UNL     1      -9.984   7.307  71.784  1.00  0.00    -0.186 C  
HETATM   18  C   UNL     1     -10.636   8.383  68.075  1.00  0.00    -0.191 C  
HETATM   19  C   UNL     1      -8.791   7.322  72.713  1.00  0.00    -0.127 C  
HETATM   20  C   UNL     1     -11.003   9.851  68.359  1.00  0.00    -0.235 C  
HETATM   21  C   UNL     1      -9.207   8.111  67.544  1.00  0.00    -0.154 C  
HETATM   22  C   UNL     1      -7.848   8.476  72.542  1.00  0.00    -0.095 C  
ENDROOT
BRANCH   4  23
HETATM   23  C   UNL     1      -7.825   6.454  65.252  1.00  0.00    -0.108 C  
HETATM   24  C   UNL     1      -8.216   5.559  64.551  1.00  0.00    -0.129 C  
ENDBRANCH   4  23
TORSDOF 1
ENDMDL
MODEL       98
REMARK 921   NORMALIZED FREE ENERGY PREDICTED BY IDOCK:   -2.52 KCAL/MOL
REMARK 922        TOTAL FREE ENERGY PREDICTED BY IDOCK:   -2.69 KCAL/MOL
REMARK 923 INTER-LIGAND FREE ENERGY PREDICTED BY IDOCK:   -2.71 KCAL/MOL
REMARK 924 INTRA-LIGAND FREE ENERGY PREDICTED BY IDOCK:    0.02 KCAL/MOL
REMARK 927      BINDING AFFINITY PREDICTED BY RF-SCORE:    0.00 PKD
ROOT
HETATM    1  C   UNL     1     -10.877  16.214  69.741  1.00  0.00    -0.333 C  
HETATM    2  C   UNL     1     -11.252  17.048  68.660  1.00  0.00    -0.003 C  
HETATM    3  C   UNL     1     -11.529  15.595  68.538  1.00  0.00    -0.380 C  
HETATM    4  C   UNL     1     -11.428  14.587  70.336  1.00  0.00    -0.203 C  
HETATM    5  C   UNL     1     -12.511  15.132  69.704  1.00  0.00    -0.171 C  
HETATM    6  C   UNL     1      -8.313  11.647  67.720  1.00  0.00    -0.143 C  
HETATM    7  O   UNL     1     -11.904  13.288  70.696  1.00  0.00    -0.518 OA 
HETATM    8  C   UNL     1     -12.528  13.648  68.570  1.00  0.00     0.279 C  
HETATM    9  C   UNL     1     -13.815  15.675  70.216  1.00  0.00     1.108 C  
HETATM   10  O   UNL     1      -5.130  10.573  68.610  1.00  0.00    -0.039 OA 
HETATM   11  H   UNL     1     -11.858  12.824  71.523  1.00  0.00     0.000 HD 
HETATM   12  C   UNL     1     -10.960  12.942  68.411  1.00  0.00    -0.285 C  
HETATM   13  C   UNL     1      -9.577  13.834  68.356  1.00  0.00    -0.206 C  
HETATM   14  C   UNL     1      -8.251  13.046  68.305  1.00  0.00    -0.150 C  
HETATM   15  C   UNL     1      -7.064  13.619  68.633  1.00  0.00    -0.105 C  
HETATM   16  C   UNL     1      -6.913  15.061  69.102  1.00  0.00    -0.139 C  
HETATM   17  C   UNL     1      -5.736  12.899  68.518  1.00  0.00    -0.067 C  
HETATM   18  C   UNL     1      -8.146  15.967  68.869  1.00  0.00    -0.214 C  
HETATM   19  C   UNL     1      -5.905  11.432  68.189  1.00  0.00    -0.045 C  
HETATM   20  C   UNL     1      -8.127  16.400  67.391  1.00  0.00    -0.175 C  
HETATM   21  C   UNL     1      -9.389  15.179  69.349  1.00  0.00    -0.176 C  
HETATM   22  C   UNL     1      -6.985  11.109  67.200  1.00  0.00    -0.112 C  
ENDROOT
BRANCH   4  23
HETATM   23  C   UNL     1     -11.408  15.213  71.763  1.00  0.00    -0.391 C  
HETATM   24  C   UNL     1     -11.444  15.695  72.864  1.00  0.00    -0.239 C  
ENDBRANCH   4  23
TORSDOF 1
ENDMDL
MODEL       99
REMARK 921   NORMALIZED FREE ENERGY PREDICTED BY IDOCK:   -2.39 KCAL/MOL
REMARK 922        TOTAL FREE ENERGY PREDICTED BY IDOCK:   -2.54 KCAL/MOL
REMARK 923 INTER-LIGAND FREE ENERGY PREDICTED BY IDOCK:   -2.53 KCAL/MOL
REMARK 924 INTRA-LIGAND FREE ENERGY PREDICTED BY IDOCK:   -0.02 KCAL/MOL
REMARK 927      BINDING AFFINITY PREDICTED BY RF-SCORE:    0.00 PKD
ROOT
HETATM    1  C   UNL     1      -8.156  11.413  66.065  1.00  0.00     0.053 C  
HETATM    2  C   UNL     1      -7.797  10.487  65.056  1.00  0.00    -0.055 C  
HETATM    3  C   UNL     1      -8.888  10.105  65.987  1.00  0.00    -0.160 C  
HETATM    4  C   UNL     1      -9.660  11.700  67.044  1.00  0.00    -0.184 C  
HETATM    5  C   UNL     1     -10.088  11.147  65.870  1.00  0.00    -0.296 C  
HETATM    6  C   UNL     1      -8.698   8.688  70.942  1.00  0.00    -0.216 C  
HETATM    7  O   UNL     1     -10.874  11.815  67.791  1.00  0.00    -0.196 OA 
HETATM    8  C   UNL     1     -10.865   9.771  66.865  1.00  0.00    -0.120 C  
HETATM    9  C   UNL     1     -10.837  11.714  64.697  1.00  0.00    -0.373 C  
HETATM   10  O   UNL     1      -6.992   9.454  73.871  1.00  0.00    -0.046 OA 
HETATM   11  H   UNL     1     -11.229  12.549  68.278  1.00  0.00     0.000 HD 
HETATM   12  C   UNL     1     -10.056   9.529  68.371  1.00  0.00    -0.199 C  
HETATM   13  C   UNL     1      -8.424   9.666  68.544  1.00  0.00    -0.118 C  
HETATM   14  C   UNL     1      -7.867   9.510  69.974  1.00  0.00    -0.157 C  
HETATM   15  C   UNL     1      -6.633   9.963  70.316  1.00  0.00    -0.116 C  
HETATM   16  C   UNL     1      -5.692  10.682  69.358  1.00  0.00    -0.038 C  
HETATM   17  C   UNL     1      -6.025   9.756  71.689  1.00  0.00     0.098 C  
HETATM   18  C   UNL     1      -6.066  10.580  67.860  1.00  0.00    -0.047 C  
HETATM   19  C   UNL     1      -7.014   9.171  72.673  1.00  0.00     0.501 C  
HETATM   20  C   UNL     1      -5.595   9.202  67.359  1.00  0.00    -0.042 C  
HETATM   21  C   UNL     1      -7.580  10.883  67.746  1.00  0.00    -0.095 C  
HETATM   22  C   UNL     1      -7.927   8.114  72.125  1.00  0.00    -0.168 C  
ENDROOT
BRANCH   4  23
HETATM   23  C   UNL     1      -9.444  13.215  66.748  1.00  0.00    -0.252 C  
HETATM   24  C   UNL     1      -9.306  14.395  66.562  1.00  0.00    -0.300 C  
ENDBRANCH   4  23
TORSDOF 1
ENDMDL
MODEL      100
REMARK 921   NORMALIZED FREE ENERGY PREDICTED BY IDOCK:   -1.98 KCAL/MOL
REMARK 922        TOTAL FREE ENERGY PREDICTED BY IDOCK:   -2.11 KCAL/MOL
REMARK 923 INTER-LIGAND FREE ENERGY PREDICTED BY IDOCK:   -2.12 KCAL/MOL
REMARK 924 INTRA-LIGAND FREE ENERGY PREDICTED BY IDOCK:    0.00 KCAL/MOL
REMARK 927      BINDING AFFINITY PREDICTED BY RF-SCORE:    0.00 PKD
ROOT
HETATM    1  C   UNL     1      -8.420   8.331  69.185  1.00  0.00    -0.127 C  
HETATM    2  C   UNL     1      -9.319   8.054  70.242  1.00  0.00    -0.159 C  
HETATM    3  C   UNL     1      -9.803   7.850  68.855  1.00  0.00    -0.174 C  
HETATM    4  C   UNL     1      -8.284   7.777  67.460  1.00  0.00    -0.124 C  
HETATM    5  C   UNL     1      -8.904   6.756  68.124  1.00  0.00    -0.120 C  
HETATM    6  C   UNL     1     -11.095  11.290  65.236  1.00  0.00    -0.146 C  
HETATM    7  O   UNL     1      -8.291   7.312  66.107  1.00  0.00    -0.119 OA 
HETATM    8  C   UNL     1     -10.339   6.931  66.942  1.00  0.00    -0.332 C  
HETATM    9  C   UNL     1      -8.446   5.381  68.521  1.00  0.00    -0.096 C  
HETATM   10  O   UNL     1     -10.086  14.385  64.018  1.00  0.00     0.618 OA 
HETATM   11  H   UNL     1      -7.592   7.279  65.465  1.00  0.00     0.000 HD 
HETATM   12  C   UNL     1     -10.460   8.532  66.308  1.00  0.00     0.289 C  
HETATM   13  C   UNL     1     -10.138   9.877  67.203  1.00  0.00    -0.270 C  
HETATM   14  C   UNL     1     -10.203  11.229  66.462  1.00  0.00    -0.269 C  
HETATM   15  C   UNL     1      -9.609  12.345  66.956  1.00  0.00    -0.211 C  
HETATM   16  C   UNL     1      -8.808  12.384  68.252  1.00  0.00    -0.174 C  
HETATM   17  C   UNL     1      -9.720  13.705  66.296  1.00  0.00    -0.295 C  
HETATM   18  C   UNL     1      -8.980  11.154  69.175  1.00  0.00     0.057 C  
HETATM   19  C   UNL     1     -10.393  13.633  64.943  1.00  0.00    -0.388 C  
HETATM   20  C   UNL     1     -10.305  11.331  69.937  1.00  0.00     0.512 C  
HETATM   21  C   UNL     1      -8.850   9.894  68.284  1.00  0.00    -0.119 C  
HETATM   22  C   UNL     1     -11.556  12.690  64.845  1.00  0.00    -0.376 C  
ENDROOT
BRANCH   4  23
HETATM   23  C   UNL     1      -6.761   7.604  67.739  1.00  0.00    -0.067 C  
HETATM   24  C   UNL     1      -5.585   7.428  67.926  1.00  0.00    -0.026 C  
ENDBRANCH   4  23
TORSDOF 1
ENDMDL
MODEL      101
REMARK 921   NORMALIZED FREE ENERGY PREDICTED BY IDOCK:   -1.91 KCAL/MOL
REMARK 922        TOTAL FREE ENERGY PREDICTED BY IDOCK:   -2.04 KCAL/MOL
REMARK 923 INTER-LIGAND FREE ENERGY PREDICTED BY IDOCK:   -2.02 KCAL/MOL
REMARK 924 INTRA-LIGAND FREE ENERGY PREDICTED BY IDOCK:   -0.02 KCAL/MOL
REMARK 927      BINDING AFFINITY PREDICTED BY RF-SCORE:    0.00 PKD
ROOT
HETATM    1  C   UNL     1      -8.032   8.836  70.617  1.00  0.00    -0.130 C  
HETATM    2  C   UNL     1      -8.682   7.659  71.060  1.00  0.00    -0.137 C  
HETATM    3  C   UNL     1      -7.758   7.544  69.905  1.00  0.00    -0.098 C  
HETATM    4  C   UNL     1      -6.503   9.168  69.693  1.00  0.00    -0.042 C  
HETATM    5  C   UNL     1      -6.290   7.983  70.340  1.00  0.00    -0.036 C  
HETATM    6  C   UNL     1      -8.325   9.090  65.017  1.00  0.00    -0.174 C  
HETATM    7  O   UNL     1      -5.306   9.319  68.925  1.00  0.00    -0.037 OA 
HETATM    8  C   UNL     1      -5.980   7.193  68.676  1.00  0.00    -0.026 C  
HETATM    9  C   UNL     1      -5.414   7.607  71.502  1.00  0.00    -0.035 C  
HETATM   10  O   UNL     1      -9.658  11.732  63.195  1.00  0.00    -0.371 OA 
HETATM   11  H   UNL     1      -4.728  10.066  68.828  1.00  0.00     0.000 HD 
HETATM   12  C   UNL     1      -6.804   8.023  67.406  1.00  0.00    -0.070 C  
HETATM   13  C   UNL     1      -8.304   8.678  67.589  1.00  0.00    -0.121 C  
HETATM   14  C   UNL     1      -8.863   9.467  66.386  1.00  0.00    -0.167 C  
HETATM   15  C   UNL     1      -9.882  10.353  66.522  1.00  0.00    -0.256 C  
HETATM   16  C   UNL     1     -10.557  10.682  67.848  1.00  0.00    -0.266 C  
HETATM   17  C   UNL     1     -10.506  11.085  65.351  1.00  0.00    -0.306 C  
HETATM   18  C   UNL     1     -10.255   9.701  69.006  1.00  0.00    -0.209 C  
HETATM   19  C   UNL     1      -9.744  10.864  64.063  1.00  0.00    -0.301 C  
HETATM   20  C   UNL     1     -11.148   8.463  68.808  1.00  0.00     0.282 C  
HETATM   21  C   UNL     1      -8.725   9.463  69.015  1.00  0.00    -0.136 C  
HETATM   22  C   UNL     1      -9.224   9.473  63.847  1.00  0.00    -0.094 C  
ENDROOT
BRANCH   4  23
HETATM   23  C   UNL     1      -6.227  10.284  70.745  1.00  0.00    -0.049 C  
HETATM   24  C   UNL     1      -6.002  11.177  71.519  1.00  0.00     0.755 C  
ENDBRANCH   4  23
TORSDOF 1
ENDMDL
MODEL      102
REMARK 921   NORMALIZED FREE ENERGY PREDICTED BY IDOCK:   -1.53 KCAL/MOL
REMARK 922        TOTAL FREE ENERGY PREDICTED BY IDOCK:   -1.64 KCAL/MOL
REMARK 923 INTER-LIGAND FREE ENERGY PREDICTED BY IDOCK:   -1.62 KCAL/MOL
REMARK 924 INTRA-LIGAND FREE ENERGY PREDICTED BY IDOCK:   -0.02 KCAL/MOL
REMARK 927      BINDING AFFINITY PREDICTED BY RF-SCORE:    0.00 PKD
ROOT
HETATM    1  C   UNL     1      -9.250  16.705  68.696  1.00  0.00    -0.248 C  
HETATM    2  C   UNL     1      -8.475  17.768  68.173  1.00  0.00    -0.262 C  
HETATM    3  C   UNL     1      -8.646  16.560  67.329  1.00  0.00    -0.202 C  
HETATM    4  C   UNL     1     -10.185  15.335  67.953  1.00  0.00    -0.235 C  
HETATM    5  C   UNL     1     -10.192  16.331  67.018  1.00  0.00    -0.280 C  
HETATM    6  C   UNL     1      -6.566  11.862  67.773  1.00  0.00    -0.084 C  
HETATM    7  O   UNL     1     -10.854  14.270  67.272  1.00  0.00    -0.277 OA 
HETATM    8  C   UNL     1      -9.378  15.146  65.826  1.00  0.00    -0.207 C  
HETATM    9  C   UNL     1     -11.278  17.242  66.517  1.00  0.00     0.667 C  
HETATM   10  O   UNL     1      -5.688   9.555  70.220  1.00  0.00    -0.034 OA 
HETATM   11  H   UNL     1     -11.562  13.706  67.559  1.00  0.00     0.000 HD 
HETATM   12  C   UNL     1      -8.460  13.937  66.648  1.00  0.00     0.128 C  
HETATM   13  C   UNL     1      -7.593  14.243  68.014  1.00  0.00    -0.144 C  
HETATM   14  C   UNL     1      -6.903  13.033  68.678  1.00  0.00    -0.099 C  
HETATM   15  C   UNL     1      -6.489  13.065  69.971  1.00  0.00     0.092 C  
HETATM   16  C   UNL     1      -6.677  14.259  70.898  1.00  0.00     0.486 C  
HETATM   17  C   UNL     1      -5.738  11.925  70.629  1.00  0.00    -0.125 C  
HETATM   18  C   UNL     1      -7.068  15.584  70.202  1.00  0.00     0.167 C  
HETATM   19  C   UNL     1      -5.679  10.694  69.752  1.00  0.00    -0.050 C  
HETATM   20  C   UNL     1      -5.783  16.191  69.610  1.00  0.00    -0.144 C  
HETATM   21  C   UNL     1      -8.208  15.258  69.206  1.00  0.00    -0.244 C  
HETATM   22  C   UNL     1      -5.460  10.948  68.290  1.00  0.00    -0.039 C  
ENDROOT
BRANCH   4  23
HETATM   23  C   UNL     1     -11.316  15.689  68.964  1.00  0.00    -0.332 C  
HETATM   24  C   UNL     1     -12.215  15.922  69.728  1.00  0.00    -0.157 C  
ENDBRANCH   4  23
TORSDOF 1
ENDMDL
MODEL      103
REMARK 921   NORMALIZED FREE ENERGY PREDICTED BY IDOCK:   -0.70 KCAL/MOL
REMARK 922        TOTAL FREE ENERGY PREDICTED BY IDOCK:   -0.76 KCAL/MOL
REMARK 923 INTER-LIGAND FREE ENERGY PREDICTED BY IDOCK:   -0.76 KCAL/MOL
REMARK 924 INTRA-LIGAND FREE ENERGY PREDICTED BY IDOCK:    0.00 KCAL/MOL
REMARK 927      BINDING AFFINITY PREDICTED BY RF-SCORE:    0.00 PKD
ROOT
HETATM    1  C   UNL     1      -7.879  18.985  68.576  1.00  0.00    -0.375 C  
HETATM    2  C   UNL     1      -6.815  19.881  68.837  1.00  0.00    -0.359 C  
HETATM    3  C   UNL     1      -6.726  19.041  67.616  1.00  0.00    -0.218 C  
HETATM    4  C   UNL     1      -8.525  18.189  67.075  1.00  0.00    -0.245 C  
HETATM    5  C   UNL     1      -7.954  19.356  66.652  1.00  0.00    -0.300 C  
HETATM    6  C   UNL     1      -5.757  14.002  67.100  1.00  0.00     0.854 C  
HETATM    7  O   UNL     1      -8.928  17.581  65.845  1.00  0.00    -0.517 OA 
HETATM    8  C   UNL     1      -6.841  18.348  65.543  1.00  0.00    -0.218 C  
HETATM    9  C   UNL     1      -8.540  20.638  66.131  1.00  0.00     0.253 C  
HETATM   10  O   UNL     1      -6.462  10.978  68.661  1.00  0.00    -0.049 OA 
HETATM   11  H   UNL     1      -9.756  17.188  65.596  1.00  0.00     0.000 HD 
HETATM   12  C   UNL     1      -6.594  16.754  66.157  1.00  0.00     0.364 C  
HETATM   13  C   UNL     1      -6.445  16.425  67.764  1.00  0.00    -0.158 C  
HETATM   14  C   UNL     1      -6.321  14.937  68.154  1.00  0.00    -0.142 C  
HETATM   15  C   UNL     1      -6.569  14.505  69.417  1.00  0.00    -0.138 C  
HETATM   16  C   UNL     1      -7.012  15.412  70.559  1.00  0.00     0.497 C  
HETATM   17  C   UNL     1      -6.381  13.065  69.853  1.00  0.00    -0.034 C  
HETATM   18  C   UNL     1      -6.845  16.929  70.303  1.00  0.00     1.052 C  
HETATM   19  C   UNL     1      -6.080  12.148  68.689  1.00  0.00    -0.057 C  
HETATM   20  C   UNL     1      -5.364  17.276  70.544  1.00  0.00    -0.253 C  
HETATM   21  C   UNL     1      -7.408  17.219  68.891  1.00  0.00    -0.243 C  
HETATM   22  C   UNL     1      -5.162  12.707  67.642  1.00  0.00    -0.110 C  
ENDROOT
BRANCH   4  23
HETATM   23  C   UNL     1      -9.941  18.571  67.601  1.00  0.00    -0.362 C  
HETATM   24  C   UNL     1     -11.030  18.829  68.042  1.00  0.00    -0.005 C  
ENDBRANCH   4  23
TORSDOF 1
ENDMDL
MODEL      104
REMARK 921   NORMALIZED FREE ENERGY PREDICTED BY IDOCK:   -0.48 KCAL/MOL
REMARK 922        TOTAL FREE ENERGY PREDICTED BY IDOCK:   -0.52 KCAL/MOL
REMARK 923 INTER-LIGAND FREE ENERGY PREDICTED BY IDOCK:   -0.54 KCAL/MOL
REMARK 924 INTRA-LIGAND FREE ENERGY PREDICTED BY IDOCK:    0.02 KCAL/MOL
REMARK 927      BINDING AFFINITY PREDICTED BY RF-SCORE:    0.00 PKD
ROOT
HETATM    1  C   UNL     1      -9.029  17.924  66.469  1.00  0.00    -0.278 C  
HETATM    2  C   UNL     1     -10.383  18.201  66.774  1.00  0.00    -0.376 C  
HETATM    3  C   UNL     1      -9.375  18.433  67.838  1.00  0.00    -0.291 C  
HETATM    4  C   UNL     1      -7.437  18.501  67.132  1.00  0.00    -0.222 C  
HETATM    5  C   UNL     1      -8.318  19.522  67.354  1.00  0.00    -0.330 C  
HETATM    6  C   UNL     1      -6.744  15.067  70.727  1.00  0.00     0.414 C  
HETATM    7  O   UNL     1      -6.243  18.984  67.753  1.00  0.00    -0.205 OA 
HETATM    8  C   UNL     1      -7.930  19.389  69.176  1.00  0.00    -0.227 C  
HETATM    9  C   UNL     1      -8.465  20.884  66.736  1.00  0.00     0.107 C  
HETATM   10  O   UNL     1      -5.184  11.973  70.461  1.00  0.00    -0.101 OA 
HETATM   11  H   UNL     1      -5.351  19.015  67.428  1.00  0.00     0.000 HD 
HETATM   12  C   UNL     1      -7.416  17.799  69.610  1.00  0.00     0.514 C  
HETATM   13  C   UNL     1      -8.055  16.436  68.941  1.00  0.00    -0.236 C  
HETATM   14  C   UNL     1      -7.422  15.096  69.369  1.00  0.00    -0.204 C  
HETATM   15  C   UNL     1      -7.580  13.963  68.639  1.00  0.00    -0.130 C  
HETATM   16  C   UNL     1      -8.361  13.892  67.332  1.00  0.00    -0.208 C  
HETATM   17  C   UNL     1      -7.039  12.615  69.071  1.00  0.00    -0.028 C  
HETATM   18  C   UNL     1      -9.264  15.112  67.032  1.00  0.00    -0.239 C  
HETATM   19  C   UNL     1      -6.150  12.717  70.290  1.00  0.00    -0.067 C  
HETATM   20  C   UNL     1     -10.552  14.947  67.860  1.00  0.00    -0.254 C  
HETATM   21  C   UNL     1      -8.420  16.381  67.300  1.00  0.00    -0.196 C  
HETATM   22  C   UNL     1      -6.604  13.682  71.346  1.00  0.00     1.504 C  
ENDROOT
BRANCH   4  23
HETATM   23  C   UNL     1      -6.984  18.643  65.649  1.00  0.00    -0.255 C  
HETATM   24  C   UNL     1      -6.631  18.804  64.510  1.00  0.00     0.766 C  
ENDBRANCH   4  23
TORSDOF 1
ENDMDL
MODEL      105
REMARK 921   NORMALIZED FREE ENERGY PREDICTED BY IDOCK:    0.48 KCAL/MOL
REMARK 922        TOTAL FREE ENERGY PREDICTED BY IDOCK:    0.49 KCAL/MOL
REMARK 923 INTER-LIGAND FREE ENERGY PREDICTED BY IDOCK:    0.47 KCAL/MOL
REMARK 924 INTRA-LIGAND FREE ENERGY PREDICTED BY IDOCK:    0.02 KCAL/MOL
REMARK 927      BINDING AFFINITY PREDICTED BY RF-SCORE:    0.00 PKD
ROOT
HETATM    1  C   UNL     1     -11.644   7.873  70.256  1.00  0.00    -0.022 C  
HETATM    2  C   UNL     1     -12.443   7.627  71.398  1.00  0.00    -0.359 C  
HETATM    3  C   UNL     1     -11.042   8.061  71.619  1.00  0.00    -0.300 C  
HETATM    4  C   UNL     1     -10.164   8.879  69.940  1.00  0.00    -0.200 C  
HETATM    5  C   UNL     1     -10.813   9.498  70.970  1.00  0.00    -0.423 C  
HETATM    6  C   UNL     1      -6.617   5.487  70.993  1.00  0.00    -0.044 C  
HETATM    7  O   UNL     1      -8.977   9.666  69.806  1.00  0.00    -0.178 OA 
HETATM    8  C   UNL     1      -9.269   9.287  71.999  1.00  0.00     0.543 C  
HETATM    9  C   UNL     1     -11.577  10.790  71.055  1.00  0.00    -0.120 C  
HETATM   10  O   UNL     1      -5.156   3.179  68.845  1.00  0.00    -0.010 OA 
HETATM   11  H   UNL     1      -8.573  10.042  69.034  1.00  0.00     0.000 HD 
HETATM   12  C   UNL     1      -8.332   7.932  71.483  1.00  0.00    -0.130 C  
HETATM   13  C   UNL     1      -9.005   6.525  70.956  1.00  0.00    -0.146 C  
HETATM   14  C   UNL     1      -8.031   5.445  70.443  1.00  0.00    -0.100 C  
HETATM   15  C   UNL     1      -8.446   4.424  69.650  1.00  0.00    -0.089 C  
HETATM   16  C   UNL     1      -9.880   4.246  69.167  1.00  0.00    -0.163 C  
HETATM   17  C   UNL     1      -7.533   3.303  69.194  1.00  0.00    -0.048 C  
HETATM   18  C   UNL     1     -10.938   5.106  69.901  1.00  0.00     0.420 C  
HETATM   19  C   UNL     1      -6.086   3.558  69.556  1.00  0.00    -0.024 C  
HETATM   20  C   UNL     1     -11.254   4.408  71.236  1.00  0.00     1.524 C  
HETATM   21  C   UNL     1     -10.377   6.547  69.983  1.00  0.00    -0.238 C  
HETATM   22  C   UNL     1      -5.853   4.171  70.906  1.00  0.00    -0.013 C  
ENDROOT
BRANCH   4  23
HETATM   23  C   UNL     1     -10.881   9.348  68.639  1.00  0.00    -0.149 C  
HETATM   24  C   UNL     1     -11.448   9.661  67.626  1.00  0.00     0.738 C  
ENDBRANCH   4  23
TORSDOF 1
ENDMDL
MODEL      106
REMARK 921   NORMALIZED FREE ENERGY PREDICTED BY IDOCK:    0.50 KCAL/MOL
REMARK 922        TOTAL FREE ENERGY PREDICTED BY IDOCK:    0.52 KCAL/MOL
REMARK 923 INTER-LIGAND FREE ENERGY PREDICTED BY IDOCK:    0.52 KCAL/MOL
REMARK 924 INTRA-LIGAND FREE ENERGY PREDICTED BY IDOCK:    0.00 KCAL/MOL
REMARK 927      BINDING AFFINITY PREDICTED BY RF-SCORE:    0.00 PKD
ROOT
HETATM    1  C   UNL     1      -9.728   4.958  71.677  1.00  0.00    -0.231 C  
HETATM    2  C   UNL     1     -11.137   5.074  71.741  1.00  0.00     0.089 C  
HETATM    3  C   UNL     1     -10.480   5.365  70.443  1.00  0.00    -0.345 C  
HETATM    4  C   UNL     1      -8.541   4.668  70.331  1.00  0.00    -0.086 C  
HETATM    5  C   UNL     1      -9.703   4.073  69.928  1.00  0.00    -0.263 C  
HETATM    6  C   UNL     1      -7.646   9.418  68.979  1.00  0.00    -0.074 C  
HETATM    7  O   UNL     1      -7.690   4.479  69.198  1.00  0.00    -0.059 OA 
HETATM    8  C   UNL     1      -9.677   5.170  68.416  1.00  0.00    -0.200 C  
HETATM    9  C   UNL     1     -10.105   2.633  69.779  1.00  0.00     0.860 C  
HETATM   10  O   UNL     1      -5.244  11.588  70.243  1.00  0.00    -0.074 OA 
HETATM   11  H   UNL     1      -6.797   4.159  69.146  1.00  0.00     0.000 HD 
HETATM   12  C   UNL     1      -8.829   6.645  68.707  1.00  0.00    -0.126 C  
HETATM   13  C   UNL     1      -8.898   7.452  70.141  1.00  0.00    -0.147 C  
HETATM   14  C   UNL     1      -8.009   8.706  70.269  1.00  0.00    -0.106 C  
HETATM   15  C   UNL     1      -7.682   9.232  71.478  1.00  0.00     0.201 C  
HETATM   16  C   UNL     1      -8.123   8.644  72.812  1.00  0.00    -0.007 C  
HETATM   17  C   UNL     1      -6.878  10.507  71.638  1.00  0.00     2.100 C  
HETATM   18  C   UNL     1      -9.257   7.593  72.731  1.00  0.00    -0.226 C  
HETATM   19  C   UNL     1      -6.326  11.006  70.321  1.00  0.00    -0.120 C  
HETATM   20  C   UNL     1     -10.585   8.359  72.581  1.00  0.00    -0.312 C  
HETATM   21  C   UNL     1      -8.887   6.609  71.596  1.00  0.00    -0.134 C  
HETATM   22  C   UNL     1      -7.244  10.879  69.142  1.00  0.00    -0.118 C  
ENDROOT
BRANCH   4  23
HETATM   23  C   UNL     1      -7.852   3.652  71.290  1.00  0.00    -0.059 C  
HETATM   24  C   UNL     1      -7.309   2.838  71.990  1.00  0.00    -0.043 C  
ENDBRANCH   4  23
TORSDOF 1
ENDMDL
MODEL      107
REMARK 921   NORMALIZED FREE ENERGY PREDICTED BY IDOCK:    2.08 KCAL/MOL
REMARK 922        TOTAL FREE ENERGY PREDICTED BY IDOCK:    2.19 KCAL/MOL
REMARK 923 INTER-LIGAND FREE ENERGY PREDICTED BY IDOCK:    2.17 KCAL/MOL
REMARK 924 INTRA-LIGAND FREE ENERGY PREDICTED BY IDOCK:    0.02 KCAL/MOL
REMARK 927      BINDING AFFINITY PREDICTED BY RF-SCORE:    0.00 PKD
ROOT
HETATM    1  C   UNL     1      -7.974  12.025  69.867  1.00  0.00     1.869 C  
HETATM    2  C   UNL     1      -7.589  10.796  70.454  1.00  0.00     1.015 C  
HETATM    3  C   UNL     1      -6.936  11.185  69.180  1.00  0.00    -0.108 C  
HETATM    4  C   UNL     1      -7.178  13.180  68.711  1.00  0.00    -0.085 C  
HETATM    5  C   UNL     1      -6.154  12.560  69.371  1.00  0.00    -0.108 C  
HETATM    6  C   UNL     1      -8.791  11.248  64.368  1.00  0.00     0.189 C  
HETATM    7  O   UNL     1      -6.483  13.999  67.767  1.00  0.00    -0.155 OA 
HETATM    8  C   UNL     1      -5.513  11.976  67.717  1.00  0.00    -0.069 C  
HETATM    9  C   UNL     1      -5.177  13.043  70.405  1.00  0.00    -0.114 C  
HETATM   10  O   UNL     1     -11.717  11.995  62.648  1.00  0.00     0.428 OA 
HETATM   11  H   UNL     1      -6.594  14.917  67.551  1.00  0.00     0.000 HD 
HETATM   12  C   UNL     1      -6.777  11.840  66.549  1.00  0.00     0.111 C  
HETATM   13  C   UNL     1      -8.292  11.315  66.923  1.00  0.00    -0.155 C  
HETATM   14  C   UNL     1      -9.331  11.339  65.784  1.00  0.00    -0.245 C  
HETATM   15  C   UNL     1     -10.666  11.302  66.030  1.00  0.00    -0.301 C  
HETATM   16  C   UNL     1     -11.276  11.258  67.426  1.00  0.00    -0.370 C  
HETATM   17  C   UNL     1     -11.711  11.244  64.934  1.00  0.00     0.303 C  
HETATM   18  C   UNL     1     -10.290  10.916  68.569  1.00  0.00    -0.203 C  
HETATM   19  C   UNL     1     -11.110  11.430  63.558  1.00  0.00    -0.285 C  
HETATM   20  C   UNL     1     -10.088   9.390  68.563  1.00  0.00    -0.208 C  
HETATM   21  C   UNL     1      -9.028  11.788  68.360  1.00  0.00    -0.168 C  
HETATM   22  C   UNL     1      -9.790  10.753  63.329  1.00  0.00    -0.394 C  
ENDROOT
BRANCH   4  23
HETATM   23  C   UNL     1      -7.672  14.314  69.658  1.00  0.00     0.303 C  
HETATM   24  C   UNL     1      -8.004  15.196  70.405  1.00  0.00     0.921 C  
ENDBRANCH   4  23
TORSDOF 1
ENDMDL
MODEL      108
REMARK 921   NORMALIZED FREE ENERGY PREDICTED BY IDOCK:    2.12 KCAL/MOL
REMARK 922        TOTAL FREE ENERGY PREDICTED BY IDOCK:    2.23 KCAL/MOL
REMARK 923 INTER-LIGAND FREE ENERGY PREDICTED BY IDOCK:    2.25 KCAL/MOL
REMARK 924 INTRA-LIGAND FREE ENERGY PREDICTED BY IDOCK:   -0.02 KCAL/MOL
REMARK 927      BINDING AFFINITY PREDICTED BY RF-SCORE:    0.00 PKD
ROOT
HETATM    1  C   UNL     1      -9.558  12.765  66.768  1.00  0.00    -0.244 C  
HETATM    2  C   UNL     1      -9.362  11.436  67.213  1.00  0.00    -0.173 C  
HETATM    3  C   UNL     1      -9.893  12.419  68.189  1.00  0.00    -0.213 C  
HETATM    4  C   UNL     1     -10.616  14.140  67.309  1.00  0.00    -0.277 C  
HETATM    5  C   UNL     1     -11.281  13.002  67.670  1.00  0.00    -0.315 C  
HETATM    6  C   UNL     1      -7.533  16.305  70.625  1.00  0.00     2.476 C  
HETATM    7  O   UNL     1     -11.456  15.168  67.840  1.00  0.00    -0.325 OA 
HETATM    8  C   UNL     1     -11.245  13.605  69.437  1.00  0.00    -0.252 C  
HETATM    9  C   UNL     1     -12.529  12.349  67.145  1.00  0.00     0.901 C  
HETATM   10  O   UNL     1      -5.141  18.757  70.040  1.00  0.00    -0.178 OA 
HETATM   11  H   UNL     1     -11.789  15.960  67.435  1.00  0.00     0.000 HD 
HETATM   12  C   UNL     1      -9.908  14.656  69.731  1.00  0.00     0.256 C  
HETATM   13  C   UNL     1      -8.425  14.433  69.049  1.00  0.00    -0.001 C  
HETATM   14  C   UNL     1      -7.364  15.514  69.341  1.00  0.00    -0.215 C  
HETATM   15  C   UNL     1      -6.258  15.659  68.566  1.00  0.00    -0.101 C  
HETATM   16  C   UNL     1      -5.960  14.810  67.336  1.00  0.00     0.220 C  
HETATM   17  C   UNL     1      -5.158  16.657  68.869  1.00  0.00    -0.119 C  
HETATM   18  C   UNL     1      -6.816  13.529  67.192  1.00  0.00     0.329 C  
HETATM   19  C   UNL     1      -5.524  17.588  70.003  1.00  0.00    -0.236 C  
HETATM   20  C   UNL     1      -6.214  12.464  68.127  1.00  0.00    -0.065 C  
HETATM   21  C   UNL     1      -8.288  13.932  67.450  1.00  0.00    -0.208 C  
HETATM   22  C   UNL     1      -6.259  16.959  71.149  1.00  0.00     1.660 C  
ENDROOT
BRANCH   4  23
HETATM   23  C   UNL     1     -10.934  14.360  65.800  1.00  0.00    -0.314 C  
HETATM   24  C   UNL     1     -11.202  14.574  64.647  1.00  0.00    -0.359 C  
ENDBRANCH   4  23
TORSDOF 1
ENDMDL
MODEL      109
REMARK 921   NORMALIZED FREE ENERGY PREDICTED BY IDOCK:    2.93 KCAL/MOL
REMARK 922        TOTAL FREE ENERGY PREDICTED BY IDOCK:    3.09 KCAL/MOL
REMARK 923 INTER-LIGAND FREE ENERGY PREDICTED BY IDOCK:    3.05 KCAL/MOL
REMARK 924 INTRA-LIGAND FREE ENERGY PREDICTED BY IDOCK:    0.04 KCAL/MOL
REMARK 927      BINDING AFFINITY PREDICTED BY RF-SCORE:    0.00 PKD
ROOT
HETATM    1  C   UNL     1      -8.890  14.261  68.637  1.00  0.00    -0.150 C  
HETATM    2  C   UNL     1      -8.333  14.316  69.937  1.00  0.00     0.956 C  
HETATM    3  C   UNL     1      -7.416  14.504  68.786  1.00  0.00    -0.132 C  
HETATM    4  C   UNL     1      -8.395  14.923  67.018  1.00  0.00    -0.216 C  
HETATM    5  C   UNL     1      -7.863  15.779  67.941  1.00  0.00    -0.149 C  
HETATM    6  C   UNL     1      -5.608  11.087  65.373  1.00  0.00     0.021 C  
HETATM    7  O   UNL     1      -7.895  15.450  65.786  1.00  0.00     0.791 OA 
HETATM    8  C   UNL     1      -6.176  15.413  67.229  1.00  0.00     0.099 C  
HETATM    9  C   UNL     1      -8.204  17.190  68.327  1.00  0.00    -0.230 C  
HETATM   10  O   UNL     1      -6.651   8.292  63.590  1.00  0.00    -0.075 OA 
HETATM   11  H   UNL     1      -8.345  15.642  64.973  1.00  0.00     0.000 HD 
HETATM   12  C   UNL     1      -6.112  13.852  66.494  1.00  0.00     3.284 C  
HETATM   13  C   UNL     1      -6.900  12.541  67.104  1.00  0.00    -0.058 C  
HETATM   14  C   UNL     1      -6.816  11.241  66.278  1.00  0.00    -0.001 C  
HETATM   15  C   UNL     1      -7.699  10.224  66.451  1.00  0.00    -0.116 C  
HETATM   16  C   UNL     1      -8.860  10.260  67.438  1.00  0.00    -0.134 C  
HETATM   17  C   UNL     1      -7.599   8.904  65.714  1.00  0.00    -0.090 C  
HETATM   18  C   UNL     1      -8.797  11.389  68.495  1.00  0.00    -0.151 C  
HETATM   19  C   UNL     1      -6.536   8.927  64.638  1.00  0.00    -0.066 C  
HETATM   20  C   UNL     1      -7.818  10.937  69.595  1.00  0.00     0.107 C  
HETATM   21  C   UNL     1      -8.447  12.697  67.745  1.00  0.00    -0.172 C  
HETATM   22  C   UNL     1      -5.270   9.650  64.992  1.00  0.00    -0.046 C  
ENDROOT
BRANCH   4  23
HETATM   23  C   UNL     1      -9.884  15.350  66.848  1.00  0.00    -0.251 C  
HETATM   24  C   UNL     1     -11.044  15.653  66.759  1.00  0.00    -0.169 C  
ENDBRANCH   4  23
TORSDOF 1
ENDMDL
MODEL      110
REMARK 921   NORMALIZED FREE ENERGY PREDICTED BY IDOCK:    5.23 KCAL/MOL
REMARK 922        TOTAL FREE ENERGY PREDICTED BY IDOCK:    5.52 KCAL/MOL
REMARK 923 INTER-LIGAND FREE ENERGY PREDICTED BY IDOCK:    5.51 KCAL/MOL
REMARK 924 INTRA-LIGAND FREE ENERGY PREDICTED BY IDOCK:    0.01 KCAL/MOL
REMARK 927      BINDING AFFINITY PREDICTED BY RF-SCORE:    0.00 PKD
ROOT
HETATM    1  C   UNL     1      -6.605  15.527  68.879  1.00  0.00    -0.113 C  
HETATM    2  C   UNL     1      -6.190  15.988  67.606  1.00  0.00    -0.184 C  
HETATM    3  C   UNL     1      -7.644  15.794  67.828  1.00  0.00    -0.157 C  
HETATM    4  C   UNL     1      -8.155  15.637  69.821  1.00  0.00     0.054 C  
HETATM    5  C   UNL     1      -8.141  16.738  69.012  1.00  0.00    -0.179 C  
HETATM    6  C   UNL     1     -10.410  11.457  68.198  1.00  0.00    -0.206 C  
HETATM    7  O   UNL     1      -9.430  15.742  70.461  1.00  0.00     0.414 OA 
HETATM    8  C   UNL     1      -9.756  16.153  68.279  1.00  0.00    -0.220 C  
HETATM    9  C   UNL     1      -7.955  18.201  69.297  1.00  0.00     0.169 C  
HETATM   10  O   UNL     1     -10.174   8.248  69.511  1.00  0.00    -0.200 OA 
HETATM   11  H   UNL     1      -9.665  15.669  71.378  1.00  0.00     0.000 HD 
HETATM   12  C   UNL     1      -9.930  14.439  68.391  1.00  0.00    -0.241 C  
HETATM   13  C   UNL     1      -8.671  13.395  68.201  1.00  0.00    -0.179 C  
HETATM   14  C   UNL     1      -8.976  11.899  68.424  1.00  0.00    -0.163 C  
HETATM   15  C   UNL     1      -7.992  10.996  68.671  1.00  0.00    -0.143 C  
HETATM   16  C   UNL     1      -6.514  11.352  68.779  1.00  0.00    -0.056 C  
HETATM   17  C   UNL     1      -8.248   9.510  68.815  1.00  0.00    -0.112 C  
HETATM   18  C   UNL     1      -6.131  12.758  68.258  1.00  0.00    -0.075 C  
HETATM   19  C   UNL     1      -9.724   9.182  68.847  1.00  0.00    -0.162 C  
HETATM   20  C   UNL     1      -6.042  12.672  66.723  1.00  0.00     0.714 C  
HETATM   21  C   UNL     1      -7.158  13.757  68.842  1.00  0.00    -0.107 C  
HETATM   22  C   UNL     1     -10.586   9.971  67.906  1.00  0.00    -0.298 C  
ENDROOT
BRANCH   4  23
HETATM   23  C   UNL     1      -7.267  15.998  71.049  1.00  0.00     2.806 C  
HETATM   24  C   UNL     1      -6.613  16.316  72.008  1.00  0.00     4.148 C  
ENDBRANCH   4  23
TORSDOF 1
ENDMDL
MODEL      111
REMARK 921   NORMALIZED FREE ENERGY PREDICTED BY IDOCK:    5.28 KCAL/MOL
REMARK 922        TOTAL FREE ENERGY PREDICTED BY IDOCK:    5.57 KCAL/MOL
REMARK 923 INTER-LIGAND FREE ENERGY PREDICTED BY IDOCK:    5.56 KCAL/MOL
REMARK 924 INTRA-LIGAND FREE ENERGY PREDICTED BY IDOCK:    0.01 KCAL/MOL
REMARK 927      BINDING AFFINITY PREDICTED BY RF-SCORE:    0.00 PKD
ROOT
HETATM    1  C   UNL     1      -8.732  18.060  67.872  1.00  0.00    -0.258 C  
HETATM    2  C   UNL     1      -7.348  17.870  68.099  1.00  0.00    -0.241 C  
HETATM    3  C   UNL     1      -8.044  16.891  67.229  1.00  0.00    -0.207 C  
HETATM    4  C   UNL     1      -9.882  17.550  66.560  1.00  0.00    -0.310 C  
HETATM    5  C   UNL     1      -8.656  17.634  65.960  1.00  0.00    -0.066 C  
HETATM    6  C   UNL     1     -11.370  13.137  68.431  1.00  0.00    -0.324 C  
HETATM    7  O   UNL     1     -10.710  17.063  65.500  1.00  0.00    -0.470 OA 
HETATM    8  C   UNL     1      -8.829  15.839  65.477  1.00  0.00     0.689 C  
HETATM    9  C   UNL     1      -8.079  18.606  64.970  1.00  0.00     2.387 C  
HETATM   10  O   UNL     1     -14.017  12.512  70.595  1.00  0.00     1.951 OA 
HETATM   11  H   UNL     1     -11.555  17.366  65.192  1.00  0.00     0.000 HD 
HETATM   12  C   UNL     1      -9.853  14.975  66.566  1.00  0.00    -0.276 C  
HETATM   13  C   UNL     1      -9.876  15.256  68.188  1.00  0.00    -0.217 C  
HETATM   14  C   UNL     1     -10.914  14.464  69.010  1.00  0.00    -0.274 C  
HETATM   15  C   UNL     1     -11.296  14.858  70.252  1.00  0.00    -0.296 C  
HETATM   16  C   UNL     1     -10.777  16.110  70.948  1.00  0.00     0.233 C  
HETATM   17  C   UNL     1     -12.252  14.061  71.117  1.00  0.00    -0.417 C  
HETATM   18  C   UNL     1      -9.522  16.751  70.310  1.00  0.00     1.798 C  
HETATM   19  C   UNL     1     -12.871  12.900  70.370  1.00  0.00     0.189 C  
HETATM   20  C   UNL     1      -8.301  15.934  70.773  1.00  0.00     2.854 C  
HETATM   21  C   UNL     1      -9.773  16.825  68.784  1.00  0.00    -0.261 C  
HETATM   22  C   UNL     1     -11.951  12.159  69.446  1.00  0.00    -0.329 C  
ENDROOT
BRANCH   4  23
HETATM   23  C   UNL     1     -10.432  19.006  66.613  1.00  0.00    -0.517 C  
HETATM   24  C   UNL     1     -10.877  20.120  66.700  1.00  0.00    -0.075 C  
ENDBRANCH   4  23
TORSDOF 1
ENDMDL
MODEL      112
REMARK 921   NORMALIZED FREE ENERGY PREDICTED BY IDOCK:    6.02 KCAL/MOL
REMARK 922        TOTAL FREE ENERGY PREDICTED BY IDOCK:    6.36 KCAL/MOL
REMARK 923 INTER-LIGAND FREE ENERGY PREDICTED BY IDOCK:    6.31 KCAL/MOL
REMARK 924 INTRA-LIGAND FREE ENERGY PREDICTED BY IDOCK:    0.04 KCAL/MOL
REMARK 927      BINDING AFFINITY PREDICTED BY RF-SCORE:    0.00 PKD
ROOT
HETATM    1  C   UNL     1     -11.279   9.993  67.893  1.00  0.00    -0.169 C  
HETATM    2  C   UNL     1     -10.771   8.948  67.084  1.00  0.00    -0.203 C  
HETATM    3  C   UNL     1      -9.871  10.090  67.380  1.00  0.00    -0.226 C  
HETATM    4  C   UNL     1     -10.517  11.257  68.954  1.00  0.00    -0.206 C  
HETATM    5  C   UNL     1      -9.644  10.206  68.952  1.00  0.00    -0.186 C  
HETATM    6  C   UNL     1      -9.914  14.922  65.578  1.00  0.00    -0.392 C  
HETATM    7  O   UNL     1      -9.819  12.236  69.728  1.00  0.00     0.611 OA 
HETATM    8  C   UNL     1      -8.338  11.362  68.285  1.00  0.00    -0.152 C  
HETATM    9  C   UNL     1      -9.264   9.204  70.005  1.00  0.00    -0.209 C  
HETATM   10  O   UNL     1     -12.165  17.423  64.708  1.00  0.00     2.313 OA 
HETATM   11  H   UNL     1     -10.116  12.773  70.452  1.00  0.00     0.000 HD 
HETATM   12  C   UNL     1      -9.030  12.673  67.400  1.00  0.00    -0.190 C  
HETATM   13  C   UNL     1     -10.355  12.503  66.437  1.00  0.00    -0.261 C  
HETATM   14  C   UNL     1     -10.904  13.790  65.787  1.00  0.00    -0.277 C  
HETATM   15  C   UNL     1     -12.169  13.863  65.298  1.00  0.00    -0.449 C  
HETATM   16  C   UNL     1     -13.174  12.719  65.356  1.00  0.00     0.865 C  
HETATM   17  C   UNL     1     -12.713  15.084  64.584  1.00  0.00     0.197 C  
HETATM   18  C   UNL     1     -12.580  11.332  65.703  1.00  0.00     3.284 C  
HETATM   19  C   UNL     1     -11.765  16.260  64.654  1.00  0.00     0.073 C  
HETATM   20  C   UNL     1     -11.947  10.768  64.418  1.00  0.00     2.195 C  
HETATM   21  C   UNL     1     -11.639  11.529  66.916  1.00  0.00    -0.166 C  
HETATM   22  C   UNL     1     -10.309  15.930  64.505  1.00  0.00     0.759 C  
ENDROOT
BRANCH   4  23
HETATM   23  C   UNL     1     -11.615  10.898  70.000  1.00  0.00    -0.424 C  
HETATM   24  C   UNL     1     -12.470  10.577  70.782  1.00  0.00    -0.472 C  
ENDBRANCH   4  23
TORSDOF 1
ENDMDL
MODEL      113
REMARK 921   NORMALIZED FREE ENERGY PREDICTED BY IDOCK:    7.80 KCAL/MOL
REMARK 922        TOTAL FREE ENERGY PREDICTED BY IDOCK:    8.25 KCAL/MOL
REMARK 923 INTER-LIGAND FREE ENERGY PREDICTED BY IDOCK:    8.23 KCAL/MOL
REMARK 924 INTRA-LIGAND FREE ENERGY PREDICTED BY IDOCK:    0.02 KCAL/MOL
REMARK 927      BINDING AFFINITY PREDICTED BY RF-SCORE:    0.00 PKD
ROOT
HETATM    1  C   UNL     1      -8.650  13.068  68.757  1.00  0.00     0.159 C  
HETATM    2  C   UNL     1      -8.570  13.741  70.000  1.00  0.00     2.237 C  
HETATM    3  C   UNL     1      -7.608  12.640  69.750  1.00  0.00     1.206 C  
HETATM    4  C   UNL     1      -7.473  12.104  67.762  1.00  0.00    -0.122 C  
HETATM    5  C   UNL     1      -6.711  12.983  68.479  1.00  0.00    -0.092 C  
HETATM    6  C   UNL     1      -8.337   7.536  69.652  1.00  0.00    -0.131 C  
HETATM    7  O   UNL     1      -6.486  11.329  67.077  1.00  0.00    -0.090 OA 
HETATM    8  C   UNL     1      -5.806  11.521  69.207  1.00  0.00    -0.059 C  
HETATM    9  C   UNL     1      -5.929  14.203  68.081  1.00  0.00    -0.133 C  
HETATM   10  O   UNL     1     -10.689   5.198  68.612  1.00  0.00    -0.041 OA 
HETATM   11  H   UNL     1      -6.424  11.082  66.162  1.00  0.00     0.000 HD 
HETATM   12  C   UNL     1      -6.790  10.102  69.230  1.00  0.00    -0.063 C  
HETATM   13  C   UNL     1      -8.406  10.137  69.543  1.00  0.00    -0.178 C  
HETATM   14  C   UNL     1      -9.157   8.793  69.434  1.00  0.00    -0.145 C  
HETATM   15  C   UNL     1     -10.507   8.737  69.292  1.00  0.00    -0.228 C  
HETATM   16  C   UNL     1     -11.408   9.962  69.200  1.00  0.00    -0.088 C  
HETATM   17  C   UNL     1     -11.284   7.436  69.262  1.00  0.00     0.083 C  
HETATM   18  C   UNL     1     -10.751  11.300  69.616  1.00  0.00    -0.085 C  
HETATM   19  C   UNL     1     -10.376   6.227  69.211  1.00  0.00    -0.218 C  
HETATM   20  C   UNL     1     -10.757  11.358  71.155  1.00  0.00     3.420 C  
HETATM   21  C   UNL     1      -9.370  11.367  68.922  1.00  0.00    -0.044 C  
HETATM   22  C   UNL     1      -9.140   6.306  70.058  1.00  0.00    -0.150 C  
ENDROOT
BRANCH   4  23
HETATM   23  C   UNL     1      -8.008  12.904  66.536  1.00  0.00     0.557 C  
HETATM   24  C   UNL     1      -8.375  13.544  65.586  1.00  0.00     2.437 C  
ENDBRANCH   4  23
TORSDOF 1
ENDMDL
MODEL      114
REMARK 921   NORMALIZED FREE ENERGY PREDICTED BY IDOCK:    8.16 KCAL/MOL
REMARK 922        TOTAL FREE ENERGY PREDICTED BY IDOCK:    8.63 KCAL/MOL
REMARK 923 INTER-LIGAND FREE ENERGY PREDICTED BY IDOCK:    8.60 KCAL/MOL
REMARK 924 INTRA-LIGAND FREE ENERGY PREDICTED BY IDOCK:    0.02 KCAL/MOL
REMARK 927      BINDING AFFINITY PREDICTED BY RF-SCORE:    0.00 PKD
ROOT
HETATM    1  C   UNL     1     -11.031  11.834  64.609  1.00  0.00    -0.368 C  
HETATM    2  C   UNL     1     -12.185  11.100  64.245  1.00  0.00     1.065 C  
HETATM    3  C   UNL     1     -12.197  11.798  65.554  1.00  0.00     0.522 C  
HETATM    4  C   UNL     1     -10.719  13.226  65.735  1.00  0.00    -0.277 C  
HETATM    5  C   UNL     1     -12.018  13.365  65.334  1.00  0.00    -0.419 C  
HETATM    6  C   UNL     1      -9.738  10.681  69.948  1.00  0.00     0.240 C  
HETATM    7  O   UNL     1     -10.573  14.292  66.677  1.00  0.00    -0.275 OA 
HETATM    8  C   UNL     1     -12.525  13.283  67.129  1.00  0.00     0.051 C  
HETATM    9  C   UNL     1     -12.697  14.352  64.426  1.00  0.00    -0.016 C  
HETATM   10  O   UNL     1      -6.673   9.473  71.056  1.00  0.00    -0.165 OA 
HETATM   11  H   UNL     1      -9.893  14.950  66.760  1.00  0.00     0.000 HD 
HETATM   12  C   UNL     1     -11.389  12.395  68.078  1.00  0.00    -0.340 C  
HETATM   13  C   UNL     1     -10.608  11.056  67.522  1.00  0.00    -0.266 C  
HETATM   14  C   UNL     1      -9.555  10.433  68.462  1.00  0.00    -0.161 C  
HETATM   15  C   UNL     1      -8.595   9.590  68.003  1.00  0.00    -0.120 C  
HETATM   16  C   UNL     1      -8.435   9.193  66.541  1.00  0.00    -0.127 C  
HETATM   17  C   UNL     1      -7.596   8.898  68.910  1.00  0.00    -0.087 C  
HETATM   18  C   UNL     1      -9.636   9.532  65.627  1.00  0.00    -0.346 C  
HETATM   19  C   UNL     1      -7.668   9.403  70.334  1.00  0.00    -0.153 C  
HETATM   20  C   UNL     1     -10.706   8.447  65.849  1.00  0.00     2.005 C  
HETATM   21  C   UNL     1     -10.049  10.991  65.937  1.00  0.00    -0.301 C  
HETATM   22  C   UNL     1      -9.048   9.671  70.858  1.00  0.00     0.093 C  
ENDROOT
BRANCH   4  23
HETATM   23  C   UNL     1      -9.851  13.829  64.590  1.00  0.00     0.171 C  
HETATM   24  C   UNL     1      -9.219  14.329  63.697  1.00  0.00     7.878 C  
ENDBRANCH   4  23
TORSDOF 1
ENDMDL
MODEL      115
REMARK 921   NORMALIZED FREE ENERGY PREDICTED BY IDOCK:    9.25 KCAL/MOL
REMARK 922        TOTAL FREE ENERGY PREDICTED BY IDOCK:    9.78 KCAL/MOL
REMARK 923 INTER-LIGAND FREE ENERGY PREDICTED BY IDOCK:    9.74 KCAL/MOL
REMARK 924 INTRA-LIGAND FREE ENERGY PREDICTED BY IDOCK:    0.03 KCAL/MOL
REMARK 927      BINDING AFFINITY PREDICTED BY RF-SCORE:    0.00 PKD
ROOT
HETATM    1  C   UNL     1      -6.863  12.899  67.626  1.00  0.00    -0.149 C  
HETATM    2  C   UNL     1      -6.686  14.117  68.325  1.00  0.00    -0.108 C  
HETATM    3  C   UNL     1      -7.722  13.179  68.824  1.00  0.00    -0.006 C  
HETATM    4  C   UNL     1      -7.528  11.268  68.072  1.00  0.00    -0.095 C  
HETATM    5  C   UNL     1      -7.046  11.797  69.236  1.00  0.00    -0.032 C  
HETATM    6  C   UNL     1     -12.353  11.989  66.891  1.00  0.00     0.825 C  
HETATM    7  O   UNL     1      -8.110  10.037  68.511  1.00  0.00    -0.099 OA 
HETATM    8  C   UNL     1      -8.758  11.622  69.962  1.00  0.00     2.528 C  
HETATM    9  C   UNL     1      -5.854  11.456  70.085  1.00  0.00    -0.142 C  
HETATM   10  O   UNL     1     -13.908  11.466  63.827  1.00  0.00     0.292 OA 
HETATM   11  H   UNL     1      -8.021   9.157  68.165  1.00  0.00     0.000 HD 
HETATM   12  C   UNL     1      -9.981  11.673  68.744  1.00  0.00    -0.147 C  
HETATM   13  C   UNL     1      -9.890  12.651  67.422  1.00  0.00    -0.205 C  
HETATM   14  C   UNL     1     -11.021  12.509  66.382  1.00  0.00    -0.309 C  
HETATM   15  C   UNL     1     -10.881  12.956  65.107  1.00  0.00    -0.320 C  
HETATM   16  C   UNL     1      -9.615  13.608  64.565  1.00  0.00     0.869 C  
HETATM   17  C   UNL     1     -11.997  12.904  64.083  1.00  0.00    -0.491 C  
HETATM   18  C   UNL     1      -8.589  14.054  65.634  1.00  0.00     1.845 C  
HETATM   19  C   UNL     1     -13.198  12.131  64.582  1.00  0.00     0.758 C  
HETATM   20  C   UNL     1      -9.081  15.391  66.217  1.00  0.00    -0.355 C  
HETATM   21  C   UNL     1      -8.426  12.878  66.628  1.00  0.00     0.068 C  
HETATM   22  C   UNL     1     -13.555  12.344  66.023  1.00  0.00     5.115 C  
ENDROOT
BRANCH   4  23
HETATM   23  C   UNL     1      -6.294  10.671  67.331  1.00  0.00    -0.058 C  
HETATM   24  C   UNL     1      -5.333  10.257  66.738  1.00  0.00    -0.041 C  
ENDBRANCH   4  23
TORSDOF 1
ENDMDL
MODEL      116
REMARK 921   NORMALIZED FREE ENERGY PREDICTED BY IDOCK:   11.06 KCAL/MOL
REMARK 922        TOTAL FREE ENERGY PREDICTED BY IDOCK:   11.69 KCAL/MOL
REMARK 923 INTER-LIGAND FREE ENERGY PREDICTED BY IDOCK:   11.64 KCAL/MOL
REMARK 924 INTRA-LIGAND FREE ENERGY PREDICTED BY IDOCK:    0.04 KCAL/MOL
REMARK 927      BINDING AFFINITY PREDICTED BY RF-SCORE:    0.00 PKD
ROOT
HETATM    1  C   UNL     1      -8.108   6.475  63.880  1.00  0.00    -0.025 C  
HETATM    2  C   UNL     1      -8.514   7.504  62.997  1.00  0.00     0.224 C  
HETATM    3  C   UNL     1      -7.710   7.890  64.182  1.00  0.00    -0.132 C  
HETATM    4  C   UNL     1      -6.754   6.296  65.080  1.00  0.00    -0.047 C  
HETATM    5  C   UNL     1      -6.291   7.166  64.133  1.00  0.00    -0.040 C  
HETATM    6  C   UNL     1      -9.020   8.133  69.165  1.00  0.00    -0.144 C  
HETATM    7  O   UNL     1      -5.683   6.274  66.027  1.00  0.00    -0.022 OA 
HETATM    8  C   UNL     1      -6.037   8.424  65.490  1.00  0.00    -0.045 C  
HETATM    9  C   UNL     1      -5.251   7.031  63.057  1.00  0.00    -0.032 C  
HETATM   10  O   UNL     1     -10.935   6.419  71.505  1.00  0.00    -0.244 OA 
HETATM   11  H   UNL     1      -5.243   5.541  66.440  1.00  0.00     0.000 HD 
HETATM   12  C   UNL     1      -7.109   8.163  66.818  1.00  0.00    -0.077 C  
HETATM   13  C   UNL     1      -8.666   7.661  66.628  1.00  0.00    -0.150 C  
HETATM   14  C   UNL     1      -9.464   7.387  67.920  1.00  0.00    -0.150 C  
HETATM   15  C   UNL     1     -10.590   6.629  67.919  1.00  0.00    -0.305 C  
HETATM   16  C   UNL     1     -11.167   5.957  66.678  1.00  0.00     0.080 C  
HETATM   17  C   UNL     1     -11.441   6.405  69.153  1.00  0.00    -0.265 C  
HETATM   18  C   UNL     1     -10.594   6.455  65.329  1.00  0.00     2.942 C  
HETATM   19  C   UNL     1     -10.791   6.953  70.405  1.00  0.00    -0.261 C  
HETATM   20  C   UNL     1     -11.298   7.782  64.991  1.00  0.00    10.469 C  
HETATM   21  C   UNL     1      -9.054   6.500  65.475  1.00  0.00     0.135 C  
HETATM   22  C   UNL     1     -10.085   8.267  70.248  1.00  0.00    -0.195 C  
ENDROOT
BRANCH   4  23
HETATM   23  C   UNL     1      -6.549   4.870  64.487  1.00  0.00    -0.043 C  
HETATM   24  C   UNL     1      -6.397   3.789  63.982  1.00  0.00    -0.030 C  
ENDBRANCH   4  23
TORSDOF 1
ENDMDL
MODEL      117
REMARK 921   NORMALIZED FREE ENERGY PREDICTED BY IDOCK:   12.91 KCAL/MOL
REMARK 922        TOTAL FREE ENERGY PREDICTED BY IDOCK:   13.65 KCAL/MOL
REMARK 923 INTER-LIGAND FREE ENERGY PREDICTED BY IDOCK:   13.67 KCAL/MOL
REMARK 924 INTRA-LIGAND FREE ENERGY PREDICTED BY IDOCK:   -0.02 KCAL/MOL
REMARK 927      BINDING AFFINITY PREDICTED BY RF-SCORE:    0.00 PKD
ROOT
HETATM    1  C   UNL     1     -10.593  12.287  65.519  1.00  0.00    -0.304 C  
HETATM    2  C   UNL     1     -11.215  12.631  64.296  1.00  0.00    -0.410 C  
HETATM    3  C   UNL     1      -9.735  12.535  64.313  1.00  0.00     0.036 C  
HETATM    4  C   UNL     1      -8.997  11.538  65.962  1.00  0.00    -0.176 C  
HETATM    5  C   UNL     1      -9.293  11.059  64.717  1.00  0.00    -0.239 C  
HETATM    6  C   UNL     1      -6.215  15.696  66.368  1.00  0.00     2.101 C  
HETATM    7  O   UNL     1      -7.701  10.984  66.205  1.00  0.00    -0.158 OA 
HETATM    8  C   UNL     1      -7.685  11.793  64.112  1.00  0.00     2.574 C  
HETATM    9  C   UNL     1      -9.706   9.700  64.227  1.00  0.00     0.185 C  
HETATM   10  O   UNL     1      -5.734  17.685  69.177  1.00  0.00    -0.181 OA 
HETATM   11  H   UNL     1      -7.362  10.525  66.964  1.00  0.00     0.000 HD 
HETATM   12  C   UNL     1      -7.197  13.146  65.065  1.00  0.00     9.428 C  
HETATM   13  C   UNL     1      -8.262  14.239  65.683  1.00  0.00     3.149 C  
HETATM   14  C   UNL     1      -7.673  15.339  66.591  1.00  0.00     0.198 C  
HETATM   15  C   UNL     1      -8.448  16.052  67.448  1.00  0.00    -0.187 C  
HETATM   16  C   UNL     1      -9.946  15.835  67.627  1.00  0.00    -0.239 C  
HETATM   17  C   UNL     1      -7.917  17.191  68.295  1.00  0.00    -0.236 C  
HETATM   18  C   UNL     1     -10.627  14.980  66.531  1.00  0.00    -0.305 C  
HETATM   19  C   UNL     1      -6.411  17.308  68.220  1.00  0.00    -0.161 C  
HETATM   20  C   UNL     1     -10.860  15.893  65.313  1.00  0.00    -0.401 C  
HETATM   21  C   UNL     1      -9.739  13.732  66.308  1.00  0.00    -0.297 C  
HETATM   22  C   UNL     1      -5.808  17.078  66.865  1.00  0.00    -0.225 C  
ENDROOT
BRANCH   4  23
HETATM   23  C   UNL     1      -9.801  10.654  66.962  1.00  0.00    -0.222 C  
HETATM   24  C   UNL     1     -10.389   9.985  67.770  1.00  0.00    -0.261 C  
ENDBRANCH   4  23
TORSDOF 1
ENDMDL
MODEL      118
REMARK 921   NORMALIZED FREE ENERGY PREDICTED BY IDOCK:   14.02 KCAL/MOL
REMARK 922        TOTAL FREE ENERGY PREDICTED BY IDOCK:   14.83 KCAL/MOL
REMARK 923 INTER-LIGAND FREE ENERGY PREDICTED BY IDOCK:   14.85 KCAL/MOL
REMARK 924 INTRA-LIGAND FREE ENERGY PREDICTED BY IDOCK:   -0.02 KCAL/MOL
REMARK 927      BINDING AFFINITY PREDICTED BY RF-SCORE:    0.00 PKD
ROOT
HETATM    1  C   UNL     1      -8.609  16.311  70.327  1.00  0.00     1.824 C  
HETATM    2  C   UNL     1      -9.618  15.610  71.029  1.00  0.00     1.956 C  
HETATM    3  C   UNL     1      -9.372  15.232  69.616  1.00  0.00    -0.161 C  
HETATM    4  C   UNL     1      -7.576  15.932  68.881  1.00  0.00    -0.190 C  
HETATM    5  C   UNL     1      -7.872  14.723  69.445  1.00  0.00    -0.083 C  
HETATM    6  C   UNL     1     -10.549  17.711  65.249  1.00  0.00     0.171 C  
HETATM    7  O   UNL     1      -6.844  15.554  67.711  1.00  0.00    -0.130 OA 
HETATM    8  C   UNL     1      -8.641  14.214  67.821  1.00  0.00    -0.184 C  
HETATM    9  C   UNL     1      -7.039  13.729  70.204  1.00  0.00     0.584 C  
HETATM   10  O   UNL     1     -10.661  20.937  63.962  1.00  0.00     2.263 OA 
HETATM   11  H   UNL     1      -6.018  15.876  67.373  1.00  0.00     0.000 HD 
HETATM   12  C   UNL     1      -9.213  15.574  66.926  1.00  0.00    -0.257 C  
HETATM   13  C   UNL     1      -9.911  16.886  67.636  1.00  0.00    -0.271 C  
HETATM   14  C   UNL     1     -10.285  18.057  66.703  1.00  0.00    -0.375 C  
HETATM   15  C   UNL     1     -10.505  19.309  67.179  1.00  0.00    -0.560 C  
HETATM   16  C   UNL     1     -10.386  19.698  68.648  1.00  0.00    -0.404 C  
HETATM   17  C   UNL     1     -10.950  20.463  66.303  1.00  0.00     0.536 C  
HETATM   18  C   UNL     1     -10.328  18.515  69.644  1.00  0.00     0.643 C  
HETATM   19  C   UNL     1     -10.929  20.108  64.832  1.00  0.00     0.939 C  
HETATM   20  C   UNL     1     -11.770  18.013  69.848  1.00  0.00     4.923 C  
HETATM   21  C   UNL     1      -9.308  17.495  69.083  1.00  0.00     0.015 C  
HETATM   22  C   UNL     1     -11.398  18.725  64.491  1.00  0.00     4.048 C  
ENDROOT
BRANCH   4  23
HETATM   23  C   UNL     1      -6.385  16.507  69.704  1.00  0.00    -0.216 C  
HETATM   24  C   UNL     1      -5.453  16.981  70.299  1.00  0.00    -0.225 C  
ENDBRANCH   4  23
TORSDOF 1
ENDMDL
MODEL      119
REMARK 921   NORMALIZED FREE ENERGY PREDICTED BY IDOCK:   24.03 KCAL/MOL
REMARK 922        TOTAL FREE ENERGY PREDICTED BY IDOCK:   25.43 KCAL/MOL
REMARK 923 INTER-LIGAND FREE ENERGY PREDICTED BY IDOCK:   25.40 KCAL/MOL
REMARK 924 INTRA-LIGAND FREE ENERGY PREDICTED BY IDOCK:    0.03 KCAL/MOL
REMARK 927      BINDING AFFINITY PREDICTED BY RF-SCORE:    0.00 PKD
ROOT
HETATM    1  C   UNL     1      -8.936  12.185  70.374  1.00  0.00     5.468 C  
HETATM    2  C   UNL     1      -9.723  12.086  71.547  1.00  0.00    12.764 C  
HETATM    3  C   UNL     1      -9.788  10.965  70.577  1.00  0.00     1.852 C  
HETATM    4  C   UNL     1      -8.243  10.975  69.209  1.00  0.00     0.021 C  
HETATM    5  C   UNL     1      -8.343  10.317  70.403  1.00  0.00     0.589 C  
HETATM    6  C   UNL     1     -12.051  10.688  65.951  1.00  0.00     3.209 C  
HETATM    7  O   UNL     1      -7.781   9.946  68.329  1.00  0.00    -0.084 OA 
HETATM    8  C   UNL     1      -9.437   9.061  69.557  1.00  0.00    -0.164 C  
HETATM    9  C   UNL     1      -7.311   9.843  71.387  1.00  0.00     0.937 C  
HETATM   10  O   UNL     1     -12.613  12.647  63.136  1.00  0.00    -0.610 OA 
HETATM   11  H   UNL     1      -7.070   9.951  67.699  1.00  0.00     0.000 HD 
HETATM   12  C   UNL     1     -10.265   9.737  68.202  1.00  0.00    -0.220 C  
HETATM   13  C   UNL     1     -10.846  11.278  68.183  1.00  0.00    -0.263 C  
HETATM   14  C   UNL     1     -11.479  11.759  66.861  1.00  0.00    -0.364 C  
HETATM   15  C   UNL     1     -11.646  13.078  66.586  1.00  0.00    -0.410 C  
HETATM   16  C   UNL     1     -11.214  14.206  67.515  1.00  0.00    -0.323 C  
HETATM   17  C   UNL     1     -12.335  13.583  65.334  1.00  0.00    -0.517 C  
HETATM   18  C   UNL     1     -10.872  13.778  68.963  1.00  0.00    -0.247 C  
HETATM   19  C   UNL     1     -12.633  12.470  64.354  1.00  0.00    -0.410 C  
HETATM   20  C   UNL     1     -12.203  13.606  69.719  1.00  0.00    -0.350 C  
HETATM   21  C   UNL     1      -9.958  12.533  68.866  1.00  0.00     0.080 C  
HETATM   22  C   UNL     1     -13.099  11.179  64.960  1.00  0.00     4.608 C  
ENDROOT
BRANCH   4  23
HETATM   23  C   UNL     1      -6.926  11.802  69.286  1.00  0.00    -0.065 C  
HETATM   24  C   UNL     1      -5.937  12.483  69.355  1.00  0.00    -0.101 C  
ENDBRANCH   4  23
TORSDOF 1
ENDMDL
MODEL      120
REMARK 921   NORMALIZED FREE ENERGY PREDICTED BY IDOCK:   26.38 KCAL/MOL
REMARK 922        TOTAL FREE ENERGY PREDICTED BY IDOCK:   27.90 KCAL/MOL
REMARK 923 INTER-LIGAND FREE ENERGY PREDICTED BY IDOCK:   27.91 KCAL/MOL
REMARK 924 INTRA-LIGAND FREE ENERGY PREDICTED BY IDOCK:   -0.00 KCAL/MOL
REMARK 927      BINDING AFFINITY PREDICTED BY RF-SCORE:    0.00 PKD
ROOT
HETATM    1  C   UNL     1      -9.949  15.649  70.554  1.00  0.00     0.418 C  
HETATM    2  C   UNL     1      -9.106  16.561  69.876  1.00  0.00     0.876 C  
HETATM    3  C   UNL     1      -9.795  15.527  69.066  1.00  0.00    -0.235 C  
HETATM    4  C   UNL     1     -11.362  14.619  70.055  1.00  0.00    -0.242 C  
HETATM    5  C   UNL     1     -11.373  15.691  69.207  1.00  0.00    -0.348 C  
HETATM    6  C   UNL     1      -8.911  10.461  68.679  1.00  0.00    -0.142 C  
HETATM    7  O   UNL     1     -12.434  13.818  69.552  1.00  0.00    -0.308 OA 
HETATM    8  C   UNL     1     -11.235  14.495  67.780  1.00  0.00    -0.312 C  
HETATM    9  C   UNL     1     -12.292  16.874  69.084  1.00  0.00     2.342 C  
HETATM   10  O   UNL     1      -8.007   7.753  70.661  1.00  0.00    -0.094 OA 
HETATM   11  H   UNL     1     -13.155  13.400  70.007  1.00  0.00     0.000 HD 
HETATM   12  C   UNL     1     -10.460  13.024  68.245  1.00  0.00    -0.258 C  
HETATM   13  C   UNL     1      -9.207  12.969  69.312  1.00  0.00     0.906 C  
HETATM   14  C   UNL     1      -8.687  11.568  69.693  1.00  0.00     1.146 C  
HETATM   15  C   UNL     1      -7.944  11.358  70.810  1.00  0.00     4.551 C  
HETATM   16  C   UNL     1      -7.570  12.451  71.804  1.00  0.00    10.578 C  
HETATM   17  C   UNL     1      -7.352  10.011  71.172  1.00  0.00     0.798 C  
HETATM   18  C   UNL     1      -7.793  13.901  71.310  1.00  0.00     5.084 C  
HETATM   19  C   UNL     1      -7.842   8.906  70.262  1.00  0.00    -0.104 C  
HETATM   20  C   UNL     1      -6.606  14.264  70.398  1.00  0.00    -0.001 C  
HETATM   21  C   UNL     1      -9.203  13.955  70.675  1.00  0.00     4.238 C  
HETATM   22  C   UNL     1      -7.971   9.268  68.812  1.00  0.00    -0.099 C  
ENDROOT
BRANCH   4  23
HETATM   23  C   UNL     1     -12.051  15.104  71.365  1.00  0.00    -0.397 C  
HETATM   24  C   UNL     1     -12.629  15.473  72.354  1.00  0.00    -0.490 C  
ENDBRANCH   4  23
TORSDOF 1
ENDMDL
MODEL      121
REMARK 921   NORMALIZED FREE ENERGY PREDICTED BY IDOCK:   34.81 KCAL/MOL
REMARK 922        TOTAL FREE ENERGY PREDICTED BY IDOCK:   36.83 KCAL/MOL
REMARK 923 INTER-LIGAND FREE ENERGY PREDICTED BY IDOCK:   36.79 KCAL/MOL
REMARK 924 INTRA-LIGAND FREE ENERGY PREDICTED BY IDOCK:    0.04 KCAL/MOL
REMARK 927      BINDING AFFINITY PREDICTED BY RF-SCORE:    0.00 PKD
ROOT
HETATM    1  C   UNL     1     -11.970  10.874  70.145  1.00  0.00    -0.435 C  
HETATM    2  C   UNL     1     -11.344   9.687  70.595  1.00  0.00    -0.379 C  
HETATM    3  C   UNL     1     -10.478  10.856  70.305  1.00  0.00     0.483 C  
HETATM    4  C   UNL     1     -11.516  12.634  70.173  1.00  0.00     0.078 C  
HETATM    5  C   UNL     1     -10.881  12.076  71.247  1.00  0.00     4.706 C  
HETATM    6  C   UNL     1      -9.079  12.932  65.796  1.00  0.00     0.347 C  
HETATM    7  O   UNL     1     -11.047  13.985  70.207  1.00  0.00    -0.471 OA 
HETATM    8  C   UNL     1      -9.262  12.663  70.526  1.00  0.00     6.650 C  
HETATM    9  C   UNL     1     -11.107  12.190  72.728  1.00  0.00    11.328 C  
HETATM   10  O   UNL     1     -10.396  13.619  62.654  1.00  0.00     3.928 OA 
HETATM   11  H   UNL     1     -11.525  14.803  70.146  1.00  0.00     0.000 HD 
HETATM   12  C   UNL     1      -9.340  12.817  68.809  1.00  0.00     0.137 C  
HETATM   13  C   UNL     1     -10.180  11.774  67.852  1.00  0.00    -0.203 C  
HETATM   14  C   UNL     1     -10.226  12.104  66.346  1.00  0.00    -0.245 C  
HETATM   15  C   UNL     1     -11.165  11.570  65.523  1.00  0.00    -0.204 C  
HETATM   16  C   UNL     1     -12.268  10.625  65.986  1.00  0.00     3.810 C  
HETATM   17  C   UNL     1     -11.191  11.811  64.027  1.00  0.00    -0.461 C  
HETATM   18  C   UNL     1     -12.075  10.023  67.398  1.00  0.00     3.317 C  
HETATM   19  C   UNL     1     -10.185  12.855  63.596  1.00  0.00     0.168 C  
HETATM   20  C   UNL     1     -11.073   8.861  67.271  1.00  0.00     0.338 C  
HETATM   21  C   UNL     1     -11.679  11.186  68.340  1.00  0.00    -0.349 C  
HETATM   22  C   UNL     1      -8.858  12.805  64.293  1.00  0.00     2.369 C  
ENDROOT
BRANCH   4  23
HETATM   23  C   UNL     1     -12.980  12.903  70.635  1.00  0.00     0.077 C  
HETATM   24  C   UNL     1     -14.116  13.059  70.999  1.00  0.00     1.799 C  
ENDBRANCH   4  23
TORSDOF 1
ENDMDL
MODEL      122
REMARK 921   NORMALIZED FREE ENERGY PREDICTED BY IDOCK:   36.19 KCAL/MOL
REMARK 922        TOTAL FREE ENERGY PREDICTED BY IDOCK:   38.29 KCAL/MOL
REMARK 923 INTER-LIGAND FREE ENERGY PREDICTED BY IDOCK:   38.29 KCAL/MOL
REMARK 924 INTRA-LIGAND FREE ENERGY PREDICTED BY IDOCK:    0.00 KCAL/MOL
REMARK 927      BINDING AFFINITY PREDICTED BY RF-SCORE:    0.00 PKD
ROOT
HETATM    1  C   UNL     1      -7.869  17.295  66.003  1.00  0.00    -0.210 C  
HETATM    2  C   UNL     1      -8.204  16.611  64.810  1.00  0.00     5.709 C  
HETATM    3  C   UNL     1      -9.215  16.640  65.895  1.00  0.00    -0.175 C  
HETATM    4  C   UNL     1      -8.836  18.071  67.332  1.00  0.00    -0.245 C  
HETATM    5  C   UNL     1      -9.621  18.146  66.216  1.00  0.00    -0.246 C  
HETATM    6  C   UNL     1      -9.344  14.130  70.398  1.00  0.00     2.521 C  
HETATM    7  O   UNL     1      -9.687  18.614  68.345  1.00  0.00    -0.328 OA 
HETATM    8  C   UNL     1     -10.931  17.187  67.139  1.00  0.00     0.040 C  
HETATM    9  C   UNL     1     -10.036  19.300  65.347  1.00  0.00     0.509 C  
HETATM   10  O   UNL     1      -7.209  13.107  72.942  1.00  0.00     5.706 OA 
HETATM   11  H   UNL     1      -9.513  19.272  69.006  1.00  0.00     0.000 HD 
HETATM   12  C   UNL     1     -10.248  16.182  68.365  1.00  0.00    -0.240 C  
HETATM   13  C   UNL     1      -8.817  15.389  68.180  1.00  0.00    -0.170 C  
HETATM   14  C   UNL     1      -8.300  14.605  69.405  1.00  0.00     0.085 C  
HETATM   15  C   UNL     1      -6.999  14.235  69.521  1.00  0.00    -0.083 C  
HETATM   16  C   UNL     1      -5.922  14.565  68.495  1.00  0.00    -0.093 C  
HETATM   17  C   UNL     1      -6.474  13.398  70.671  1.00  0.00     0.439 C  
HETATM   18  C   UNL     1      -6.442  15.061  67.124  1.00  0.00     0.360 C  
HETATM   19  C   UNL     1      -7.512  13.194  71.753  1.00  0.00     7.953 C  
HETATM   20  C   UNL     1      -6.887  13.823  66.324  1.00  0.00     3.817 C  
HETATM   21  C   UNL     1      -7.522  16.134  67.407  1.00  0.00    -0.199 C  
HETATM   22  C   UNL     1      -8.913  12.958  71.272  1.00  0.00    13.700 C  
ENDROOT
BRANCH   4  23
HETATM   23  C   UNL     1      -7.835  19.261  67.231  1.00  0.00    -0.279 C  
HETATM   24  C   UNL     1      -7.028  20.152  67.180  1.00  0.00    -0.280 C  
ENDBRANCH   4  23
TORSDOF 1
ENDMDL
MODEL      123
REMARK 921   NORMALIZED FREE ENERGY PREDICTED BY IDOCK:   40.07 KCAL/MOL
REMARK 922        TOTAL FREE ENERGY PREDICTED BY IDOCK:   42.39 KCAL/MOL
REMARK 923 INTER-LIGAND FREE ENERGY PREDICTED BY IDOCK:   42.41 KCAL/MOL
REMARK 924 INTRA-LIGAND FREE ENERGY PREDICTED BY IDOCK:   -0.02 KCAL/MOL
REMARK 927      BINDING AFFINITY PREDICTED BY RF-SCORE:    0.00 PKD
ROOT
HETATM    1  C   UNL     1     -11.981  10.848  64.606  1.00  0.00     1.701 C  
HETATM    2  C   UNL     1     -13.213  10.405  64.068  1.00  0.00     7.532 C  
HETATM    3  C   UNL     1     -13.260  11.332  65.225  1.00  0.00     5.358 C  
HETATM    4  C   UNL     1     -11.471  12.300  65.574  1.00  0.00    -0.361 C  
HETATM    5  C   UNL     1     -12.553  12.708  64.845  1.00  0.00    -0.525 C  
HETATM    6  C   UNL     1     -12.199  10.505  70.204  1.00  0.00    -0.358 C  
HETATM    7  O   UNL     1     -11.183  13.453  66.368  1.00  0.00    -0.296 OA 
HETATM    8  C   UNL     1     -13.404  13.140  66.450  1.00  0.00     2.632 C  
HETATM    9  C   UNL     1     -12.691  13.636  63.671  1.00  0.00     0.163 C  
HETATM   10  O   UNL     1      -9.958   8.748  72.196  1.00  0.00    -0.320 OA 
HETATM   11  H   UNL     1     -10.360  13.899  66.528  1.00  0.00     0.000 HD 
HETATM   12  C   UNL     1     -12.819  12.187  67.765  1.00  0.00     2.839 C  
HETATM   13  C   UNL     1     -12.409  10.600  67.610  1.00  0.00     2.471 C  
HETATM   14  C   UNL     1     -11.816   9.916  68.859  1.00  0.00     0.410 C  
HETATM   15  C   UNL     1     -11.102   8.764  68.774  1.00  0.00     0.215 C  
HETATM   16  C   UNL     1     -10.792   8.046  67.466  1.00  0.00    -0.132 C  
HETATM   17  C   UNL     1     -10.573   8.024  69.987  1.00  0.00    -0.242 C  
HETATM   18  C   UNL     1     -11.619   8.510  66.243  1.00  0.00     4.658 C  
HETATM   19  C   UNL     1     -10.761   8.810  71.265  1.00  0.00    -0.269 C  
HETATM   20  C   UNL     1     -12.999   7.834  66.337  1.00  0.00    14.804 C  
HETATM   21  C   UNL     1     -11.599  10.058  66.239  1.00  0.00     2.120 C  
HETATM   22  C   UNL     1     -12.059   9.553  71.386  1.00  0.00    -0.459 C  
ENDROOT
BRANCH   4  23
HETATM   23  C   UNL     1     -10.250  12.389  64.611  1.00  0.00    -0.312 C  
HETATM   24  C   UNL     1      -9.276  12.463  63.909  1.00  0.00     0.781 C  
ENDBRANCH   4  23
TORSDOF 1
ENDMDL
MODEL      124
REMARK 921   NORMALIZED FREE ENERGY PREDICTED BY IDOCK:   40.88 KCAL/MOL
REMARK 922        TOTAL FREE ENERGY PREDICTED BY IDOCK:   43.25 KCAL/MOL
REMARK 923 INTER-LIGAND FREE ENERGY PREDICTED BY IDOCK:   43.25 KCAL/MOL
REMARK 924 INTRA-LIGAND FREE ENERGY PREDICTED BY IDOCK:    0.00 KCAL/MOL
REMARK 927      BINDING AFFINITY PREDICTED BY RF-SCORE:    0.00 PKD
ROOT
HETATM    1  C   UNL     1     -10.804  17.082  66.999  1.00  0.00    -0.048 C  
HETATM    2  C   UNL     1     -11.375  16.119  66.133  1.00  0.00     0.376 C  
HETATM    3  C   UNL     1     -11.841  16.142  67.541  1.00  0.00     0.556 C  
HETATM    4  C   UNL     1     -11.346  17.878  68.540  1.00  0.00     1.023 C  
HETATM    5  C   UNL     1     -12.494  17.557  67.872  1.00  0.00     3.900 C  
HETATM    6  C   UNL     1      -9.472  14.614  71.860  1.00  0.00     5.081 C  
HETATM    7  O   UNL     1     -11.845  18.413  69.769  1.00  0.00     4.190 OA 
HETATM    8  C   UNL     1     -13.006  16.539  69.352  1.00  0.00     2.987 C  
HETATM    9  C   UNL     1     -13.524  18.395  67.169  1.00  0.00     9.910 C  
HETATM   10  O   UNL     1      -6.314  14.609  73.310  1.00  0.00     0.471 OA 
HETATM   11  H   UNL     1     -11.617  19.212  70.229  1.00  0.00     0.000 HD 
HETATM   12  C   UNL     1     -11.642  15.972  70.245  1.00  0.00    -0.335 C  
HETATM   13  C   UNL     1     -10.239  15.489  69.531  1.00  0.00    -0.279 C  
HETATM   14  C   UNL     1      -9.084  15.097  70.475  1.00  0.00     1.228 C  
HETATM   15  C   UNL     1      -7.795  15.050  70.050  1.00  0.00     0.256 C  
HETATM   16  C   UNL     1      -7.350  15.395  68.634  1.00  0.00    -0.127 C  
HETATM   17  C   UNL     1      -6.648  14.593  70.928  1.00  0.00     0.299 C  
HETATM   18  C   UNL     1      -8.485  15.483  67.585  1.00  0.00    -0.177 C  
HETATM   19  C   UNL     1      -7.072  14.389  72.366  1.00  0.00     3.443 C  
HETATM   20  C   UNL     1      -8.841  14.044  67.169  1.00  0.00    -0.239 C  
HETATM   21  C   UNL     1      -9.621  16.329  68.211  1.00  0.00    -0.218 C  
HETATM   22  C   UNL     1      -8.421  13.762  72.562  1.00  0.00    11.678 C  
ENDROOT
BRANCH   4  23
HETATM   23  C   UNL     1     -10.845  19.213  67.911  1.00  0.00    -0.302 C  
HETATM   24  C   UNL     1     -10.410  20.229  67.437  1.00  0.00    -0.424 C  
ENDBRANCH   4  23
TORSDOF 1
ENDMDL
