MODEL        1
REMARK 921   NORMALIZED FREE ENERGY PREDICTED BY IDOCK:   -7.16 KCAL/MOL
REMARK 922        TOTAL FREE ENERGY PREDICTED BY IDOCK:  -13.41 KCAL/MOL
REMARK 923 INTER-LIGAND FREE ENERGY PREDICTED BY IDOCK:  -11.34 KCAL/MOL
REMARK 924 INTRA-LIGAND FREE ENERGY PREDICTED BY IDOCK:   -2.06 KCAL/MOL
REMARK 927      BINDING AFFINITY PREDICTED BY RF-SCORE:    0.00 PKD
ROOT
HETATM    1  C   UNL     1     -10.006  10.613  64.288  1.00  0.00    -0.413 C  
HETATM    2  C   UNL     1     -10.274  11.806  63.381  1.00  0.00    -0.482 C  
ENDROOT
BRANCH   2   3
HETATM    3  C   UNL     1     -10.763  13.033  64.157  1.00  0.00    -0.402 C  
BRANCH   3   4
HETATM    4  S   UNL     1     -12.231  12.566  65.141  1.00  0.00    -0.389 SA 
BRANCH   4   5
HETATM    5  C   UNL     1     -11.832  13.322  66.701  1.00  0.00    -0.395 A  
HETATM    6  N   UNL     1     -11.417  14.608  66.641  1.00  0.00    -0.358 NA 
HETATM    7  C   UNL     1     -11.118  15.097  67.857  1.00  0.00    -0.321 A  
HETATM    8  C   UNL     1     -11.203  14.423  69.060  1.00  0.00    -0.264 A  
HETATM    9  N   UNL     1     -10.848  15.254  70.086  1.00  0.00    -0.281 NA 
HETATM   10  C   UNL     1     -11.674  13.102  69.031  1.00  0.00    -0.321 A  
HETATM   11  N   UNL     1     -11.985  12.571  67.813  1.00  0.00    -0.429 NA 
HETATM   12  N   UNL     1     -10.563  16.446  69.569  1.00  0.00    -0.308 NA 
HETATM   13  N   UNL     1     -10.754  16.367  68.226  1.00  0.00    -0.322 NA 
BRANCH  10  14
HETATM   14  N   UNL     1     -11.867  12.377  70.225  1.00  0.00    -0.534 NA 
HETATM   15  H   UNL     1     -11.831  12.843  71.132  1.00  0.00     0.000 HD 
BRANCH  14  16
HETATM   16  C   UNL     1     -12.121  10.938  70.131  1.00  0.00    -0.349 C  
HETATM   17  C   UNL     1     -10.997   9.946  70.345  1.00  0.00    -0.379 C  
HETATM   18  C   UNL     1     -12.103  10.076  71.358  1.00  0.00    -0.498 C  
BRANCH  17  19
HETATM   19  C   UNL     1     -10.896   8.778  69.395  1.00  0.00    -0.123 A  
HETATM   20  C   UNL     1     -10.901   6.396  68.898  1.00  0.00    -0.325 A  
HETATM   21  C   UNL     1     -11.017   7.444  69.813  1.00  0.00    -0.215 A  
HETATM   22  F   UNL     1     -11.034   5.135  69.328  1.00  0.00    -0.250 F  
HETATM   23  C   UNL     1     -10.654   6.658  67.557  1.00  0.00    -0.281 A  
HETATM   24  C   UNL     1     -10.638   9.013  68.029  1.00  0.00    -0.242 A  
HETATM   25  F   UNL     1     -10.541   5.649  66.684  1.00  0.00    -0.250 F  
HETATM   26  C   UNL     1     -10.518   7.964  67.114  1.00  0.00    -0.414 A  
ENDBRANCH  17  19
ENDBRANCH  14  16
ENDBRANCH  10  14
BRANCH  13  27
HETATM   27  C   UNL     1     -10.601  17.586  67.459  1.00  0.00    -0.333 C  
HETATM   28  C   UNL     1      -9.517  17.484  66.373  1.00  0.00    -0.276 C  
HETATM   29  C   UNL     1      -8.221  17.861  67.092  1.00  0.00    -0.216 C  
HETATM   30  H   UNL     1     -10.612  20.750  68.065  1.00  0.00     0.000 HD 
HETATM   31  C   UNL     1      -8.665  18.993  68.053  1.00  0.00    -0.306 C  
HETATM   32  H   UNL     1      -8.647  20.996  68.121  1.00  0.00     0.000 HD 
HETATM   33  O   UNL     1     -10.862  19.965  67.592  1.00  0.00    -0.337 OA 
HETATM   34  C   UNL     1     -10.199  18.849  68.220  1.00  0.00    -0.380 C  
HETATM   35  O   UNL     1      -8.375  20.303  67.532  1.00  0.00    -0.325 OA 
BRANCH  29  36
HETATM   36  O   UNL     1      -7.685  16.764  67.841  1.00  0.00    -0.165 OA 
BRANCH  36  37
HETATM   37  C   UNL     1      -7.305  15.643  67.028  1.00  0.00    -0.168 C  
BRANCH  37  38
HETATM   38  C   UNL     1      -7.597  14.344  67.774  1.00  0.00    -0.164 C  
HETATM   39  H   UNL     1      -7.782  13.766  69.641  1.00  0.00     0.000 HD 
HETATM   40  O   UNL     1      -7.600  14.575  69.177  1.00  0.00    -0.131 OA 
ENDBRANCH  37  38
ENDBRANCH  36  37
ENDBRANCH  29  36
ENDBRANCH  13  27
ENDBRANCH   4   5
ENDBRANCH   3   4
ENDBRANCH   2   3
TORSDOF 10
ENDMDL
MODEL        2
REMARK 921   NORMALIZED FREE ENERGY PREDICTED BY IDOCK:   -7.10 KCAL/MOL
REMARK 922        TOTAL FREE ENERGY PREDICTED BY IDOCK:  -13.32 KCAL/MOL
REMARK 923 INTER-LIGAND FREE ENERGY PREDICTED BY IDOCK:  -11.32 KCAL/MOL
REMARK 924 INTRA-LIGAND FREE ENERGY PREDICTED BY IDOCK:   -1.99 KCAL/MOL
REMARK 927      BINDING AFFINITY PREDICTED BY RF-SCORE:    0.00 PKD
ROOT
HETATM    1  C   UNL     1     -13.429  12.369  71.987  1.00  0.00    -0.460 C  
HETATM    2  C   UNL     1     -13.821  13.772  72.427  1.00  0.00    -0.681 C  
ENDROOT
BRANCH   2   3
HETATM    3  C   UNL     1     -13.886  14.757  71.254  1.00  0.00    -0.390 C  
BRANCH   3   4
HETATM    4  S   UNL     1     -12.317  15.694  71.181  1.00  0.00    -0.442 SA 
BRANCH   4   5
HETATM    5  C   UNL     1     -11.840  15.398  69.492  1.00  0.00    -0.349 A  
HETATM    6  N   UNL     1     -11.310  16.455  68.837  1.00  0.00    -0.311 NA 
HETATM    7  C   UNL     1     -10.997  16.153  67.565  1.00  0.00    -0.238 A  
HETATM    8  C   UNL     1     -11.166  14.931  66.942  1.00  0.00    -0.343 A  
HETATM    9  N   UNL     1     -10.701  14.995  65.658  1.00  0.00    -0.333 NA 
HETATM   10  C   UNL     1     -11.693  13.881  67.708  1.00  0.00    -0.366 A  
HETATM   11  N   UNL     1     -12.027  14.152  69.003  1.00  0.00    -0.341 NA 
HETATM   12  N   UNL     1     -10.218  16.217  65.456  1.00  0.00    -0.498 NA 
HETATM   13  N   UNL     1     -10.365  16.913  66.614  1.00  0.00    -0.310 NA 
BRANCH  10  14
HETATM   14  N   UNL     1     -11.818  12.584  67.168  1.00  0.00    -0.490 NA 
HETATM   15  H   UNL     1     -12.510  12.384  66.445  1.00  0.00     0.000 HD 
BRANCH  14  16
HETATM   16  C   UNL     1     -10.931  11.533  67.670  1.00  0.00    -0.242 C  
HETATM   17  C   UNL     1     -11.505  10.261  68.256  1.00  0.00    -0.149 C  
HETATM   18  C   UNL     1     -10.788  10.236  66.932  1.00  0.00    -0.205 C  
BRANCH  17  19
HETATM   19  C   UNL     1     -10.889   9.727  69.525  1.00  0.00    -0.264 A  
HETATM   20  C   UNL     1     -11.034   8.875  71.800  1.00  0.00    -0.361 A  
HETATM   21  C   UNL     1     -11.652   9.349  70.641  1.00  0.00    -0.330 A  
HETATM   22  F   UNL     1     -11.792   8.510  72.842  1.00  0.00    -0.427 F  
HETATM   23  C   UNL     1      -9.651   8.777  71.870  1.00  0.00    -0.302 A  
HETATM   24  C   UNL     1      -9.487   9.625  69.628  1.00  0.00    -0.226 A  
HETATM   25  F   UNL     1      -9.063   8.324  72.984  1.00  0.00    -0.265 F  
HETATM   26  C   UNL     1      -8.868   9.153  70.788  1.00  0.00    -0.291 A  
ENDBRANCH  17  19
ENDBRANCH  14  16
ENDBRANCH  10  14
BRANCH  13  27
HETATM   27  C   UNL     1      -9.811  18.251  66.662  1.00  0.00    -0.352 C  
HETATM   28  C   UNL     1      -8.375  18.329  66.117  1.00  0.00    -0.159 C  
HETATM   29  C   UNL     1      -7.492  18.000  67.321  1.00  0.00    -0.199 C  
HETATM   30  H   UNL     1      -9.859  20.733  68.715  1.00  0.00     0.000 HD 
HETATM   31  C   UNL     1      -8.226  18.692  68.498  1.00  0.00    -0.341 C  
HETATM   32  H   UNL     1      -8.098  20.390  69.555  1.00  0.00     0.000 HD 
HETATM   33  O   UNL     1      -9.935  20.322  67.862  1.00  0.00    -0.396 OA 
HETATM   34  C   UNL     1      -9.689  18.911  68.034  1.00  0.00    -0.337 C  
HETATM   35  O   UNL     1      -7.648  19.966  68.834  1.00  0.00    -0.283 OA 
BRANCH  29  36
HETATM   36  O   UNL     1      -7.411  16.589  67.556  1.00  0.00    -0.127 OA 
BRANCH  36  37
HETATM   37  C   UNL     1      -7.165  16.247  68.930  1.00  0.00    -0.190 C  
BRANCH  37  38
HETATM   38  C   UNL     1      -8.035  15.058  69.327  1.00  0.00    -0.190 C  
HETATM   39  H   UNL     1      -8.704  13.416  68.481  1.00  0.00     0.000 HD 
HETATM   40  O   UNL     1      -8.162  14.157  68.233  1.00  0.00    -0.133 OA 
ENDBRANCH  37  38
ENDBRANCH  36  37
ENDBRANCH  29  36
ENDBRANCH  13  27
ENDBRANCH   4   5
ENDBRANCH   3   4
ENDBRANCH   2   3
TORSDOF 10
ENDMDL
MODEL        3
REMARK 921   NORMALIZED FREE ENERGY PREDICTED BY IDOCK:   -6.92 KCAL/MOL
REMARK 922        TOTAL FREE ENERGY PREDICTED BY IDOCK:  -13.03 KCAL/MOL
REMARK 923 INTER-LIGAND FREE ENERGY PREDICTED BY IDOCK:  -11.96 KCAL/MOL
REMARK 924 INTRA-LIGAND FREE ENERGY PREDICTED BY IDOCK:   -1.07 KCAL/MOL
REMARK 927      BINDING AFFINITY PREDICTED BY RF-SCORE:    0.00 PKD
ROOT
HETATM    1  C   UNL     1      -7.183   9.947  62.331  1.00  0.00    -0.127 C  
HETATM    2  C   UNL     1      -6.901   8.840  63.338  1.00  0.00    -0.089 C  
ENDROOT
BRANCH   2   3
HETATM    3  C   UNL     1      -8.154   8.422  64.115  1.00  0.00    -0.145 C  
BRANCH   3   4
HETATM    4  S   UNL     1      -7.751   8.356  65.898  1.00  0.00    -0.089 SA 
BRANCH   4   5
HETATM    5  C   UNL     1      -9.108   9.288  66.573  1.00  0.00    -0.154 A  
HETATM    6  N   UNL     1      -9.518  10.346  65.837  1.00  0.00    -0.179 NA 
HETATM    7  C   UNL     1     -10.529  11.007  66.426  1.00  0.00    -0.258 A  
HETATM    8  C   UNL     1     -11.126  10.695  67.633  1.00  0.00    -0.319 A  
HETATM    9  N   UNL     1     -12.142  11.572  67.890  1.00  0.00    -0.605 NA 
HETATM   10  C   UNL     1     -10.658   9.560  68.313  1.00  0.00    -0.216 A  
HETATM   11  N   UNL     1      -9.628   8.867  67.746  1.00  0.00    -0.144 NA 
HETATM   12  N   UNL     1     -12.224  12.418  66.868  1.00  0.00    -0.454 NA 
HETATM   13  N   UNL     1     -11.272  12.063  65.964  1.00  0.00    -0.325 NA 
BRANCH  10  14
HETATM   14  N   UNL     1     -11.271   9.130  69.508  1.00  0.00    -0.437 NA 
HETATM   15  H   UNL     1     -11.618   8.176  69.604  1.00  0.00     0.000 HD 
BRANCH  14  16
HETATM   16  C   UNL     1     -11.395  10.089  70.608  1.00  0.00    -0.348 C  
HETATM   17  C   UNL     1     -12.743  10.680  70.961  1.00  0.00    -0.512 C  
HETATM   18  C   UNL     1     -12.074   9.699  71.887  1.00  0.00    -0.380 C  
BRANCH  17  19
HETATM   19  C   UNL     1     -12.812  12.158  71.252  1.00  0.00    -0.349 A  
HETATM   20  C   UNL     1     -12.250  14.477  70.777  1.00  0.00    -0.333 A  
HETATM   21  C   UNL     1     -12.169  13.121  70.458  1.00  0.00    -0.405 A  
HETATM   22  F   UNL     1     -11.636  15.372  69.992  1.00  0.00    -0.241 F  
HETATM   23  C   UNL     1     -12.963  14.897  71.893  1.00  0.00    -0.333 A  
HETATM   24  C   UNL     1     -13.523  12.612  72.382  1.00  0.00    -0.450 A  
HETATM   25  F   UNL     1     -13.035  16.199  72.196  1.00  0.00    -0.492 F  
HETATM   26  C   UNL     1     -13.601  13.969  72.703  1.00  0.00    -0.623 A  
ENDBRANCH  17  19
ENDBRANCH  14  16
ENDBRANCH  10  14
BRANCH  13  27
HETATM   27  C   UNL     1     -11.241  12.788  64.711  1.00  0.00    -0.305 C  
HETATM   28  C   UNL     1      -9.932  13.565  64.495  1.00  0.00    -0.018 C  
HETATM   29  C   UNL     1     -10.170  14.911  65.183  1.00  0.00    -0.375 C  
HETATM   30  H   UNL     1     -13.315  14.518  62.954  1.00  0.00     0.000 HD 
HETATM   31  C   UNL     1     -11.655  15.214  64.863  1.00  0.00    -0.336 C  
HETATM   32  H   UNL     1     -12.716  16.307  63.560  1.00  0.00     0.000 HD 
HETATM   33  O   UNL     1     -12.651  13.853  63.091  1.00  0.00    -0.775 OA 
HETATM   34  C   UNL     1     -12.310  13.858  64.492  1.00  0.00    -0.372 C  
HETATM   35  O   UNL     1     -11.806  16.121  63.755  1.00  0.00    -0.885 OA 
BRANCH  29  36
HETATM   36  O   UNL     1      -9.981  14.829  66.601  1.00  0.00    -0.250 OA 
BRANCH  36  37
HETATM   37  C   UNL     1      -8.644  15.142  67.022  1.00  0.00    -0.237 C  
BRANCH  37  38
HETATM   38  C   UNL     1      -8.520  14.943  68.531  1.00  0.00    -0.163 C  
HETATM   39  H   UNL     1      -8.223  16.070  70.111  1.00  0.00     0.000 HD 
HETATM   40  O   UNL     1      -8.300  16.194  69.172  1.00  0.00    -0.237 OA 
ENDBRANCH  37  38
ENDBRANCH  36  37
ENDBRANCH  29  36
ENDBRANCH  13  27
ENDBRANCH   4   5
ENDBRANCH   3   4
ENDBRANCH   2   3
TORSDOF 10
ENDMDL
MODEL        4
REMARK 921   NORMALIZED FREE ENERGY PREDICTED BY IDOCK:   -6.90 KCAL/MOL
REMARK 922        TOTAL FREE ENERGY PREDICTED BY IDOCK:  -12.99 KCAL/MOL
REMARK 923 INTER-LIGAND FREE ENERGY PREDICTED BY IDOCK:  -11.29 KCAL/MOL
REMARK 924 INTRA-LIGAND FREE ENERGY PREDICTED BY IDOCK:   -1.70 KCAL/MOL
REMARK 927      BINDING AFFINITY PREDICTED BY RF-SCORE:    0.00 PKD
ROOT
HETATM    1  C   UNL     1     -13.250  15.873  73.167  1.00  0.00    -0.692 C  
HETATM    2  C   UNL     1     -11.902  16.157  72.519  1.00  0.00    -0.630 C  
ENDROOT
BRANCH   2   3
HETATM    3  C   UNL     1     -11.628  15.246  71.317  1.00  0.00    -0.380 C  
BRANCH   3   4
HETATM    4  S   UNL     1     -12.970  14.011  71.190  1.00  0.00    -0.312 SA 
BRANCH   4   5
HETATM    5  C   UNL     1     -12.274  12.896  69.991  1.00  0.00    -0.222 A  
HETATM    6  N   UNL     1     -11.994  11.651  70.439  1.00  0.00    -0.370 NA 
HETATM    7  C   UNL     1     -11.454  10.880  69.479  1.00  0.00    -0.301 A  
HETATM    8  C   UNL     1     -11.192  11.252  68.174  1.00  0.00    -0.286 A  
HETATM    9  N   UNL     1     -10.673  10.192  67.484  1.00  0.00    -0.277 NA 
HETATM   10  C   UNL     1     -11.546  12.553  67.787  1.00  0.00    -0.343 A  
HETATM   11  N   UNL     1     -12.093  13.365  68.737  1.00  0.00    -0.310 NA 
HETATM   12  N   UNL     1     -10.621   9.150  68.308  1.00  0.00    -0.202 NA 
HETATM   13  N   UNL     1     -11.120   9.551  69.507  1.00  0.00    -0.191 NA 
BRANCH  10  14
HETATM   14  N   UNL     1     -11.386  12.979  66.452  1.00  0.00    -0.304 NA 
HETATM   15  H   UNL     1     -11.201  12.307  65.708  1.00  0.00     0.000 HD 
BRANCH  14  16
HETATM   16  C   UNL     1     -11.494  14.410  66.162  1.00  0.00    -0.357 C  
HETATM   17  C   UNL     1     -10.252  15.270  66.072  1.00  0.00    -0.335 C  
HETATM   18  C   UNL     1     -11.054  14.956  64.837  1.00  0.00    -0.424 C  
BRANCH  17  19
HETATM   19  C   UNL     1     -10.279  16.622  66.739  1.00  0.00    -0.301 A  
HETATM   20  C   UNL     1     -10.306  19.055  66.683  1.00  0.00    -0.428 A  
HETATM   21  C   UNL     1     -10.297  17.827  66.019  1.00  0.00    -0.304 A  
HETATM   22  F   UNL     1     -10.337  20.185  65.966  1.00  0.00    -0.523 F  
HETATM   23  C   UNL     1     -10.289  19.104  68.071  1.00  0.00    -0.393 A  
HETATM   24  C   UNL     1     -10.254  16.703  68.147  1.00  0.00    -0.280 A  
HETATM   25  F   UNL     1     -10.295  20.284  68.702  1.00  0.00    -0.537 F  
HETATM   26  C   UNL     1     -10.259  17.932  68.811  1.00  0.00    -0.362 A  
ENDBRANCH  17  19
ENDBRANCH  14  16
ENDBRANCH  10  14
BRANCH  13  27
HETATM   27  C   UNL     1     -11.257   8.545  70.540  1.00  0.00    -0.242 C  
HETATM   28  C   UNL     1     -10.597   8.950  71.869  1.00  0.00    -0.419 C  
HETATM   29  C   UNL     1      -9.143   8.497  71.725  1.00  0.00    -0.235 C  
HETATM   30  H   UNL     1     -11.130   5.330  70.710  1.00  0.00     0.000 HD 
HETATM   31  C   UNL     1      -9.263   7.156  70.959  1.00  0.00    -0.158 C  
HETATM   32  H   UNL     1      -9.265   5.193  71.363  1.00  0.00     0.000 HD 
HETATM   33  O   UNL     1     -11.507   6.185  70.880  1.00  0.00    -0.315 OA 
HETATM   34  C   UNL     1     -10.650   7.169  70.266  1.00  0.00    -0.227 C  
HETATM   35  O   UNL     1      -9.191   6.015  71.833  1.00  0.00    -0.150 OA 
BRANCH  29  36
HETATM   36  O   UNL     1      -8.365   9.429  70.963  1.00  0.00    -0.294 OA 
BRANCH  36  37
HETATM   37  C   UNL     1      -7.468   8.803  70.032  1.00  0.00    -0.054 C  
BRANCH  37  38
HETATM   38  C   UNL     1      -7.266   9.713  68.823  1.00  0.00    -0.072 C  
HETATM   39  H   UNL     1      -6.425  11.448  68.451  1.00  0.00     0.000 HD 
HETATM   40  O   UNL     1      -6.551  10.882  69.204  1.00  0.00    -0.055 OA 
ENDBRANCH  37  38
ENDBRANCH  36  37
ENDBRANCH  29  36
ENDBRANCH  13  27
ENDBRANCH   4   5
ENDBRANCH   3   4
ENDBRANCH   2   3
TORSDOF 10
ENDMDL
MODEL        5
REMARK 921   NORMALIZED FREE ENERGY PREDICTED BY IDOCK:   -6.85 KCAL/MOL
REMARK 922        TOTAL FREE ENERGY PREDICTED BY IDOCK:  -12.92 KCAL/MOL
REMARK 923 INTER-LIGAND FREE ENERGY PREDICTED BY IDOCK:  -11.42 KCAL/MOL
REMARK 924 INTRA-LIGAND FREE ENERGY PREDICTED BY IDOCK:   -1.50 KCAL/MOL
REMARK 927      BINDING AFFINITY PREDICTED BY RF-SCORE:    0.00 PKD
ROOT
HETATM    1  C   UNL     1     -14.283  15.468  72.452  1.00  0.00    -0.571 C  
HETATM    2  C   UNL     1     -12.929  15.539  73.144  1.00  0.00    -0.634 C  
ENDROOT
BRANCH   2   3
HETATM    3  C   UNL     1     -11.762  15.501  72.151  1.00  0.00    -0.476 C  
BRANCH   3   4
HETATM    4  S   UNL     1     -12.409  15.090  70.491  1.00  0.00    -0.383 SA 
BRANCH   4   5
HETATM    5  C   UNL     1     -10.897  15.043  69.554  1.00  0.00    -0.262 A  
HETATM    6  N   UNL     1     -10.224  16.213  69.466  1.00  0.00    -0.262 NA 
HETATM    7  C   UNL     1      -9.107  16.097  68.727  1.00  0.00    -0.229 A  
HETATM    8  C   UNL     1      -8.645  14.951  68.108  1.00  0.00    -0.159 A  
HETATM    9  N   UNL     1      -7.461  15.210  67.475  1.00  0.00    -0.181 NA 
HETATM   10  C   UNL     1      -9.389  13.775  68.280  1.00  0.00    -0.209 A  
HETATM   11  N   UNL     1     -10.533  13.857  69.022  1.00  0.00    -0.183 NA 
HETATM   12  N   UNL     1      -7.146  16.483  67.696  1.00  0.00    -0.125 NA 
HETATM   13  N   UNL     1      -8.121  17.017  68.478  1.00  0.00    -0.241 NA 
BRANCH  10  14
HETATM   14  N   UNL     1      -8.938  12.549  67.749  1.00  0.00    -0.175 NA 
HETATM   15  H   UNL     1      -8.689  12.467  66.764  1.00  0.00     0.000 HD 
BRANCH  14  16
HETATM   16  C   UNL     1      -8.838  11.397  68.647  1.00  0.00    -0.125 C  
HETATM   17  C   UNL     1      -9.426  10.061  68.249  1.00  0.00    -0.147 C  
HETATM   18  C   UNL     1      -7.933  10.248  68.318  1.00  0.00    -0.106 C  
BRANCH  17  19
HETATM   19  C   UNL     1     -10.199   9.291  69.290  1.00  0.00    -0.211 A  
HETATM   20  C   UNL     1     -11.225   7.259  70.150  1.00  0.00    -0.239 A  
HETATM   21  C   UNL     1     -10.493   7.924  69.165  1.00  0.00    -0.218 A  
HETATM   22  F   UNL     1     -11.478   5.951  70.006  1.00  0.00    -0.435 F  
HETATM   23  C   UNL     1     -11.684   7.943  71.268  1.00  0.00    -0.287 A  
HETATM   24  C   UNL     1     -10.684   9.961  70.433  1.00  0.00    -0.379 A  
HETATM   25  F   UNL     1     -12.389   7.301  72.208  1.00  0.00    -0.302 F  
HETATM   26  C   UNL     1     -11.421   9.296  71.416  1.00  0.00    -0.439 A  
ENDBRANCH  17  19
ENDBRANCH  14  16
ENDBRANCH  10  14
BRANCH  13  27
HETATM   27  C   UNL     1      -7.937  18.378  68.936  1.00  0.00    -0.189 C  
HETATM   28  C   UNL     1      -9.104  19.306  68.558  1.00  0.00    -0.425 C  
HETATM   29  C   UNL     1      -8.752  19.808  67.156  1.00  0.00    -0.323 C  
HETATM   30  H   UNL     1      -5.492  20.467  69.145  1.00  0.00     0.000 HD 
HETATM   31  C   UNL     1      -7.216  19.999  67.223  1.00  0.00    -0.251 C  
HETATM   32  H   UNL     1      -5.900  21.485  67.495  1.00  0.00     0.000 HD 
HETATM   33  O   UNL     1      -6.250  19.995  69.471  1.00  0.00    -0.300 OA 
HETATM   34  C   UNL     1      -6.718  19.136  68.411  1.00  0.00    -0.260 C  
HETATM   35  O   UNL     1      -6.841  21.369  67.455  1.00  0.00    -0.573 OA 
BRANCH  29  36
HETATM   36  O   UNL     1      -9.083  18.848  66.145  1.00  0.00    -0.434 OA 
BRANCH  36  37
HETATM   37  C   UNL     1     -10.454  18.422  66.183  1.00  0.00    -0.395 C  
BRANCH  37  38
HETATM   38  C   UNL     1     -10.564  16.995  65.653  1.00  0.00    -0.197 C  
HETATM   39  H   UNL     1     -11.136  16.114  63.993  1.00  0.00     0.000 HD 
HETATM   40  O   UNL     1     -11.067  17.003  64.323  1.00  0.00    -1.092 OA 
ENDBRANCH  37  38
ENDBRANCH  36  37
ENDBRANCH  29  36
ENDBRANCH  13  27
ENDBRANCH   4   5
ENDBRANCH   3   4
ENDBRANCH   2   3
TORSDOF 10
ENDMDL
MODEL        6
REMARK 921   NORMALIZED FREE ENERGY PREDICTED BY IDOCK:   -6.83 KCAL/MOL
REMARK 922        TOTAL FREE ENERGY PREDICTED BY IDOCK:  -12.88 KCAL/MOL
REMARK 923 INTER-LIGAND FREE ENERGY PREDICTED BY IDOCK:  -11.29 KCAL/MOL
REMARK 924 INTRA-LIGAND FREE ENERGY PREDICTED BY IDOCK:   -1.60 KCAL/MOL
REMARK 927      BINDING AFFINITY PREDICTED BY RF-SCORE:    0.00 PKD
ROOT
HETATM    1  C   UNL     1     -13.511  15.883  72.941  1.00  0.00    -0.637 C  
HETATM    2  C   UNL     1     -12.052  16.232  72.678  1.00  0.00    -0.628 C  
ENDROOT
BRANCH   2   3
HETATM    3  C   UNL     1     -11.630  15.935  71.235  1.00  0.00    -0.452 C  
BRANCH   3   4
HETATM    4  S   UNL     1     -12.831  14.771  70.494  1.00  0.00    -0.279 SA 
BRANCH   4   5
HETATM    5  C   UNL     1     -12.119  14.555  68.877  1.00  0.00    -0.237 A  
HETATM    6  N   UNL     1     -11.638  15.676  68.293  1.00  0.00    -0.353 NA 
HETATM    7  C   UNL     1     -11.137  15.430  67.070  1.00  0.00    -0.273 A  
HETATM    8  C   UNL     1     -11.088  14.206  66.430  1.00  0.00    -0.320 A  
HETATM    9  N   UNL     1     -10.479  14.341  65.214  1.00  0.00    -0.364 NA 
HETATM   10  C   UNL     1     -11.581  13.092  67.125  1.00  0.00    -0.358 A  
HETATM   11  N   UNL     1     -12.100  13.304  68.369  1.00  0.00    -0.289 NA 
HETATM   12  N   UNL     1     -10.118  15.613  65.073  1.00  0.00    -0.400 NA 
HETATM   13  N   UNL     1     -10.485  16.271  66.204  1.00  0.00    -0.329 NA 
BRANCH  10  14
HETATM   14  N   UNL     1     -11.490  11.797  66.573  1.00  0.00    -0.456 NA 
HETATM   15  H   UNL     1     -11.995  11.556  65.720  1.00  0.00     0.000 HD 
BRANCH  14  16
HETATM   16  C   UNL     1     -10.652  10.808  67.254  1.00  0.00    -0.257 C  
HETATM   17  C   UNL     1     -10.435   9.438  66.648  1.00  0.00    -0.238 C  
HETATM   18  C   UNL     1      -9.308  10.435  66.703  1.00  0.00    -0.185 C  
BRANCH  17  19
HETATM   19  C   UNL     1     -10.510   8.241  67.563  1.00  0.00    -0.325 A  
HETATM   20  C   UNL     1     -10.498   7.206  69.765  1.00  0.00    -0.225 A  
HETATM   21  C   UNL     1     -10.439   8.346  68.960  1.00  0.00    -0.216 A  
HETATM   22  F   UNL     1     -10.441   7.341  71.096  1.00  0.00    -0.208 F  
HETATM   23  C   UNL     1     -10.618   5.946  69.192  1.00  0.00    -0.299 A  
HETATM   24  C   UNL     1     -10.624   6.949  67.009  1.00  0.00    -0.403 A  
HETATM   25  F   UNL     1     -10.670   4.857  69.968  1.00  0.00    -0.316 F  
HETATM   26  C   UNL     1     -10.679   5.809  67.814  1.00  0.00    -0.306 A  
ENDBRANCH  17  19
ENDBRANCH  14  16
ENDBRANCH  10  14
BRANCH  13  27
HETATM   27  C   UNL     1     -10.098  17.662  66.321  1.00  0.00    -0.341 C  
HETATM   28  C   UNL     1      -8.574  17.861  66.379  1.00  0.00    -0.254 C  
HETATM   29  C   UNL     1      -8.228  17.718  67.862  1.00  0.00    -0.237 C  
HETATM   30  H   UNL     1     -11.151  20.260  67.908  1.00  0.00     0.000 HD 
HETATM   31  C   UNL     1      -9.422  18.403  68.573  1.00  0.00    -0.334 C  
HETATM   32  H   UNL     1      -9.856  20.174  69.404  1.00  0.00     0.000 HD 
HETATM   33  O   UNL     1     -10.848  19.784  67.143  1.00  0.00    -0.452 OA 
HETATM   34  C   UNL     1     -10.587  18.426  67.550  1.00  0.00    -0.416 C  
HETATM   35  O   UNL     1      -9.124  19.755  68.968  1.00  0.00    -0.257 OA 
BRANCH  29  36
HETATM   36  O   UNL     1      -8.143  16.344  68.261  1.00  0.00    -0.161 OA 
BRANCH  36  37
HETATM   37  C   UNL     1      -7.103  15.614  67.592  1.00  0.00    -0.168 C  
BRANCH  37  38
HETATM   38  C   UNL     1      -7.545  14.168  67.380  1.00  0.00    -0.158 C  
HETATM   39  H   UNL     1      -8.589  12.823  68.358  1.00  0.00     0.000 HD 
HETATM   40  O   UNL     1      -8.314  13.723  68.491  1.00  0.00    -0.155 OA 
ENDBRANCH  37  38
ENDBRANCH  36  37
ENDBRANCH  29  36
ENDBRANCH  13  27
ENDBRANCH   4   5
ENDBRANCH   3   4
ENDBRANCH   2   3
TORSDOF 10
ENDMDL
MODEL        7
REMARK 921   NORMALIZED FREE ENERGY PREDICTED BY IDOCK:   -6.77 KCAL/MOL
REMARK 922        TOTAL FREE ENERGY PREDICTED BY IDOCK:  -12.79 KCAL/MOL
REMARK 923 INTER-LIGAND FREE ENERGY PREDICTED BY IDOCK:  -11.47 KCAL/MOL
REMARK 924 INTRA-LIGAND FREE ENERGY PREDICTED BY IDOCK:   -1.32 KCAL/MOL
REMARK 927      BINDING AFFINITY PREDICTED BY RF-SCORE:    0.00 PKD
ROOT
HETATM    1  C   UNL     1     -12.283  15.283  74.077  1.00  0.00    -0.746 C  
HETATM    2  C   UNL     1     -13.376  15.904  73.218  1.00  0.00    -0.660 C  
ENDROOT
BRANCH   2   3
HETATM    3  C   UNL     1     -13.552  15.177  71.881  1.00  0.00    -0.445 C  
BRANCH   3   4
HETATM    4  S   UNL     1     -13.703  13.382  72.197  1.00  0.00    -0.521 SA 
BRANCH   4   5
HETATM    5  C   UNL     1     -12.638  12.737  70.926  1.00  0.00    -0.255 A  
HETATM    6  N   UNL     1     -11.940  13.656  70.222  1.00  0.00    -0.335 NA 
HETATM    7  C   UNL     1     -11.177  13.089  69.272  1.00  0.00    -0.199 A  
HETATM    8  C   UNL     1     -11.072  11.739  68.996  1.00  0.00    -0.246 A  
HETATM    9  N   UNL     1     -10.175  11.539  67.984  1.00  0.00    -0.186 NA 
HETATM   10  C   UNL     1     -11.807  10.854  69.799  1.00  0.00    -0.345 A  
HETATM   11  N   UNL     1     -12.597  11.395  70.772  1.00  0.00    -0.337 NA 
HETATM   12  N   UNL     1      -9.690  12.723  67.625  1.00  0.00    -0.200 NA 
HETATM   13  N   UNL     1     -10.268  13.662  68.420  1.00  0.00    -0.242 NA 
BRANCH  10  14
HETATM   14  N   UNL     1     -11.689   9.459  69.634  1.00  0.00    -0.389 NA 
HETATM   15  H   UNL     1     -11.962   9.011  68.759  1.00  0.00     0.000 HD 
BRANCH  14  16
HETATM   16  C   UNL     1     -11.162   8.669  70.749  1.00  0.00    -0.261 C  
HETATM   17  C   UNL     1     -10.106   7.612  70.509  1.00  0.00    -0.189 C  
HETATM   18  C   UNL     1      -9.763   8.882  71.242  1.00  0.00    -0.359 C  
BRANCH  17  19
HETATM   19  C   UNL     1     -10.263   6.285  71.208  1.00  0.00    -0.238 A  
HETATM   20  C   UNL     1      -9.888   3.888  71.394  1.00  0.00    -0.172 A  
HETATM   21  C   UNL     1      -9.702   5.095  70.719  1.00  0.00    -0.255 A  
HETATM   22  F   UNL     1      -9.329   2.773  70.908  1.00  0.00    -0.166 F  
HETATM   23  C   UNL     1     -10.642   3.843  72.560  1.00  0.00    -0.049 A  
HETATM   24  C   UNL     1     -11.030   6.208  72.389  1.00  0.00    -0.299 A  
HETATM   25  F   UNL     1     -10.820   2.682  73.202  1.00  0.00    -0.224 F  
HETATM   26  C   UNL     1     -11.219   4.999  73.063  1.00  0.00    -0.383 A  
ENDBRANCH  17  19
ENDBRANCH  14  16
ENDBRANCH  10  14
BRANCH  13  27
HETATM   27  C   UNL     1      -9.810  15.029  68.277  1.00  0.00    -0.219 C  
HETATM   28  C   UNL     1     -10.898  15.977  67.745  1.00  0.00    -0.324 C  
HETATM   29  C   UNL     1     -10.793  15.861  66.223  1.00  0.00    -0.200 C  
HETATM   30  H   UNL     1      -7.124  16.507  67.289  1.00  0.00     0.000 HD 
HETATM   31  C   UNL     1      -9.267  15.745  65.981  1.00  0.00    -0.344 C  
HETATM   32  H   UNL     1      -7.737  16.928  65.453  1.00  0.00     0.000 HD 
HETATM   33  O   UNL     1      -7.849  16.348  67.881  1.00  0.00    -0.148 OA 
HETATM   34  C   UNL     1      -8.643  15.282  67.323  1.00  0.00    -0.190 C  
HETATM   35  O   UNL     1      -8.673  17.000  65.601  1.00  0.00    -0.468 OA 
BRANCH  29  36
HETATM   36  O   UNL     1     -11.458  14.692  65.728  1.00  0.00    -0.342 OA 
BRANCH  36  37
HETATM   37  C   UNL     1     -10.747  14.031  64.669  1.00  0.00    -0.399 C  
BRANCH  37  38
HETATM   38  C   UNL     1     -11.729  13.247  63.803  1.00  0.00    -0.421 C  
HETATM   39  H   UNL     1     -13.293  13.640  62.682  1.00  0.00     0.000 HD 
HETATM   40  O   UNL     1     -12.682  14.128  63.221  1.00  0.00    -0.714 OA 
ENDBRANCH  37  38
ENDBRANCH  36  37
ENDBRANCH  29  36
ENDBRANCH  13  27
ENDBRANCH   4   5
ENDBRANCH   3   4
ENDBRANCH   2   3
TORSDOF 10
ENDMDL
MODEL        8
REMARK 921   NORMALIZED FREE ENERGY PREDICTED BY IDOCK:   -6.70 KCAL/MOL
REMARK 922        TOTAL FREE ENERGY PREDICTED BY IDOCK:  -12.68 KCAL/MOL
REMARK 923 INTER-LIGAND FREE ENERGY PREDICTED BY IDOCK:  -10.93 KCAL/MOL
REMARK 924 INTRA-LIGAND FREE ENERGY PREDICTED BY IDOCK:   -1.74 KCAL/MOL
REMARK 927      BINDING AFFINITY PREDICTED BY RF-SCORE:    0.00 PKD
ROOT
HETATM    1  C   UNL     1     -10.482   5.943  67.319  1.00  0.00    -0.325 C  
HETATM    2  C   UNL     1      -9.126   6.169  66.665  1.00  0.00    -0.146 C  
ENDROOT
BRANCH   2   3
HETATM    3  C   UNL     1      -8.044   6.556  67.680  1.00  0.00    -0.118 C  
BRANCH   3   4
HETATM    4  S   UNL     1      -7.452   8.244  67.300  1.00  0.00    -0.090 SA 
BRANCH   4   5
HETATM    5  C   UNL     1      -8.859   9.205  67.815  1.00  0.00    -0.124 A  
HETATM    6  N   UNL     1      -9.430   9.971  66.858  1.00  0.00    -0.161 NA 
HETATM    7  C   UNL     1     -10.470  10.678  67.333  1.00  0.00    -0.235 A  
HETATM    8  C   UNL     1     -10.950  10.668  68.629  1.00  0.00    -0.246 A  
HETATM    9  N   UNL     1     -12.039  11.488  68.728  1.00  0.00    -0.471 NA 
HETATM   10  C   UNL     1     -10.317   9.819  69.548  1.00  0.00    -0.230 A  
HETATM   11  N   UNL     1      -9.253   9.089  69.102  1.00  0.00    -0.143 NA 
HETATM   12  N   UNL     1     -12.280  11.999  67.524  1.00  0.00    -0.378 NA 
HETATM   13  N   UNL     1     -11.354  11.490  66.669  1.00  0.00    -0.397 NA 
BRANCH  10  14
HETATM   14  N   UNL     1     -10.800   9.692  70.867  1.00  0.00    -0.319 NA 
HETATM   15  H   UNL     1     -10.748  10.473  71.520  1.00  0.00     0.000 HD 
BRANCH  14  16
HETATM   16  C   UNL     1     -11.378   8.410  71.274  1.00  0.00    -0.266 C  
HETATM   17  C   UNL     1     -10.853   7.685  72.495  1.00  0.00    -0.367 C  
HETATM   18  C   UNL     1     -12.223   8.310  72.509  1.00  0.00    -0.367 C  
BRANCH  17  19
HETATM   19  C   UNL     1     -10.638   6.196  72.395  1.00  0.00    -0.243 A  
HETATM   20  C   UNL     1     -10.035   4.182  71.169  1.00  0.00    -0.140 A  
HETATM   21  C   UNL     1     -10.205   5.567  71.217  1.00  0.00    -0.283 A  
HETATM   22  F   UNL     1      -9.608   3.614  70.034  1.00  0.00    -0.225 F  
HETATM   23  C   UNL     1     -10.301   3.401  72.287  1.00  0.00    -0.046 A  
HETATM   24  C   UNL     1     -10.907   5.378  73.511  1.00  0.00    -0.342 A  
HETATM   25  F   UNL     1     -10.139   2.074  72.235  1.00  0.00    -0.187 F  
HETATM   26  C   UNL     1     -10.741   3.991  73.462  1.00  0.00    -0.306 A  
ENDBRANCH  17  19
ENDBRANCH  14  16
ENDBRANCH  10  14
BRANCH  13  27
HETATM   27  C   UNL     1     -11.483  11.831  65.267  1.00  0.00    -0.186 C  
HETATM   28  C   UNL     1     -10.312  12.677  64.741  1.00  0.00    -0.335 C  
HETATM   29  C   UNL     1     -10.714  14.119  65.052  1.00  0.00    -0.416 C  
HETATM   30  H   UNL     1     -13.862  12.715  63.283  1.00  0.00     0.000 HD 
HETATM   31  C   UNL     1     -12.240  14.127  64.786  1.00  0.00    -0.440 C  
HETATM   32  H   UNL     1     -13.505  14.663  63.326  1.00  0.00     0.000 HD 
HETATM   33  O   UNL     1     -13.102  12.206  63.541  1.00  0.00    -0.785 OA 
HETATM   34  C   UNL     1     -12.705  12.650  64.854  1.00  0.00    -0.370 C  
HETATM   35  O   UNL     1     -12.569  14.659  63.489  1.00  0.00    -0.705 OA 
BRANCH  29  36
HETATM   36  O   UNL     1     -10.453  14.465  66.419  1.00  0.00    -0.285 OA 
BRANCH  36  37
HETATM   37  C   UNL     1     -10.897  15.784  66.773  1.00  0.00    -0.254 C  
BRANCH  37  38
HETATM   38  C   UNL     1     -10.002  16.824  66.105  1.00  0.00    -0.327 C  
HETATM   39  H   UNL     1     -10.175  18.181  64.696  1.00  0.00     0.000 HD 
HETATM   40  O   UNL     1     -10.733  17.534  65.112  1.00  0.00    -0.673 OA 
ENDBRANCH  37  38
ENDBRANCH  36  37
ENDBRANCH  29  36
ENDBRANCH  13  27
ENDBRANCH   4   5
ENDBRANCH   3   4
ENDBRANCH   2   3
TORSDOF 10
ENDMDL
MODEL        9
REMARK 921   NORMALIZED FREE ENERGY PREDICTED BY IDOCK:   -6.68 KCAL/MOL
REMARK 922        TOTAL FREE ENERGY PREDICTED BY IDOCK:  -12.65 KCAL/MOL
REMARK 923 INTER-LIGAND FREE ENERGY PREDICTED BY IDOCK:  -11.06 KCAL/MOL
REMARK 924 INTRA-LIGAND FREE ENERGY PREDICTED BY IDOCK:   -1.59 KCAL/MOL
REMARK 927      BINDING AFFINITY PREDICTED BY RF-SCORE:    0.00 PKD
ROOT
HETATM    1  C   UNL     1     -13.712  13.602  72.395  1.00  0.00    -0.697 C  
HETATM    2  C   UNL     1     -14.146  14.926  71.782  1.00  0.00    -0.609 C  
ENDROOT
BRANCH   2   3
HETATM    3  C   UNL     1     -13.118  15.475  70.787  1.00  0.00    -0.390 C  
BRANCH   3   4
HETATM    4  S   UNL     1     -12.000  14.120  70.281  1.00  0.00    -0.339 SA 
BRANCH   4   5
HETATM    5  C   UNL     1     -11.675  14.578  68.593  1.00  0.00    -0.329 A  
HETATM    6  N   UNL     1     -11.298  15.862  68.394  1.00  0.00    -0.362 NA 
HETATM    7  C   UNL     1     -11.093  16.131  67.094  1.00  0.00    -0.053 A  
HETATM    8  C   UNL     1     -11.230  15.249  66.038  1.00  0.00    -0.231 A  
HETATM    9  N   UNL     1     -10.904  15.872  64.866  1.00  0.00    -0.563 NA 
HETATM   10  C   UNL     1     -11.593  13.928  66.340  1.00  0.00    -0.367 A  
HETATM   11  N   UNL     1     -11.813  13.620  67.651  1.00  0.00    -0.361 NA 
HETATM   12  N   UNL     1     -10.540  17.119  65.150  1.00  0.00    -0.682 NA 
HETATM   13  N   UNL     1     -10.623  17.273  66.498  1.00  0.00    -0.237 NA 
BRANCH  10  14
HETATM   14  N   UNL     1     -11.672  12.951  65.327  1.00  0.00    -0.344 NA 
HETATM   15  H   UNL     1     -12.556  12.751  64.860  1.00  0.00     0.000 HD 
BRANCH  14  16
HETATM   16  C   UNL     1     -10.451  12.228  64.961  1.00  0.00    -0.290 C  
HETATM   17  C   UNL     1     -10.532  10.928  64.191  1.00  0.00    -0.397 C  
HETATM   18  C   UNL     1      -9.994  12.172  63.534  1.00  0.00    -0.341 C  
BRANCH  17  19
HETATM   19  C   UNL     1      -9.643   9.791  64.630  1.00  0.00    -0.244 A  
HETATM   20  C   UNL     1      -7.886   8.153  64.242  1.00  0.00    -0.137 A  
HETATM   21  C   UNL     1      -8.674   9.214  63.794  1.00  0.00    -0.150 A  
HETATM   22  F   UNL     1      -6.962   7.634  63.424  1.00  0.00    -0.058 F  
HETATM   23  C   UNL     1      -8.056   7.642  65.523  1.00  0.00    -0.130 A  
HETATM   24  C   UNL     1      -9.798   9.247  65.922  1.00  0.00    -0.335 A  
HETATM   25  F   UNL     1      -7.299   6.622  65.946  1.00  0.00    -0.071 F  
HETATM   26  C   UNL     1      -9.012   8.182  66.369  1.00  0.00    -0.207 A  
ENDBRANCH  17  19
ENDBRANCH  14  16
ENDBRANCH  10  14
BRANCH  13  27
HETATM   27  C   UNL     1     -10.172  18.533  67.053  1.00  0.00    -0.380 C  
HETATM   28  C   UNL     1      -8.977  19.134  66.294  1.00  0.00    -0.320 C  
HETATM   29  C   UNL     1      -7.751  18.493  66.945  1.00  0.00    -0.227 C  
HETATM   30  H   UNL     1      -9.764  19.783  69.994  1.00  0.00     0.000 HD 
HETATM   31  C   UNL     1      -8.139  18.428  68.444  1.00  0.00    -0.308 C  
HETATM   32  H   UNL     1      -7.812  19.470  70.124  1.00  0.00     0.000 HD 
HETATM   33  O   UNL     1     -10.067  19.786  69.093  1.00  0.00    -0.438 OA 
HETATM   34  C   UNL     1      -9.685  18.528  68.501  1.00  0.00    -0.367 C  
HETATM   35  O   UNL     1      -7.574  19.510  69.206  1.00  0.00    -0.343 OA 
BRANCH  29  36
HETATM   36  O   UNL     1      -7.506  17.173  66.444  1.00  0.00    -0.251 OA 
BRANCH  36  37
HETATM   37  C   UNL     1      -7.045  16.253  67.446  1.00  0.00    -0.168 C  
BRANCH  37  38
HETATM   38  C   UNL     1      -7.754  14.912  67.279  1.00  0.00    -0.197 C  
HETATM   39  H   UNL     1      -8.636  13.595  68.438  1.00  0.00     0.000 HD 
HETATM   40  O   UNL     1      -8.195  14.430  68.542  1.00  0.00    -0.142 OA 
ENDBRANCH  37  38
ENDBRANCH  36  37
ENDBRANCH  29  36
ENDBRANCH  13  27
ENDBRANCH   4   5
ENDBRANCH   3   4
ENDBRANCH   2   3
TORSDOF 10
ENDMDL
MODEL       10
REMARK 921   NORMALIZED FREE ENERGY PREDICTED BY IDOCK:   -6.63 KCAL/MOL
REMARK 922        TOTAL FREE ENERGY PREDICTED BY IDOCK:  -12.56 KCAL/MOL
REMARK 923 INTER-LIGAND FREE ENERGY PREDICTED BY IDOCK:  -11.14 KCAL/MOL
REMARK 924 INTRA-LIGAND FREE ENERGY PREDICTED BY IDOCK:   -1.42 KCAL/MOL
REMARK 927      BINDING AFFINITY PREDICTED BY RF-SCORE:    0.00 PKD
ROOT
HETATM    1  C   UNL     1     -10.756  11.537  63.390  1.00  0.00    -0.444 C  
HETATM    2  C   UNL     1     -12.120  12.209  63.306  1.00  0.00    -0.512 C  
ENDROOT
BRANCH   2   3
HETATM    3  C   UNL     1     -12.158  13.550  64.047  1.00  0.00    -0.441 C  
BRANCH   3   4
HETATM    4  S   UNL     1     -12.483  13.239  65.819  1.00  0.00    -0.349 SA 
BRANCH   4   5
HETATM    5  C   UNL     1     -10.828  13.305  66.470  1.00  0.00    -0.281 A  
HETATM    6  N   UNL     1     -10.262  14.532  66.512  1.00  0.00    -0.273 NA 
HETATM    7  C   UNL     1      -9.009  14.492  66.996  1.00  0.00    -0.240 A  
HETATM    8  C   UNL     1      -8.324  13.368  67.419  1.00  0.00    -0.190 A  
HETATM    9  N   UNL     1      -7.086  13.723  67.877  1.00  0.00    -0.138 NA 
HETATM   10  C   UNL     1      -9.001  12.141  67.371  1.00  0.00    -0.180 A  
HETATM   11  N   UNL     1     -10.275  12.143  66.880  1.00  0.00    -0.208 NA 
HETATM   12  N   UNL     1      -6.974  15.044  67.781  1.00  0.00    -0.158 NA 
HETATM   13  N   UNL     1      -8.144  15.519  67.277  1.00  0.00    -0.180 NA 
BRANCH  10  14
HETATM   14  N   UNL     1      -8.399  10.964  67.861  1.00  0.00    -0.117 NA 
HETATM   15  H   UNL     1      -7.661  10.496  67.336  1.00  0.00     0.000 HD 
BRANCH  14  16
HETATM   16  C   UNL     1      -8.862  10.429  69.144  1.00  0.00    -0.172 C  
HETATM   17  C   UNL     1      -9.781   9.227  69.187  1.00  0.00    -0.164 C  
HETATM   18  C   UNL     1      -8.353   9.113  69.652  1.00  0.00    -0.130 C  
BRANCH  17  19
HETATM   19  C   UNL     1     -10.948   9.265  70.142  1.00  0.00    -0.278 A  
HETATM   20  C   UNL     1     -12.621  10.444  71.458  1.00  0.00    -0.439 A  
HETATM   21  C   UNL     1     -11.553  10.460  70.560  1.00  0.00    -0.433 A  
HETATM   22  F   UNL     1     -13.184  11.602  71.826  1.00  0.00    -0.509 F  
HETATM   23  C   UNL     1     -13.099   9.241  71.960  1.00  0.00    -0.436 A  
HETATM   24  C   UNL     1     -11.450   8.059  70.674  1.00  0.00    -0.237 A  
HETATM   25  F   UNL     1     -14.123   9.231  72.823  1.00  0.00    -0.459 F  
HETATM   26  C   UNL     1     -12.517   8.043  71.576  1.00  0.00    -0.334 A  
ENDBRANCH  17  19
ENDBRANCH  14  16
ENDBRANCH  10  14
BRANCH  13  27
HETATM   27  C   UNL     1      -8.292  16.956  67.179  1.00  0.00    -0.193 C  
HETATM   28  C   UNL     1      -8.364  17.651  68.549  1.00  0.00    -0.291 C  
HETATM   29  C   UNL     1      -9.846  17.599  68.925  1.00  0.00    -0.293 C  
HETATM   30  H   UNL     1      -9.925  19.021  65.322  1.00  0.00     0.000 HD 
HETATM   31  C   UNL     1     -10.563  17.832  67.572  1.00  0.00    -0.359 C  
HETATM   32  H   UNL     1     -11.428  19.339  66.573  1.00  0.00     0.000 HD 
HETATM   33  O   UNL     1      -9.153  18.690  65.766  1.00  0.00    -0.402 OA 
HETATM   34  C   UNL     1      -9.534  17.487  66.465  1.00  0.00    -0.272 C  
HETATM   35  O   UNL     1     -10.988  19.197  67.402  1.00  0.00    -0.475 OA 
BRANCH  29  36
HETATM   36  O   UNL     1     -10.217  16.324  69.463  1.00  0.00    -0.257 OA 
BRANCH  36  37
HETATM   37  C   UNL     1     -11.631  16.076  69.431  1.00  0.00    -0.320 C  
BRANCH  37  38
HETATM   38  C   UNL     1     -12.139  15.814  70.847  1.00  0.00    -0.416 C  
HETATM   39  H   UNL     1     -13.872  15.524  71.724  1.00  0.00     0.000 HD 
HETATM   40  O   UNL     1     -13.556  15.687  70.843  1.00  0.00    -0.568 OA 
ENDBRANCH  37  38
ENDBRANCH  36  37
ENDBRANCH  29  36
ENDBRANCH  13  27
ENDBRANCH   4   5
ENDBRANCH   3   4
ENDBRANCH   2   3
TORSDOF 10
ENDMDL
MODEL       11
REMARK 921   NORMALIZED FREE ENERGY PREDICTED BY IDOCK:   -6.60 KCAL/MOL
REMARK 922        TOTAL FREE ENERGY PREDICTED BY IDOCK:  -12.52 KCAL/MOL
REMARK 923 INTER-LIGAND FREE ENERGY PREDICTED BY IDOCK:  -11.00 KCAL/MOL
REMARK 924 INTRA-LIGAND FREE ENERGY PREDICTED BY IDOCK:   -1.53 KCAL/MOL
REMARK 927      BINDING AFFINITY PREDICTED BY RF-SCORE:    0.00 PKD
ROOT
HETATM    1  C   UNL     1      -9.914  10.520  63.885  1.00  0.00    -0.348 C  
HETATM    2  C   UNL     1     -10.025  11.881  63.213  1.00  0.00    -0.409 C  
ENDROOT
BRANCH   2   3
HETATM    3  C   UNL     1     -10.630  12.943  64.138  1.00  0.00    -0.416 C  
BRANCH   3   4
HETATM    4  S   UNL     1     -11.833  12.139  65.256  1.00  0.00    -0.214 SA 
BRANCH   4   5
HETATM    5  C   UNL     1     -11.556  13.064  66.751  1.00  0.00    -0.368 A  
HETATM    6  N   UNL     1     -11.220  14.364  66.584  1.00  0.00    -0.329 NA 
HETATM    7  C   UNL     1     -11.009  14.983  67.758  1.00  0.00    -0.298 A  
HETATM    8  C   UNL     1     -11.109  14.421  69.017  1.00  0.00    -0.261 A  
HETATM    9  N   UNL     1     -10.856  15.367  69.971  1.00  0.00    -0.284 NA 
HETATM   10  C   UNL     1     -11.496  13.075  69.096  1.00  0.00    -0.299 A  
HETATM   11  N   UNL     1     -11.714  12.412  67.923  1.00  0.00    -0.357 NA 
HETATM   12  N   UNL     1     -10.622  16.521  69.353  1.00  0.00    -0.315 NA 
HETATM   13  N   UNL     1     -10.743  16.303  68.017  1.00  0.00    -0.320 NA 
BRANCH  10  14
HETATM   14  N   UNL     1     -11.700  12.454  70.346  1.00  0.00    -0.540 NA 
HETATM   15  H   UNL     1     -11.521  12.956  71.215  1.00  0.00     0.000 HD 
BRANCH  14  16
HETATM   16  C   UNL     1     -12.176  11.069  70.364  1.00  0.00    -0.373 C  
HETATM   17  C   UNL     1     -11.736  10.121  71.459  1.00  0.00    -0.290 C  
HETATM   18  C   UNL     1     -13.158  10.612  71.401  1.00  0.00    -0.499 C  
BRANCH  17  19
HETATM   19  C   UNL     1     -11.341   8.720  71.063  1.00  0.00    -0.332 A  
HETATM   20  C   UNL     1     -10.997   6.360  71.544  1.00  0.00    -0.263 A  
HETATM   21  C   UNL     1     -11.388   7.636  71.953  1.00  0.00    -0.308 A  
HETATM   22  F   UNL     1     -11.067   5.344  72.413  1.00  0.00    -0.274 F  
HETATM   23  C   UNL     1     -10.546   6.144  70.248  1.00  0.00    -0.258 A  
HETATM   24  C   UNL     1     -10.871   8.473  69.757  1.00  0.00    -0.177 A  
HETATM   25  F   UNL     1     -10.170   4.919  69.861  1.00  0.00    -0.287 F  
HETATM   26  C   UNL     1     -10.477   7.196  69.348  1.00  0.00    -0.232 A  
ENDBRANCH  17  19
ENDBRANCH  14  16
ENDBRANCH  10  14
BRANCH  13  27
HETATM   27  C   UNL     1     -10.630  17.453  67.143  1.00  0.00    -0.264 C  
HETATM   28  C   UNL     1      -9.505  17.312  66.104  1.00  0.00    -0.204 C  
HETATM   29  C   UNL     1      -8.257  17.829  66.822  1.00  0.00    -0.250 C  
HETATM   30  H   UNL     1     -10.835  20.653  67.445  1.00  0.00     0.000 HD 
HETATM   31  C   UNL     1      -8.795  19.017  67.657  1.00  0.00    -0.289 C  
HETATM   32  H   UNL     1      -8.889  21.016  67.536  1.00  0.00     0.000 HD 
HETATM   33  O   UNL     1     -11.024  19.814  67.042  1.00  0.00    -0.435 OA 
HETATM   34  C   UNL     1     -10.325  18.802  67.792  1.00  0.00    -0.411 C  
HETATM   35  O   UNL     1      -8.559  20.287  67.023  1.00  0.00    -0.328 OA 
BRANCH  29  36
HETATM   36  O   UNL     1      -7.689  16.838  67.688  1.00  0.00    -0.161 OA 
BRANCH  36  37
HETATM   37  C   UNL     1      -6.858  17.387  68.723  1.00  0.00    -0.228 C  
BRANCH  37  38
HETATM   38  C   UNL     1      -6.418  16.276  69.672  1.00  0.00    -0.190 C  
HETATM   39  H   UNL     1      -7.016  14.467  70.146  1.00  0.00     0.000 HD 
HETATM   40  O   UNL     1      -7.290  15.158  69.555  1.00  0.00    -0.188 OA 
ENDBRANCH  37  38
ENDBRANCH  36  37
ENDBRANCH  29  36
ENDBRANCH  13  27
ENDBRANCH   4   5
ENDBRANCH   3   4
ENDBRANCH   2   3
TORSDOF 10
ENDMDL
MODEL       12
REMARK 921   NORMALIZED FREE ENERGY PREDICTED BY IDOCK:   -6.58 KCAL/MOL
REMARK 922        TOTAL FREE ENERGY PREDICTED BY IDOCK:  -12.49 KCAL/MOL
REMARK 923 INTER-LIGAND FREE ENERGY PREDICTED BY IDOCK:  -11.30 KCAL/MOL
REMARK 924 INTRA-LIGAND FREE ENERGY PREDICTED BY IDOCK:   -1.19 KCAL/MOL
REMARK 927      BINDING AFFINITY PREDICTED BY RF-SCORE:    0.00 PKD
ROOT
HETATM    1  C   UNL     1     -13.635  15.401  72.647  1.00  0.00    -0.641 C  
HETATM    2  C   UNL     1     -12.464  14.746  71.927  1.00  0.00    -0.410 C  
ENDROOT
BRANCH   2   3
HETATM    3  C   UNL     1     -12.293  15.265  70.495  1.00  0.00    -0.387 C  
BRANCH   3   4
HETATM    4  S   UNL     1     -11.554  13.944  69.470  1.00  0.00    -0.303 SA 
BRANCH   4   5
HETATM    5  C   UNL     1     -11.412  14.784  67.908  1.00  0.00    -0.342 A  
HETATM    6  N   UNL     1     -11.170  16.113  67.976  1.00  0.00    -0.329 NA 
HETATM    7  C   UNL     1     -11.097  16.674  66.757  1.00  0.00     0.218 A  
HETATM    8  C   UNL     1     -11.241  16.029  65.543  1.00  0.00     0.008 A  
HETATM    9  N   UNL     1     -11.070  16.920  64.520  1.00  0.00    -1.071 NA 
HETATM   10  C   UNL     1     -11.457  14.644  65.567  1.00  0.00    -0.341 A  
HETATM   11  N   UNL     1     -11.540  14.040  66.789  1.00  0.00    -0.366 NA 
HETATM   12  N   UNL     1     -10.797  18.108  65.050  1.00  0.00    -0.529 NA 
HETATM   13  N   UNL     1     -10.782  17.961  66.401  1.00  0.00    -0.201 NA 
BRANCH  10  14
HETATM   14  N   UNL     1     -11.531  13.903  64.369  1.00  0.00    -0.485 NA 
HETATM   15  H   UNL     1     -12.223  14.129  63.656  1.00  0.00     0.000 HD 
BRANCH  14  16
HETATM   16  C   UNL     1     -10.587  12.799  64.176  1.00  0.00    -0.415 C  
HETATM   17  C   UNL     1     -10.965  11.389  64.575  1.00  0.00    -0.346 C  
HETATM   18  C   UNL     1     -10.832  11.761  63.122  1.00  0.00    -0.299 C  
BRANCH  17  19
HETATM   19  C   UNL     1      -9.935  10.560  65.301  1.00  0.00    -0.364 A  
HETATM   20  C   UNL     1      -8.660   9.959  67.284  1.00  0.00    -0.125 A  
HETATM   21  C   UNL     1      -9.633  10.741  66.660  1.00  0.00    -0.208 A  
HETATM   22  F   UNL     1      -8.404  10.148  68.585  1.00  0.00    -0.100 F  
HETATM   23  C   UNL     1      -7.967   8.992  66.567  1.00  0.00    -0.103 A  
HETATM   24  C   UNL     1      -9.210   9.577  64.596  1.00  0.00    -0.247 A  
HETATM   25  F   UNL     1      -7.033   8.247  67.170  1.00  0.00    -0.068 F  
HETATM   26  C   UNL     1      -8.234   8.797  65.220  1.00  0.00    -0.145 A  
ENDBRANCH  17  19
ENDBRANCH  14  16
ENDBRANCH  10  14
BRANCH  13  27
HETATM   27  C   UNL     1     -10.402  19.113  67.192  1.00  0.00    -0.420 C  
HETATM   28  C   UNL     1      -9.431  20.055  66.460  1.00  0.00    -0.518 C  
HETATM   29  C   UNL     1      -8.045  19.483  66.763  1.00  0.00    -0.292 C  
HETATM   30  H   UNL     1      -9.669  19.698  70.275  1.00  0.00     0.000 HD 
HETATM   31  C   UNL     1      -8.170  19.012  68.234  1.00  0.00    -0.329 C  
HETATM   32  H   UNL     1      -7.699  19.675  70.066  1.00  0.00     0.000 HD 
HETATM   33  O   UNL     1     -10.115  19.861  69.451  1.00  0.00    -0.357 OA 
HETATM   34  C   UNL     1      -9.686  18.850  68.516  1.00  0.00    -0.387 C  
HETATM   35  O   UNL     1      -7.623  19.964  69.165  1.00  0.00    -0.253 OA 
BRANCH  29  36
HETATM   36  O   UNL     1      -7.729  18.370  65.918  1.00  0.00    -0.470 OA 
BRANCH  36  37
HETATM   37  C   UNL     1      -6.376  18.380  65.435  1.00  0.00    -0.238 C  
BRANCH  37  38
HETATM   38  C   UNL     1      -5.844  19.811  65.427  1.00  0.00    -0.186 C  
HETATM   39  H   UNL     1      -5.648  21.267  64.123  1.00  0.00     0.000 HD 
HETATM   40  O   UNL     1      -5.979  20.376  64.128  1.00  0.00    -0.245 OA 
ENDBRANCH  37  38
ENDBRANCH  36  37
ENDBRANCH  29  36
ENDBRANCH  13  27
ENDBRANCH   4   5
ENDBRANCH   3   4
ENDBRANCH   2   3
TORSDOF 10
ENDMDL
MODEL       13
REMARK 921   NORMALIZED FREE ENERGY PREDICTED BY IDOCK:   -6.51 KCAL/MOL
REMARK 922        TOTAL FREE ENERGY PREDICTED BY IDOCK:  -12.38 KCAL/MOL
REMARK 923 INTER-LIGAND FREE ENERGY PREDICTED BY IDOCK:  -10.65 KCAL/MOL
REMARK 924 INTRA-LIGAND FREE ENERGY PREDICTED BY IDOCK:   -1.73 KCAL/MOL
REMARK 927      BINDING AFFINITY PREDICTED BY RF-SCORE:    0.00 PKD
ROOT
HETATM    1  C   UNL     1     -14.261   7.420  71.613  1.00  0.00    -0.583 C  
HETATM    2  C   UNL     1     -13.639   8.738  72.052  1.00  0.00    -0.469 C  
ENDROOT
BRANCH   2   3
HETATM    3  C   UNL     1     -12.463   9.156  71.163  1.00  0.00    -0.254 C  
BRANCH   3   4
HETATM    4  S   UNL     1     -12.549  10.960  70.875  1.00  0.00    -0.404 SA 
BRANCH   4   5
HETATM    5  C   UNL     1     -11.296  11.150  69.626  1.00  0.00    -0.294 A  
HETATM    6  N   UNL     1     -11.436  12.220  68.811  1.00  0.00    -0.285 NA 
HETATM    7  C   UNL     1     -10.462  12.279  67.886  1.00  0.00    -0.213 A  
HETATM    8  C   UNL     1      -9.416  11.389  67.733  1.00  0.00    -0.165 A  
HETATM    9  N   UNL     1      -8.608  11.793  66.707  1.00  0.00    -0.183 NA 
HETATM   10  C   UNL     1      -9.331  10.326  68.643  1.00  0.00    -0.162 A  
HETATM   11  N   UNL     1     -10.306  10.232  69.594  1.00  0.00    -0.241 NA 
HETATM   12  N   UNL     1      -9.098  12.929  66.220  1.00  0.00    -0.085 NA 
HETATM   13  N   UNL     1     -10.202  13.245  66.948  1.00  0.00    -0.248 NA 
BRANCH  10  14
HETATM   14  N   UNL     1      -8.247   9.424  68.603  1.00  0.00    -0.111 NA 
HETATM   15  H   UNL     1      -7.577   9.447  67.835  1.00  0.00     0.000 HD 
BRANCH  14  16
HETATM   16  C   UNL     1      -8.110   8.454  69.692  1.00  0.00    -0.115 C  
HETATM   17  C   UNL     1      -8.504   7.008  69.484  1.00  0.00    -0.134 C  
HETATM   18  C   UNL     1      -7.055   7.390  69.637  1.00  0.00    -0.072 C  
BRANCH  17  19
HETATM   19  C   UNL     1      -9.287   6.325  70.578  1.00  0.00    -0.171 A  
HETATM   20  C   UNL     1     -10.641   6.352  72.599  1.00  0.00    -0.224 A  
HETATM   21  C   UNL     1      -9.942   7.030  71.599  1.00  0.00    -0.187 A  
HETATM   22  F   UNL     1     -11.266   7.055  73.552  1.00  0.00    -0.279 F  
HETATM   23  C   UNL     1     -10.693   4.964  72.603  1.00  0.00    -0.213 A  
HETATM   24  C   UNL     1      -9.350   4.917  70.612  1.00  0.00    -0.222 A  
HETATM   25  F   UNL     1     -11.363   4.318  73.566  1.00  0.00    -0.319 F  
HETATM   26  C   UNL     1     -10.047   4.238  71.615  1.00  0.00    -0.216 A  
ENDBRANCH  17  19
ENDBRANCH  14  16
ENDBRANCH  10  14
BRANCH  13  27
HETATM   27  C   UNL     1     -10.850  14.508  66.661  1.00  0.00    -0.311 C  
HETATM   28  C   UNL     1     -12.385  14.425  66.711  1.00  0.00    -0.204 C  
HETATM   29  C   UNL     1     -12.788  13.982  65.304  1.00  0.00    -0.384 C  
HETATM   30  H   UNL     1     -10.402  16.957  64.615  1.00  0.00     0.000 HD 
HETATM   31  C   UNL     1     -11.790  14.742  64.394  1.00  0.00    -0.380 C  
HETATM   32  H   UNL     1     -11.748  16.402  63.271  1.00  0.00     0.000 HD 
HETATM   33  O   UNL     1     -10.564  16.566  65.466  1.00  0.00    -0.436 OA 
HETATM   34  C   UNL     1     -10.589  15.135  65.292  1.00  0.00    -0.411 C  
HETATM   35  O   UNL     1     -12.360  15.937  63.829  1.00  0.00    -0.791 OA 
BRANCH  29  36
HETATM   36  O   UNL     1     -12.638  12.569  65.123  1.00  0.00    -0.631 OA 
BRANCH  36  37
HETATM   37  C   UNL     1     -12.282  12.194  63.783  1.00  0.00    -0.531 C  
BRANCH  37  38
HETATM   38  C   UNL     1     -11.034  11.315  63.809  1.00  0.00    -0.301 C  
HETATM   39  H   UNL     1      -9.191  11.411  63.140  1.00  0.00     0.000 HD 
HETATM   40  O   UNL     1      -9.967  11.959  63.123  1.00  0.00    -0.422 OA 
ENDBRANCH  37  38
ENDBRANCH  36  37
ENDBRANCH  29  36
ENDBRANCH  13  27
ENDBRANCH   4   5
ENDBRANCH   3   4
ENDBRANCH   2   3
TORSDOF 10
ENDMDL
MODEL       14
REMARK 921   NORMALIZED FREE ENERGY PREDICTED BY IDOCK:   -6.47 KCAL/MOL
REMARK 922        TOTAL FREE ENERGY PREDICTED BY IDOCK:  -12.32 KCAL/MOL
REMARK 923 INTER-LIGAND FREE ENERGY PREDICTED BY IDOCK:  -10.91 KCAL/MOL
REMARK 924 INTRA-LIGAND FREE ENERGY PREDICTED BY IDOCK:   -1.41 KCAL/MOL
REMARK 927      BINDING AFFINITY PREDICTED BY RF-SCORE:    0.00 PKD
ROOT
HETATM    1  C   UNL     1     -12.401  12.511  63.772  1.00  0.00    -0.595 C  
HETATM    2  C   UNL     1     -11.100  11.753  63.543  1.00  0.00    -0.503 C  
ENDROOT
BRANCH   2   3
HETATM    3  C   UNL     1     -10.111  11.925  64.701  1.00  0.00    -0.269 C  
BRANCH   3   4
HETATM    4  S   UNL     1     -10.077  10.383  65.684  1.00  0.00    -0.249 SA 
BRANCH   4   5
HETATM    5  C   UNL     1     -10.820  10.947  67.200  1.00  0.00    -0.280 A  
HETATM    6  N   UNL     1     -10.982  10.009  68.160  1.00  0.00    -0.254 NA 
HETATM    7  C   UNL     1     -11.566  10.511  69.261  1.00  0.00    -0.236 A  
HETATM    8  C   UNL     1     -11.973  11.817  69.455  1.00  0.00    -0.298 A  
HETATM    9  N   UNL     1     -12.494  11.961  70.711  1.00  0.00    -0.335 NA 
HETATM   10  C   UNL     1     -11.736  12.731  68.418  1.00  0.00    -0.339 A  
HETATM   11  N   UNL     1     -11.148  12.255  67.282  1.00  0.00    -0.259 NA 
HETATM   12  N   UNL     1     -12.405  10.787  71.329  1.00  0.00    -0.370 NA 
HETATM   13  N   UNL     1     -11.817   9.914  70.470  1.00  0.00    -0.276 NA 
BRANCH  10  14
HETATM   14  N   UNL     1     -12.048  14.098  68.572  1.00  0.00    -0.524 NA 
HETATM   15  H   UNL     1     -13.017  14.413  68.594  1.00  0.00     0.000 HD 
BRANCH  14  16
HETATM   16  C   UNL     1     -10.945  15.052  68.701  1.00  0.00    -0.257 C  
HETATM   17  C   UNL     1     -11.218  16.540  68.731  1.00  0.00    -0.277 C  
HETATM   18  C   UNL     1     -10.748  15.826  69.970  1.00  0.00    -0.347 C  
BRANCH  17  19
HETATM   19  C   UNL     1     -10.320  17.440  67.918  1.00  0.00    -0.369 A  
HETATM   20  C   UNL     1      -9.684  19.609  67.019  1.00  0.00    -0.360 A  
HETATM   21  C   UNL     1     -10.535  18.821  67.795  1.00  0.00    -0.479 A  
HETATM   22  F   UNL     1      -9.910  20.926  66.932  1.00  0.00    -0.570 F  
HETATM   23  C   UNL     1      -8.611  19.036  66.348  1.00  0.00    -0.315 A  
HETATM   24  C   UNL     1      -9.228  16.884  67.220  1.00  0.00    -0.231 A  
HETATM   25  F   UNL     1      -7.800  19.796  65.603  1.00  0.00    -0.328 F  
HETATM   26  C   UNL     1      -8.378  17.673  66.441  1.00  0.00    -0.288 A  
ENDBRANCH  17  19
ENDBRANCH  14  16
ENDBRANCH  10  14
BRANCH  13  27
HETATM   27  C   UNL     1     -11.523   8.586  70.968  1.00  0.00    -0.273 C  
HETATM   28  C   UNL     1     -10.428   8.576  72.049  1.00  0.00    -0.407 C  
HETATM   29  C   UNL     1      -9.119   8.491  71.263  1.00  0.00    -0.196 C  
HETATM   30  H   UNL     1     -11.228   5.630  69.722  1.00  0.00     0.000 HD 
HETATM   31  C   UNL     1      -9.469   7.541  70.091  1.00  0.00    -0.161 C  
HETATM   32  H   UNL     1      -9.250   5.608  69.610  1.00  0.00     0.000 HD 
HETATM   33  O   UNL     1     -11.544   6.271  70.347  1.00  0.00    -0.381 OA 
HETATM   34  C   UNL     1     -11.014   7.555  69.961  1.00  0.00    -0.240 C  
HETATM   35  O   UNL     1      -9.035   6.190  70.329  1.00  0.00    -0.149 OA 
BRANCH  29  36
HETATM   36  O   UNL     1      -8.716   9.769  70.755  1.00  0.00    -0.162 OA 
BRANCH  36  37
HETATM   37  C   UNL     1      -7.577   9.708  69.882  1.00  0.00    -0.138 C  
BRANCH  37  38
HETATM   38  C   UNL     1      -7.480  10.998  69.071  1.00  0.00    -0.129 C  
HETATM   39  H   UNL     1      -6.768  11.553  67.328  1.00  0.00     0.000 HD 
HETATM   40  O   UNL     1      -6.828  10.750  67.831  1.00  0.00    -0.070 OA 
ENDBRANCH  37  38
ENDBRANCH  36  37
ENDBRANCH  29  36
ENDBRANCH  13  27
ENDBRANCH   4   5
ENDBRANCH   3   4
ENDBRANCH   2   3
TORSDOF 10
ENDMDL
MODEL       15
REMARK 921   NORMALIZED FREE ENERGY PREDICTED BY IDOCK:   -6.47 KCAL/MOL
REMARK 922        TOTAL FREE ENERGY PREDICTED BY IDOCK:  -12.32 KCAL/MOL
REMARK 923 INTER-LIGAND FREE ENERGY PREDICTED BY IDOCK:  -11.21 KCAL/MOL
REMARK 924 INTRA-LIGAND FREE ENERGY PREDICTED BY IDOCK:   -1.11 KCAL/MOL
REMARK 927      BINDING AFFINITY PREDICTED BY RF-SCORE:    0.00 PKD
ROOT
HETATM    1  C   UNL     1      -6.313   6.192  66.142  1.00  0.00    -0.038 C  
HETATM    2  C   UNL     1      -7.584   5.716  66.831  1.00  0.00    -0.096 C  
ENDROOT
BRANCH   2   3
HETATM    3  C   UNL     1      -8.786   6.618  66.531  1.00  0.00    -0.135 C  
BRANCH   3   4
HETATM    4  S   UNL     1      -8.177   8.247  65.966  1.00  0.00    -0.126 SA 
BRANCH   4   5
HETATM    5  C   UNL     1      -9.433   9.315  66.636  1.00  0.00    -0.191 A  
HETATM    6  N   UNL     1      -9.706  10.425  65.914  1.00  0.00    -0.203 NA 
HETATM    7  C   UNL     1     -10.649  11.185  66.498  1.00  0.00    -0.262 A  
HETATM    8  C   UNL     1     -11.301  10.921  67.688  1.00  0.00    -0.270 A  
HETATM    9  N   UNL     1     -12.217  11.902  67.945  1.00  0.00    -0.408 NA 
HETATM   10  C   UNL     1     -10.977   9.729  68.353  1.00  0.00    -0.152 A  
HETATM   11  N   UNL     1     -10.021   8.934  67.791  1.00  0.00    -0.181 NA 
HETATM   12  N   UNL     1     -12.183  12.770  66.938  1.00  0.00    -0.439 NA 
HETATM   13  N   UNL     1     -11.259  12.327  66.045  1.00  0.00    -0.317 NA 
BRANCH  10  14
HETATM   14  N   UNL     1     -11.658   9.349  69.528  1.00  0.00    -0.418 NA 
HETATM   15  H   UNL     1     -12.144   8.455  69.586  1.00  0.00     0.000 HD 
BRANCH  14  16
HETATM   16  C   UNL     1     -11.650  10.273  70.665  1.00  0.00    -0.347 C  
HETATM   17  C   UNL     1     -12.889  11.068  71.016  1.00  0.00    -0.442 C  
HETATM   18  C   UNL     1     -12.416   9.955  71.914  1.00  0.00    -0.435 C  
BRANCH  17  19
HETATM   19  C   UNL     1     -12.718  12.525  71.366  1.00  0.00    -0.345 A  
HETATM   20  C   UNL     1     -11.679  14.706  71.073  1.00  0.00    -0.277 A  
HETATM   21  C   UNL     1     -11.812  13.366  70.702  1.00  0.00    -0.163 A  
HETATM   22  F   UNL     1     -10.815  15.485  70.411  1.00  0.00    -0.270 F  
HETATM   23  C   UNL     1     -12.437  15.226  72.114  1.00  0.00    -0.357 A  
HETATM   24  C   UNL     1     -13.469  13.079  72.423  1.00  0.00    -0.615 A  
HETATM   25  F   UNL     1     -12.304  16.510  72.467  1.00  0.00    -0.494 F  
HETATM   26  C   UNL     1     -13.333  14.418  72.797  1.00  0.00    -0.606 A  
ENDBRANCH  17  19
ENDBRANCH  14  16
ENDBRANCH  10  14
BRANCH  13  27
HETATM   27  C   UNL     1     -11.121  13.066  64.807  1.00  0.00    -0.322 C  
HETATM   28  C   UNL     1      -9.790  13.829  64.705  1.00  0.00     0.171 C  
HETATM   29  C   UNL     1     -10.066  15.170  65.388  1.00  0.00    -0.350 C  
HETATM   30  H   UNL     1     -13.031  14.843  62.916  1.00  0.00     0.000 HD 
HETATM   31  C   UNL     1     -11.518  15.495  64.957  1.00  0.00    -0.218 C  
HETATM   32  H   UNL     1     -12.461  16.616  63.589  1.00  0.00     0.000 HD 
HETATM   33  O   UNL     1     -12.388  14.167  63.096  1.00  0.00    -0.602 OA 
HETATM   34  C   UNL     1     -12.157  14.152  64.519  1.00  0.00    -0.468 C  
HETATM   35  O   UNL     1     -11.571  16.417  63.853  1.00  0.00    -1.100 OA 
BRANCH  29  36
HETATM   36  O   UNL     1      -9.989  15.069  66.816  1.00  0.00    -0.239 OA 
BRANCH  36  37
HETATM   37  C   UNL     1      -8.667  14.790  67.303  1.00  0.00    -0.210 C  
BRANCH  37  38
HETATM   38  C   UNL     1      -8.113  16.019  68.018  1.00  0.00    -0.145 C  
HETATM   39  H   UNL     1      -6.531  17.175  67.878  1.00  0.00     0.000 HD 
HETATM   40  O   UNL     1      -6.876  16.410  67.433  1.00  0.00    -0.136 OA 
ENDBRANCH  37  38
ENDBRANCH  36  37
ENDBRANCH  29  36
ENDBRANCH  13  27
ENDBRANCH   4   5
ENDBRANCH   3   4
ENDBRANCH   2   3
TORSDOF 10
ENDMDL
MODEL       16
REMARK 921   NORMALIZED FREE ENERGY PREDICTED BY IDOCK:   -6.44 KCAL/MOL
REMARK 922        TOTAL FREE ENERGY PREDICTED BY IDOCK:  -12.28 KCAL/MOL
REMARK 923 INTER-LIGAND FREE ENERGY PREDICTED BY IDOCK:  -10.68 KCAL/MOL
REMARK 924 INTRA-LIGAND FREE ENERGY PREDICTED BY IDOCK:   -1.60 KCAL/MOL
REMARK 927      BINDING AFFINITY PREDICTED BY RF-SCORE:    0.00 PKD
ROOT
HETATM    1  C   UNL     1     -12.128  12.439  63.455  1.00  0.00    -0.620 C  
HETATM    2  C   UNL     1     -12.608  13.067  64.756  1.00  0.00    -0.460 C  
ENDROOT
BRANCH   2   3
HETATM    3  C   UNL     1     -11.780  12.616  65.964  1.00  0.00    -0.417 C  
BRANCH   3   4
HETATM    4  S   UNL     1     -10.079  13.266  65.792  1.00  0.00    -0.263 SA 
BRANCH   4   5
HETATM    5  C   UNL     1     -10.139  14.637  66.925  1.00  0.00    -0.255 A  
HETATM    6  N   UNL     1      -9.039  15.424  66.953  1.00  0.00    -0.225 NA 
HETATM    7  C   UNL     1      -9.158  16.421  67.847  1.00  0.00    -0.201 A  
HETATM    8  C   UNL     1     -10.243  16.670  68.666  1.00  0.00    -0.284 A  
HETATM    9  N   UNL     1     -10.013  17.790  69.415  1.00  0.00    -0.078 NA 
HETATM   10  C   UNL     1     -11.353  15.822  68.546  1.00  0.00    -0.374 A  
HETATM   11  N   UNL     1     -11.267  14.795  67.651  1.00  0.00    -0.310 NA 
HETATM   12  N   UNL     1      -8.821  18.274  69.077  1.00  0.00    -0.101 NA 
HETATM   13  N   UNL     1      -8.312  17.469  68.108  1.00  0.00    -0.241 NA 
BRANCH  10  14
HETATM   14  N   UNL     1     -12.529  16.060  69.287  1.00  0.00    -0.357 NA 
HETATM   15  H   UNL     1     -12.951  16.988  69.314  1.00  0.00     0.000 HD 
BRANCH  14  16
HETATM   16  C   UNL     1     -13.129  14.942  70.017  1.00  0.00     0.155 C  
HETATM   17  C   UNL     1     -12.322  14.176  71.044  1.00  0.00    -0.438 C  
HETATM   18  C   UNL     1     -13.455  15.068  71.475  1.00  0.00    -0.520 C  
BRANCH  17  19
HETATM   19  C   UNL     1     -12.425  12.671  71.043  1.00  0.00    -0.354 A  
HETATM   20  C   UNL     1     -13.210  10.563  71.971  1.00  0.00    -0.378 A  
HETATM   21  C   UNL     1     -13.157  11.957  72.005  1.00  0.00    -0.441 A  
HETATM   22  F   UNL     1     -13.928   9.913  72.896  1.00  0.00    -0.193 F  
HETATM   23  C   UNL     1     -12.530   9.857  70.987  1.00  0.00    -0.346 A  
HETATM   24  C   UNL     1     -11.739  11.927  70.061  1.00  0.00    -0.366 A  
HETATM   25  F   UNL     1     -12.582   8.519  70.961  1.00  0.00    -0.285 F  
HETATM   26  C   UNL     1     -11.789  10.532  70.029  1.00  0.00    -0.388 A  
ENDBRANCH  17  19
ENDBRANCH  14  16
ENDBRANCH  10  14
BRANCH  13  27
HETATM   27  C   UNL     1      -7.054  17.864  67.508  1.00  0.00    -0.194 C  
HETATM   28  C   UNL     1      -6.668  19.320  67.817  1.00  0.00    -0.246 C  
HETATM   29  C   UNL     1      -7.360  20.137  66.725  1.00  0.00    -0.268 C  
HETATM   30  H   UNL     1      -5.540  17.375  64.706  1.00  0.00     0.000 HD 
HETATM   31  C   UNL     1      -7.220  19.240  65.469  1.00  0.00    -0.123 C  
HETATM   32  H   UNL     1      -6.042  19.092  63.855  1.00  0.00     0.000 HD 
HETATM   33  O   UNL     1      -5.604  17.413  65.654  1.00  0.00    -0.179 OA 
HETATM   34  C   UNL     1      -6.952  17.802  65.985  1.00  0.00    -0.300 C  
HETATM   35  O   UNL     1      -6.127  19.642  64.624  1.00  0.00    -0.246 OA 
BRANCH  29  36
HETATM   36  O   UNL     1      -8.745  20.358  67.018  1.00  0.00    -0.332 OA 
BRANCH  36  37
HETATM   37  C   UNL     1      -9.593  20.306  65.860  1.00  0.00    -0.123 C  
BRANCH  37  38
HETATM   38  C   UNL     1     -10.833  19.470  66.168  1.00  0.00    -0.327 C  
HETATM   39  H   UNL     1     -11.518  17.688  65.708  1.00  0.00     0.000 HD 
HETATM   40  O   UNL     1     -10.746  18.208  65.516  1.00  0.00    -0.599 OA 
ENDBRANCH  37  38
ENDBRANCH  36  37
ENDBRANCH  29  36
ENDBRANCH  13  27
ENDBRANCH   4   5
ENDBRANCH   3   4
ENDBRANCH   2   3
TORSDOF 10
ENDMDL
MODEL       17
REMARK 921   NORMALIZED FREE ENERGY PREDICTED BY IDOCK:   -6.43 KCAL/MOL
REMARK 922        TOTAL FREE ENERGY PREDICTED BY IDOCK:  -12.26 KCAL/MOL
REMARK 923 INTER-LIGAND FREE ENERGY PREDICTED BY IDOCK:  -10.75 KCAL/MOL
REMARK 924 INTRA-LIGAND FREE ENERGY PREDICTED BY IDOCK:   -1.50 KCAL/MOL
REMARK 927      BINDING AFFINITY PREDICTED BY RF-SCORE:    0.00 PKD
ROOT
HETATM    1  C   UNL     1      -8.812   5.352  67.231  1.00  0.00    -0.105 C  
HETATM    2  C   UNL     1     -10.247   5.444  66.729  1.00  0.00    -0.282 C  
ENDROOT
BRANCH   2   3
HETATM    3  C   UNL     1     -10.865   6.825  66.974  1.00  0.00    -0.383 C  
BRANCH   3   4
HETATM    4  S   UNL     1      -9.620   8.108  66.591  1.00  0.00    -0.240 SA 
BRANCH   4   5
HETATM    5  C   UNL     1     -10.391   9.537  67.320  1.00  0.00    -0.255 A  
HETATM    6  N   UNL     1     -10.552  10.600  66.499  1.00  0.00    -0.222 NA 
HETATM    7  C   UNL     1     -11.121  11.641  67.131  1.00  0.00    -0.299 A  
HETATM    8  C   UNL     1     -11.520  11.685  68.453  1.00  0.00    -0.297 A  
HETATM    9  N   UNL     1     -12.088  12.898  68.728  1.00  0.00    -0.226 NA 
HETATM   10  C   UNL     1     -11.345  10.525  69.222  1.00  0.00    -0.262 A  
HETATM   11  N   UNL     1     -10.766   9.449  68.614  1.00  0.00    -0.194 NA 
HETATM   12  N   UNL     1     -12.083  13.617  67.609  1.00  0.00    -0.338 NA 
HETATM   13  N   UNL     1     -11.528  12.852  66.632  1.00  0.00    -0.324 NA 
BRANCH  10  14
HETATM   14  N   UNL     1     -11.802  10.465  70.554  1.00  0.00    -0.310 NA 
HETATM   15  H   UNL     1     -11.871  11.309  71.122  1.00  0.00     0.000 HD 
BRANCH  14  16
HETATM   16  C   UNL     1     -12.176   9.159  71.103  1.00  0.00    -0.285 C  
HETATM   17  C   UNL     1     -11.353   8.525  72.203  1.00  0.00    -0.442 C  
HETATM   18  C   UNL     1     -12.737   9.045  72.488  1.00  0.00    -0.373 C  
BRANCH  17  19
HETATM   19  C   UNL     1     -11.041   7.054  72.094  1.00  0.00    -0.279 A  
HETATM   20  C   UNL     1     -10.824   4.820  73.033  1.00  0.00    -0.256 A  
HETATM   21  C   UNL     1     -11.138   6.172  73.181  1.00  0.00    -0.214 A  
HETATM   22  F   UNL     1     -10.940   4.002  74.088  1.00  0.00    -0.273 F  
HETATM   23  C   UNL     1     -10.401   4.326  71.806  1.00  0.00    -0.040 A  
HETATM   24  C   UNL     1     -10.602   6.526  70.862  1.00  0.00    -0.275 A  
HETATM   25  F   UNL     1     -10.099   3.029  71.670  1.00  0.00    -0.239 F  
HETATM   26  C   UNL     1     -10.285   5.173  70.715  1.00  0.00    -0.308 A  
ENDBRANCH  17  19
ENDBRANCH  14  16
ENDBRANCH  10  14
BRANCH  13  27
HETATM   27  C   UNL     1     -11.511  13.396  65.290  1.00  0.00    -0.298 C  
HETATM   28  C   UNL     1     -10.096  13.746  64.799  1.00  0.00    -0.259 C  
HETATM   29  C   UNL     1      -9.861  15.172  65.300  1.00  0.00    -0.214 C  
HETATM   30  H   UNL     1     -13.316  15.433  63.566  1.00  0.00     0.000 HD 
HETATM   31  C   UNL     1     -11.247  15.842  65.126  1.00  0.00    -0.224 C  
HETATM   32  H   UNL     1     -12.182  17.037  63.817  1.00  0.00     0.000 HD 
HETATM   33  O   UNL     1     -12.836  14.627  63.717  1.00  0.00    -0.677 OA 
HETATM   34  C   UNL     1     -12.284  14.692  65.048  1.00  0.00    -0.322 C  
HETATM   35  O   UNL     1     -11.332  16.627  63.923  1.00  0.00    -1.104 OA 
BRANCH  29  36
HETATM   36  O   UNL     1      -9.474  15.198  66.680  1.00  0.00    -0.233 OA 
BRANCH  36  37
HETATM   37  C   UNL     1      -8.189  15.797  66.906  1.00  0.00    -0.253 C  
BRANCH  37  38
HETATM   38  C   UNL     1      -8.275  16.773  68.076  1.00  0.00    -0.192 C  
HETATM   39  H   UNL     1      -9.132  16.831  69.842  1.00  0.00     0.000 HD 
HETATM   40  O   UNL     1      -9.079  16.224  69.114  1.00  0.00    -0.253 OA 
ENDBRANCH  37  38
ENDBRANCH  36  37
ENDBRANCH  29  36
ENDBRANCH  13  27
ENDBRANCH   4   5
ENDBRANCH   3   4
ENDBRANCH   2   3
TORSDOF 10
ENDMDL
MODEL       18
REMARK 921   NORMALIZED FREE ENERGY PREDICTED BY IDOCK:   -6.42 KCAL/MOL
REMARK 922        TOTAL FREE ENERGY PREDICTED BY IDOCK:  -12.24 KCAL/MOL
REMARK 923 INTER-LIGAND FREE ENERGY PREDICTED BY IDOCK:  -10.78 KCAL/MOL
REMARK 924 INTRA-LIGAND FREE ENERGY PREDICTED BY IDOCK:   -1.47 KCAL/MOL
REMARK 927      BINDING AFFINITY PREDICTED BY RF-SCORE:    0.00 PKD
ROOT
HETATM    1  C   UNL     1     -10.021  10.623  64.134  1.00  0.00    -0.406 C  
HETATM    2  C   UNL     1      -9.167   9.900  65.168  1.00  0.00    -0.288 C  
ENDROOT
BRANCH   2   3
HETATM    3  C   UNL     1      -8.085  10.803  65.769  1.00  0.00    -0.135 C  
BRANCH   3   4
HETATM    4  S   UNL     1      -7.949  10.453  67.559  1.00  0.00    -0.106 SA 
BRANCH   4   5
HETATM    5  C   UNL     1      -9.330  11.390  68.179  1.00  0.00    -0.181 A  
HETATM    6  N   UNL     1      -9.125  12.720  68.312  1.00  0.00    -0.199 NA 
HETATM    7  C   UNL     1     -10.207  13.348  68.804  1.00  0.00    -0.119 A  
HETATM    8  C   UNL     1     -11.412  12.766  69.150  1.00  0.00    -0.306 A  
HETATM    9  N   UNL     1     -12.285  13.726  69.582  1.00  0.00    -0.329 NA 
HETATM   10  C   UNL     1     -11.546  11.385  68.947  1.00  0.00    -0.323 A  
HETATM   11  N   UNL     1     -10.466  10.713  68.453  1.00  0.00    -0.177 NA 
HETATM   12  N   UNL     1     -11.676  14.905  69.496  1.00  0.00    -0.301 NA 
HETATM   13  N   UNL     1     -10.430  14.687  68.998  1.00  0.00    -0.244 NA 
BRANCH  10  14
HETATM   14  N   UNL     1     -12.772  10.734  69.198  1.00  0.00    -0.568 NA 
HETATM   15  H   UNL     1     -13.554  10.825  68.551  1.00  0.00     0.000 HD 
BRANCH  14  16
HETATM   16  C   UNL     1     -12.892   9.923  70.412  1.00  0.00     0.054 C  
HETATM   17  C   UNL     1     -11.738   9.827  71.387  1.00  0.00    -0.475 C  
HETATM   18  C   UNL     1     -12.992  10.574  71.759  1.00  0.00    -0.582 C  
BRANCH  17  19
HETATM   19  C   UNL     1     -11.401   8.469  71.951  1.00  0.00    -0.399 A  
HETATM   20  C   UNL     1      -9.955   6.938  73.170  1.00  0.00    -0.201 A  
HETATM   21  C   UNL     1     -10.230   8.217  72.681  1.00  0.00    -0.388 A  
HETATM   22  F   UNL     1      -8.834   6.734  73.874  1.00  0.00    -0.137 F  
HETATM   23  C   UNL     1     -10.835   5.890  72.933  1.00  0.00    -0.258 A  
HETATM   24  C   UNL     1     -12.273   7.385  71.720  1.00  0.00    -0.359 A  
HETATM   25  F   UNL     1     -10.566   4.666  73.402  1.00  0.00    -0.191 F  
HETATM   26  C   UNL     1     -11.996   6.104  72.206  1.00  0.00    -0.285 A  
ENDBRANCH  17  19
ENDBRANCH  14  16
ENDBRANCH  10  14
BRANCH  13  27
HETATM   27  C   UNL     1      -9.612  15.850  68.720  1.00  0.00    -0.219 C  
HETATM   28  C   UNL     1     -10.371  16.957  67.970  1.00  0.00    -0.334 C  
HETATM   29  C   UNL     1     -10.219  16.589  66.493  1.00  0.00    -0.300 C  
HETATM   30  H   UNL     1      -6.576  16.411  67.800  1.00  0.00     0.000 HD 
HETATM   31  C   UNL     1      -8.771  16.045  66.411  1.00  0.00    -0.327 C  
HETATM   32  H   UNL     1      -6.952  16.695  65.876  1.00  0.00     0.000 HD 
HETATM   33  O   UNL     1      -7.348  16.538  68.339  1.00  0.00    -0.164 OA 
HETATM   34  C   UNL     1      -8.370  15.644  67.854  1.00  0.00    -0.146 C  
HETATM   35  O   UNL     1      -7.839  17.029  65.926  1.00  0.00    -0.438 OA 
BRANCH  29  36
HETATM   36  O   UNL     1     -11.148  15.573  66.096  1.00  0.00    -0.286 OA 
BRANCH  36  37
HETATM   37  C   UNL     1     -10.653  14.716  65.054  1.00  0.00    -0.439 C  
BRANCH  37  38
HETATM   38  C   UNL     1     -11.819  13.992  64.387  1.00  0.00    -0.431 C  
HETATM   39  H   UNL     1     -13.489  14.484  63.478  1.00  0.00     0.000 HD 
HETATM   40  O   UNL     1     -12.763  14.935  63.893  1.00  0.00    -0.789 OA 
ENDBRANCH  37  38
ENDBRANCH  36  37
ENDBRANCH  29  36
ENDBRANCH  13  27
ENDBRANCH   4   5
ENDBRANCH   3   4
ENDBRANCH   2   3
TORSDOF 10
ENDMDL
MODEL       19
REMARK 921   NORMALIZED FREE ENERGY PREDICTED BY IDOCK:   -6.40 KCAL/MOL
REMARK 922        TOTAL FREE ENERGY PREDICTED BY IDOCK:  -12.21 KCAL/MOL
REMARK 923 INTER-LIGAND FREE ENERGY PREDICTED BY IDOCK:  -12.39 KCAL/MOL
REMARK 924 INTRA-LIGAND FREE ENERGY PREDICTED BY IDOCK:    0.18 KCAL/MOL
REMARK 927      BINDING AFFINITY PREDICTED BY RF-SCORE:    0.00 PKD
ROOT
HETATM    1  C   UNL     1     -12.185  15.173  74.230  1.00  0.00    -0.647 C  
HETATM    2  C   UNL     1     -12.195  16.370  73.289  1.00  0.00    -0.558 C  
ENDROOT
BRANCH   2   3
HETATM    3  C   UNL     1     -11.790  15.995  71.860  1.00  0.00    -0.534 C  
BRANCH   3   4
HETATM    4  S   UNL     1     -13.211  15.196  71.032  1.00  0.00    -0.442 SA 
BRANCH   4   5
HETATM    5  C   UNL     1     -12.398  13.823  70.243  1.00  0.00    -0.337 A  
HETATM    6  N   UNL     1     -12.404  12.660  70.933  1.00  0.00    -0.344 NA 
HETATM    7  C   UNL     1     -11.754  11.683  70.278  1.00  0.00    -0.266 A  
HETATM    8  C   UNL     1     -11.135  11.787  69.047  1.00  0.00    -0.246 A  
HETATM    9  N   UNL     1     -10.609  10.577  68.688  1.00  0.00    -0.187 NA 
HETATM   10  C   UNL     1     -11.206  13.022  68.387  1.00  0.00    -0.269 A  
HETATM   11  N   UNL     1     -11.856  14.040  69.025  1.00  0.00    -0.334 NA 
HETATM   12  N   UNL     1     -10.898   9.702  69.646  1.00  0.00    -0.238 NA 
HETATM   13  N   UNL     1     -11.617  10.356  70.596  1.00  0.00    -0.329 NA 
BRANCH  10  14
HETATM   14  N   UNL     1     -10.671  13.183  67.093  1.00  0.00    -0.254 NA 
HETATM   15  H   UNL     1     -10.228  12.402  66.609  1.00  0.00     0.000 HD 
BRANCH  14  16
HETATM   16  C   UNL     1     -10.766  14.500  66.459  1.00  0.00    -0.312 C  
HETATM   17  C   UNL     1      -9.550  15.397  66.368  1.00  0.00    -0.319 C  
HETATM   18  C   UNL     1     -10.122  14.758  65.130  1.00  0.00    -0.358 C  
BRANCH  17  19
HETATM   19  C   UNL     1      -9.728  16.861  66.685  1.00  0.00    -0.283 A  
HETATM   20  C   UNL     1     -10.442  19.118  66.122  1.00  0.00    -0.477 A  
HETATM   21  C   UNL     1     -10.314  17.768  65.789  1.00  0.00    -0.190 A  
HETATM   22  F   UNL     1     -11.017  19.955  65.250  1.00  0.00    -0.583 F  
HETATM   23  C   UNL     1      -9.982  19.587  67.346  1.00  0.00    -0.383 A  
HETATM   24  C   UNL     1      -9.263  17.367  67.916  1.00  0.00    -0.256 A  
HETATM   25  F   UNL     1     -10.105  20.883  67.659  1.00  0.00    -0.542 F  
HETATM   26  C   UNL     1      -9.389  18.718  68.248  1.00  0.00    -0.374 A  
ENDBRANCH  17  19
ENDBRANCH  14  16
ENDBRANCH  10  14
BRANCH  13  27
HETATM   27  C   UNL     1     -12.135   9.571  71.697  1.00  0.00    -0.398 C  
HETATM   28  C   UNL     1     -11.180   8.450  72.141  1.00  0.00    -0.431 C  
HETATM   29  C   UNL     1     -11.531   7.270  71.232  1.00  0.00    -0.276 C  
HETATM   30  H   UNL     1     -14.993   8.373  72.578  1.00  0.00     0.000 HD 
HETATM   31  C   UNL     1     -13.071   7.370  71.100  1.00  0.00    -0.219 C  
HETATM   32  H   UNL     1     -14.703   6.531  71.907  1.00  0.00     0.000 HD 
HETATM   33  O   UNL     1     -14.175   8.836  72.718  1.00  0.00    -0.520 OA 
HETATM   34  C   UNL     1     -13.450   8.827  71.471  1.00  0.00    -0.316 C  
HETATM   35  O   UNL     1     -13.759   6.470  71.988  1.00  0.00    -0.092 OA 
BRANCH  29  36
HETATM   36  O   UNL     1     -10.920   7.388  69.941  1.00  0.00    -0.250 OA 
BRANCH  36  37
HETATM   37  C   UNL     1     -11.310   6.356  69.023  1.00  0.00    -0.255 C  
BRANCH  37  38
HETATM   38  C   UNL     1     -10.437   6.422  67.772  1.00  0.00    -0.226 C  
HETATM   39  H   UNL     1     -10.247   7.597  66.210  1.00  0.00     0.000 HD 
HETATM   40  O   UNL     1     -10.790   7.556  66.989  1.00  0.00    -0.348 OA 
ENDBRANCH  37  38
ENDBRANCH  36  37
ENDBRANCH  29  36
ENDBRANCH  13  27
ENDBRANCH   4   5
ENDBRANCH   3   4
ENDBRANCH   2   3
TORSDOF 10
ENDMDL
MODEL       20
REMARK 921   NORMALIZED FREE ENERGY PREDICTED BY IDOCK:   -6.40 KCAL/MOL
REMARK 922        TOTAL FREE ENERGY PREDICTED BY IDOCK:  -12.20 KCAL/MOL
REMARK 923 INTER-LIGAND FREE ENERGY PREDICTED BY IDOCK:  -10.30 KCAL/MOL
REMARK 924 INTRA-LIGAND FREE ENERGY PREDICTED BY IDOCK:   -1.90 KCAL/MOL
REMARK 927      BINDING AFFINITY PREDICTED BY RF-SCORE:    0.00 PKD
ROOT
HETATM    1  C   UNL     1      -6.680  17.351  67.819  1.00  0.00    -0.172 C  
HETATM    2  C   UNL     1      -6.649  15.903  67.348  1.00  0.00    -0.222 C  
ENDROOT
BRANCH   2   3
HETATM    3  C   UNL     1      -6.731  14.908  68.510  1.00  0.00    -0.092 C  
BRANCH   3   4
HETATM    4  S   UNL     1      -6.522  13.214  67.855  1.00  0.00    -0.154 SA 
BRANCH   4   5
HETATM    5  C   UNL     1      -8.223  12.723  67.674  1.00  0.00    -0.175 A  
HETATM    6  N   UNL     1      -8.666  11.801  68.559  1.00  0.00    -0.150 NA 
HETATM    7  C   UNL     1      -9.951  11.471  68.341  1.00  0.00    -0.206 A  
HETATM    8  C   UNL     1     -10.775  11.977  67.354  1.00  0.00    -0.229 A  
HETATM    9  N   UNL     1     -12.023  11.430  67.465  1.00  0.00    -0.601 NA 
HETATM   10  C   UNL     1     -10.242  12.954  66.501  1.00  0.00    -0.259 A  
HETATM   11  N   UNL     1      -8.938  13.311  66.690  1.00  0.00    -0.179 NA 
HETATM   12  N   UNL     1     -12.021  10.610  68.512  1.00  0.00    -0.392 NA 
HETATM   13  N   UNL     1     -10.780  10.653  69.064  1.00  0.00    -0.206 NA 
BRANCH  10  14
HETATM   14  N   UNL     1     -11.045  13.577  65.523  1.00  0.00    -0.292 NA 
HETATM   15  H   UNL     1     -11.395  13.052  64.723  1.00  0.00     0.000 HD 
BRANCH  14  16
HETATM   16  C   UNL     1     -11.362  14.997  65.687  1.00  0.00    -0.297 C  
HETATM   17  C   UNL     1     -10.274  16.044  65.581  1.00  0.00    -0.412 C  
HETATM   18  C   UNL     1     -11.328  15.928  64.512  1.00  0.00    -0.316 C  
BRANCH  17  19
HETATM   19  C   UNL     1     -10.264  17.157  66.598  1.00  0.00    -0.319 A  
HETATM   20  C   UNL     1     -10.174  19.508  67.221  1.00  0.00    -0.429 A  
HETATM   21  C   UNL     1     -10.196  18.513  66.242  1.00  0.00    -0.446 A  
HETATM   22  F   UNL     1     -10.122  20.793  66.848  1.00  0.00    -0.574 F  
HETATM   23  C   UNL     1     -10.210  19.170  68.568  1.00  0.00    -0.367 A  
HETATM   24  C   UNL     1     -10.291  16.844  67.973  1.00  0.00    -0.334 A  
HETATM   25  F   UNL     1     -10.186  20.127  69.503  1.00  0.00    -0.447 F  
HETATM   26  C   UNL     1     -10.266  17.839  68.953  1.00  0.00    -0.345 A  
ENDBRANCH  17  19
ENDBRANCH  14  16
ENDBRANCH  10  14
BRANCH  13  27
HETATM   27  C   UNL     1     -10.571   9.909  70.289  1.00  0.00    -0.301 C  
HETATM   28  C   UNL     1      -9.348   8.978  70.229  1.00  0.00    -0.227 C  
HETATM   29  C   UNL     1      -9.886   7.682  69.621  1.00  0.00    -0.181 C  
HETATM   30  H   UNL     1     -12.417   8.411  72.463  1.00  0.00     0.000 HD 
HETATM   31  C   UNL     1     -11.295   7.553  70.252  1.00  0.00    -0.199 C  
HETATM   32  H   UNL     1     -12.178   6.573  71.761  1.00  0.00     0.000 HD 
HETATM   33  O   UNL     1     -11.722   8.994  72.182  1.00  0.00    -0.356 OA 
HETATM   34  C   UNL     1     -11.689   8.971  70.741  1.00  0.00    -0.242 C  
HETATM   35  O   UNL     1     -11.314   6.652  71.375  1.00  0.00    -0.263 OA 
BRANCH  29  36
HETATM   36  O   UNL     1      -9.993   7.764  68.194  1.00  0.00    -0.165 OA 
BRANCH  36  37
HETATM   37  C   UNL     1     -10.778   6.709  67.615  1.00  0.00    -0.302 C  
BRANCH  37  38
HETATM   38  C   UNL     1      -9.857   5.597  67.119  1.00  0.00    -0.149 C  
HETATM   39  H   UNL     1      -9.981   4.063  65.900  1.00  0.00     0.000 HD 
HETATM   40  O   UNL     1     -10.554   4.755  66.208  1.00  0.00    -0.301 OA 
ENDBRANCH  37  38
ENDBRANCH  36  37
ENDBRANCH  29  36
ENDBRANCH  13  27
ENDBRANCH   4   5
ENDBRANCH   3   4
ENDBRANCH   2   3
TORSDOF 10
ENDMDL
MODEL       21
REMARK 921   NORMALIZED FREE ENERGY PREDICTED BY IDOCK:   -6.37 KCAL/MOL
REMARK 922        TOTAL FREE ENERGY PREDICTED BY IDOCK:  -12.16 KCAL/MOL
REMARK 923 INTER-LIGAND FREE ENERGY PREDICTED BY IDOCK:  -10.98 KCAL/MOL
REMARK 924 INTRA-LIGAND FREE ENERGY PREDICTED BY IDOCK:   -1.19 KCAL/MOL
REMARK 927      BINDING AFFINITY PREDICTED BY RF-SCORE:    0.00 PKD
ROOT
HETATM    1  C   UNL     1      -9.670  10.769  63.234  1.00  0.00    -0.396 C  
HETATM    2  C   UNL     1     -10.385  12.110  63.335  1.00  0.00    -0.438 C  
ENDROOT
BRANCH   2   3
HETATM    3  C   UNL     1     -11.910  11.959  63.361  1.00  0.00    -0.413 C  
BRANCH   3   4
HETATM    4  S   UNL     1     -12.573  12.889  64.789  1.00  0.00    -0.377 SA 
BRANCH   4   5
HETATM    5  C   UNL     1     -11.182  12.819  65.897  1.00  0.00    -0.300 A  
HETATM    6  N   UNL     1     -10.514  13.981  66.075  1.00  0.00    -0.296 NA 
HETATM    7  C   UNL     1      -9.468  13.838  66.908  1.00  0.00    -0.262 A  
HETATM    8  C   UNL     1      -9.071  12.675  67.539  1.00  0.00    -0.192 A  
HETATM    9  N   UNL     1      -7.986  12.923  68.333  1.00  0.00    -0.149 NA 
HETATM   10  C   UNL     1      -9.842  11.523  67.322  1.00  0.00    -0.190 A  
HETATM   11  N   UNL     1     -10.910  11.631  66.478  1.00  0.00    -0.273 NA 
HETATM   12  N   UNL     1      -7.699  14.218  68.243  1.00  0.00    -0.125 NA 
HETATM   13  N   UNL     1      -8.609  14.783  67.407  1.00  0.00    -0.183 NA 
BRANCH  10  14
HETATM   14  N   UNL     1      -9.549  10.319  67.995  1.00  0.00    -0.145 NA 
HETATM   15  H   UNL     1      -8.674   9.824  67.824  1.00  0.00     0.000 HD 
BRANCH  14  16
HETATM   16  C   UNL     1     -10.533   9.798  68.947  1.00  0.00    -0.214 C  
HETATM   17  C   UNL     1     -10.197   9.701  70.420  1.00  0.00    -0.348 C  
HETATM   18  C   UNL     1     -11.202  10.710  69.931  1.00  0.00    -0.378 C  
BRANCH  17  19
HETATM   19  C   UNL     1     -10.596   8.444  71.153  1.00  0.00    -0.266 A  
HETATM   20  C   UNL     1     -10.668   7.036  73.136  1.00  0.00    -0.326 A  
HETATM   21  C   UNL     1     -10.291   8.222  72.505  1.00  0.00    -0.401 A  
HETATM   22  F   UNL     1     -10.373   6.860  74.430  1.00  0.00    -0.379 F  
HETATM   23  C   UNL     1     -11.347   6.050  72.431  1.00  0.00    -0.301 A  
HETATM   24  C   UNL     1     -11.279   7.423  70.461  1.00  0.00    -0.296 A  
HETATM   25  F   UNL     1     -11.705   4.913  73.040  1.00  0.00    -0.358 F  
HETATM   26  C   UNL     1     -11.654   6.234  71.092  1.00  0.00    -0.339 A  
ENDBRANCH  17  19
ENDBRANCH  14  16
ENDBRANCH  10  14
BRANCH  13  27
HETATM   27  C   UNL     1      -8.554  16.221  67.236  1.00  0.00    -0.179 C  
HETATM   28  C   UNL     1      -8.392  16.981  68.564  1.00  0.00    -0.260 C  
HETATM   29  C   UNL     1      -9.822  17.170  69.072  1.00  0.00    -0.240 C  
HETATM   30  H   UNL     1     -10.041  18.420  65.411  1.00  0.00     0.000 HD 
HETATM   31  C   UNL     1     -10.625  17.446  67.776  1.00  0.00    -0.371 C  
HETATM   32  H   UNL     1     -11.353  19.019  66.769  1.00  0.00     0.000 HD 
HETATM   33  O   UNL     1      -9.286  17.998  65.804  1.00  0.00    -0.489 OA 
HETATM   34  C   UNL     1      -9.769  16.900  66.604  1.00  0.00    -0.271 C  
HETATM   35  O   UNL     1     -10.861  18.850  67.563  1.00  0.00    -0.450 OA 
BRANCH  29  36
HETATM   36  O   UNL     1     -10.322  15.991  69.716  1.00  0.00    -0.266 OA 
BRANCH  36  37
HETATM   37  C   UNL     1     -11.704  15.722  69.432  1.00  0.00    -0.370 C  
BRANCH  37  38
HETATM   38  C   UNL     1     -12.424  15.320  70.716  1.00  0.00    -0.402 C  
HETATM   39  H   UNL     1     -13.048  13.659  71.557  1.00  0.00     0.000 HD 
HETATM   40  O   UNL     1     -12.599  13.909  70.758  1.00  0.00    -0.334 OA 
ENDBRANCH  37  38
ENDBRANCH  36  37
ENDBRANCH  29  36
ENDBRANCH  13  27
ENDBRANCH   4   5
ENDBRANCH   3   4
ENDBRANCH   2   3
TORSDOF 10
ENDMDL
MODEL       22
REMARK 921   NORMALIZED FREE ENERGY PREDICTED BY IDOCK:   -6.28 KCAL/MOL
REMARK 922        TOTAL FREE ENERGY PREDICTED BY IDOCK:  -12.01 KCAL/MOL
REMARK 923 INTER-LIGAND FREE ENERGY PREDICTED BY IDOCK:  -10.36 KCAL/MOL
REMARK 924 INTRA-LIGAND FREE ENERGY PREDICTED BY IDOCK:   -1.65 KCAL/MOL
REMARK 927      BINDING AFFINITY PREDICTED BY RF-SCORE:    0.00 PKD
ROOT
HETATM    1  C   UNL     1      -9.509   7.620  67.534  1.00  0.00    -0.168 C  
HETATM    2  C   UNL     1     -10.288   8.549  66.612  1.00  0.00    -0.303 C  
ENDROOT
BRANCH   2   3
HETATM    3  C   UNL     1      -9.375   9.498  65.829  1.00  0.00    -0.233 C  
BRANCH   3   4
HETATM    4  S   UNL     1      -8.288  10.380  67.006  1.00  0.00    -0.128 SA 
BRANCH   4   5
HETATM    5  C   UNL     1      -9.426  11.582  67.660  1.00  0.00    -0.168 A  
HETATM    6  N   UNL     1      -9.453  12.774  67.021  1.00  0.00    -0.225 NA 
HETATM    7  C   UNL     1     -10.320  13.629  67.588  1.00  0.00    -0.239 A  
HETATM    8  C   UNL     1     -11.120  13.384  68.689  1.00  0.00    -0.263 A  
HETATM    9  N   UNL     1     -11.895  14.478  68.954  1.00  0.00    -0.324 NA 
HETATM   10  C   UNL     1     -11.051  12.108  69.268  1.00  0.00    -0.167 A  
HETATM   11  N   UNL     1     -10.177  11.215  68.721  1.00  0.00    -0.201 NA 
HETATM   12  N   UNL     1     -11.628  15.403  68.037  1.00  0.00    -0.331 NA 
HETATM   13  N   UNL     1     -10.700  14.886  67.190  1.00  0.00    -0.290 NA 
BRANCH  10  14
HETATM   14  N   UNL     1     -11.895  11.755  70.342  1.00  0.00    -0.499 NA 
HETATM   15  H   UNL     1     -12.208  12.456  71.013  1.00  0.00     0.000 HD 
BRANCH  14  16
HETATM   16  C   UNL     1     -12.310  10.357  70.468  1.00  0.00    -0.322 C  
HETATM   17  C   UNL     1     -12.176   9.634  71.791  1.00  0.00    -0.464 C  
HETATM   18  C   UNL     1     -13.536   9.991  71.251  1.00  0.00    -0.331 C  
BRANCH  17  19
HETATM   19  C   UNL     1     -11.638   8.224  71.774  1.00  0.00    -0.356 A  
HETATM   20  C   UNL     1     -11.121   6.127  70.654  1.00  0.00    -0.317 A  
HETATM   21  C   UNL     1     -11.615   7.432  70.616  1.00  0.00    -0.295 A  
HETATM   22  F   UNL     1     -11.101   5.402  69.529  1.00  0.00    -0.365 F  
HETATM   23  C   UNL     1     -10.650   5.588  71.844  1.00  0.00    -0.234 A  
HETATM   24  C   UNL     1     -11.161   7.648  72.969  1.00  0.00    -0.437 A  
HETATM   25  F   UNL     1     -10.179   4.335  71.876  1.00  0.00    -0.239 F  
HETATM   26  C   UNL     1     -10.669   6.341  73.008  1.00  0.00    -0.278 A  
ENDBRANCH  17  19
ENDBRANCH  14  16
ENDBRANCH  10  14
BRANCH  13  27
HETATM   27  C   UNL     1     -10.328  15.685  66.041  1.00  0.00    -0.335 C  
HETATM   28  C   UNL     1      -8.827  16.018  65.997  1.00  0.00    -0.314 C  
HETATM   29  C   UNL     1      -8.695  17.292  66.833  1.00  0.00    -0.240 C  
HETATM   30  H   UNL     1     -11.587  18.158  64.404  1.00  0.00     0.000 HD 
HETATM   31  C   UNL     1      -9.975  18.087  66.472  1.00  0.00    -0.371 C  
HETATM   32  H   UNL     1     -10.516  19.588  65.260  1.00  0.00     0.000 HD 
HETATM   33  O   UNL     1     -11.179  17.304  64.492  1.00  0.00    -1.083 OA 
HETATM   34  C   UNL     1     -10.984  17.058  65.899  1.00  0.00     0.125 C  
HETATM   35  O   UNL     1      -9.732  19.101  65.481  1.00  0.00    -0.241 OA 
BRANCH  29  36
HETATM   36  O   UNL     1      -8.672  17.010  68.238  1.00  0.00    -0.225 OA 
BRANCH  36  37
HETATM   37  C   UNL     1      -7.661  16.065  68.619  1.00  0.00    -0.176 C  
BRANCH  37  38
HETATM   38  C   UNL     1      -6.449  16.805  69.179  1.00  0.00    -0.208 C  
HETATM   39  H   UNL     1      -4.771  16.340  70.086  1.00  0.00     0.000 HD 
HETATM   40  O   UNL     1      -5.525  15.879  69.738  1.00  0.00    -0.115 OA 
ENDBRANCH  37  38
ENDBRANCH  36  37
ENDBRANCH  29  36
ENDBRANCH  13  27
ENDBRANCH   4   5
ENDBRANCH   3   4
ENDBRANCH   2   3
TORSDOF 10
ENDMDL
MODEL       23
REMARK 921   NORMALIZED FREE ENERGY PREDICTED BY IDOCK:   -6.27 KCAL/MOL
REMARK 922        TOTAL FREE ENERGY PREDICTED BY IDOCK:  -12.01 KCAL/MOL
REMARK 923 INTER-LIGAND FREE ENERGY PREDICTED BY IDOCK:  -10.51 KCAL/MOL
REMARK 924 INTRA-LIGAND FREE ENERGY PREDICTED BY IDOCK:   -1.50 KCAL/MOL
REMARK 927      BINDING AFFINITY PREDICTED BY RF-SCORE:    0.00 PKD
ROOT
HETATM    1  C   UNL     1     -13.498  15.858  72.779  1.00  0.00    -0.594 C  
HETATM    2  C   UNL     1     -13.915  15.007  71.587  1.00  0.00    -0.594 C  
ENDROOT
BRANCH   2   3
HETATM    3  C   UNL     1     -12.824  14.018  71.164  1.00  0.00    -0.357 C  
BRANCH   3   4
HETATM    4  S   UNL     1     -13.198  12.379  71.885  1.00  0.00    -0.260 SA 
BRANCH   4   5
HETATM    5  C   UNL     1     -12.342  11.318  70.741  1.00  0.00    -0.398 A  
HETATM    6  N   UNL     1     -12.007  10.095  71.212  1.00  0.00    -0.377 NA 
HETATM    7  C   UNL     1     -11.348   9.366  70.296  1.00  0.00    -0.220 A  
HETATM    8  C   UNL     1     -11.022   9.757  69.011  1.00  0.00    -0.163 A  
HETATM    9  N   UNL     1     -10.381   8.738  68.363  1.00  0.00    -0.207 NA 
HETATM   10  C   UNL     1     -11.437  11.031  68.596  1.00  0.00    -0.308 A  
HETATM   11  N   UNL     1     -12.106  11.801  69.502  1.00  0.00    -0.280 NA 
HETATM   12  N   UNL     1     -10.314   7.701  69.193  1.00  0.00    -0.211 NA 
HETATM   13  N   UNL     1     -10.923   8.063  70.352  1.00  0.00    -0.249 NA 
BRANCH  10  14
HETATM   14  N   UNL     1     -11.215  11.469  67.274  1.00  0.00    -0.293 NA 
HETATM   15  H   UNL     1     -10.767  10.859  66.589  1.00  0.00     0.000 HD 
BRANCH  14  16
HETATM   16  C   UNL     1     -11.642  12.821  66.909  1.00  0.00    -0.366 C  
HETATM   17  C   UNL     1     -10.733  13.719  66.097  1.00  0.00    -0.283 C  
HETATM   18  C   UNL     1     -11.990  13.155  65.489  1.00  0.00    -0.457 C  
BRANCH  17  19
HETATM   19  C   UNL     1     -10.609  15.163  66.517  1.00  0.00    -0.304 A  
HETATM   20  C   UNL     1     -10.598  16.928  68.192  1.00  0.00    -0.360 A  
HETATM   21  C   UNL     1     -10.704  15.577  67.855  1.00  0.00    -0.294 A  
HETATM   22  F   UNL     1     -10.680  17.289  69.479  1.00  0.00    -0.322 F  
HETATM   23  C   UNL     1     -10.403  17.886  67.206  1.00  0.00    -0.369 A  
HETATM   24  C   UNL     1     -10.419  16.158  65.537  1.00  0.00    -0.407 A  
HETATM   25  F   UNL     1     -10.304  19.180  67.534  1.00  0.00    -0.378 F  
HETATM   26  C   UNL     1     -10.315  17.510  65.874  1.00  0.00    -0.265 A  
ENDBRANCH  17  19
ENDBRANCH  14  16
ENDBRANCH  10  14
BRANCH  13  27
HETATM   27  C   UNL     1     -11.062   7.049  71.377  1.00  0.00    -0.245 C  
HETATM   28  C   UNL     1     -11.035   7.623  72.803  1.00  0.00    -0.432 C  
HETATM   29  C   UNL     1      -9.549   7.679  73.163  1.00  0.00    -0.256 C  
HETATM   30  H   UNL     1      -9.981   4.053  71.866  1.00  0.00     0.000 HD 
HETATM   31  C   UNL     1      -8.981   6.388  72.522  1.00  0.00    -0.136 C  
HETATM   32  H   UNL     1      -8.489   4.527  73.080  1.00  0.00     0.000 HD 
HETATM   33  O   UNL     1     -10.644   4.733  71.832  1.00  0.00    -0.173 OA 
HETATM   34  C   UNL     1      -9.995   5.956  71.432  1.00  0.00    -0.185 C  
HETATM   35  O   UNL     1      -8.838   5.318  73.474  1.00  0.00    -0.117 OA 
BRANCH  29  36
HETATM   36  O   UNL     1      -8.905   8.830  72.602  1.00  0.00    -0.394 OA 
BRANCH  36  37
HETATM   37  C   UNL     1      -7.559   8.581  72.168  1.00  0.00    -0.077 C  
BRANCH  37  38
HETATM   38  C   UNL     1      -7.339   9.205  70.792  1.00  0.00    -0.114 C  
HETATM   39  H   UNL     1      -7.103   8.576  68.947  1.00  0.00     0.000 HD 
HETATM   40  O   UNL     1      -7.241   8.187  69.803  1.00  0.00    -0.062 OA 
ENDBRANCH  37  38
ENDBRANCH  36  37
ENDBRANCH  29  36
ENDBRANCH  13  27
ENDBRANCH   4   5
ENDBRANCH   3   4
ENDBRANCH   2   3
TORSDOF 10
ENDMDL
MODEL       24
REMARK 921   NORMALIZED FREE ENERGY PREDICTED BY IDOCK:   -6.27 KCAL/MOL
REMARK 922        TOTAL FREE ENERGY PREDICTED BY IDOCK:  -12.00 KCAL/MOL
REMARK 923 INTER-LIGAND FREE ENERGY PREDICTED BY IDOCK:  -10.09 KCAL/MOL
REMARK 924 INTRA-LIGAND FREE ENERGY PREDICTED BY IDOCK:   -1.91 KCAL/MOL
REMARK 927      BINDING AFFINITY PREDICTED BY RF-SCORE:    0.00 PKD
ROOT
HETATM    1  C   UNL     1      -7.354  14.281  68.761  1.00  0.00    -0.131 C  
HETATM    2  C   UNL     1      -6.274  13.258  68.439  1.00  0.00    -0.086 C  
ENDROOT
BRANCH   2   3
HETATM    3  C   UNL     1      -6.581  12.464  67.165  1.00  0.00    -0.089 C  
BRANCH   3   4
HETATM    4  S   UNL     1      -6.831  10.707  67.606  1.00  0.00    -0.075 SA 
BRANCH   4   5
HETATM    5  C   UNL     1      -8.539  10.737  68.106  1.00  0.00    -0.129 A  
HETATM    6  N   UNL     1      -8.868   9.909  69.123  1.00  0.00    -0.153 NA 
HETATM    7  C   UNL     1     -10.176   9.977  69.425  1.00  0.00    -0.222 A  
HETATM    8  C   UNL     1     -11.122  10.777  68.812  1.00  0.00    -0.259 A  
HETATM    9  N   UNL     1     -12.338  10.601  69.411  1.00  0.00    -0.270 NA 
HETATM   10  C   UNL     1     -10.685  11.630  67.788  1.00  0.00    -0.204 A  
HETATM   11  N   UNL     1      -9.363  11.584  67.452  1.00  0.00    -0.165 NA 
HETATM   12  N   UNL     1     -12.186   9.729  70.403  1.00  0.00    -0.126 NA 
HETATM   13  N   UNL     1     -10.875   9.372  70.437  1.00  0.00    -0.248 NA 
BRANCH  10  14
HETATM   14  N   UNL     1     -11.574  12.534  67.171  1.00  0.00    -0.350 NA 
HETATM   15  H   UNL     1     -11.883  12.391  66.210  1.00  0.00     0.000 HD 
BRANCH  14  16
HETATM   16  C   UNL     1     -12.042  13.685  67.946  1.00  0.00    -0.283 C  
HETATM   17  C   UNL     1     -11.166  14.295  69.020  1.00  0.00    -0.294 C  
HETATM   18  C   UNL     1     -11.438  15.042  67.741  1.00  0.00    -0.347 C  
BRANCH  17  19
HETATM   19  C   UNL     1     -11.811  14.664  70.332  1.00  0.00    -0.365 A  
HETATM   20  C   UNL     1     -13.409  14.294  72.130  1.00  0.00    -0.416 A  
HETATM   21  C   UNL     1     -12.833  13.902  70.920  1.00  0.00    -0.370 A  
HETATM   22  F   UNL     1     -14.373  13.538  72.671  1.00  0.00    -0.584 F  
HETATM   23  C   UNL     1     -12.986  15.453  72.768  1.00  0.00    -0.448 A  
HETATM   24  C   UNL     1     -11.407  15.839  70.999  1.00  0.00    -0.437 A  
HETATM   25  F   UNL     1     -13.544  15.826  73.926  1.00  0.00    -0.368 F  
HETATM   26  C   UNL     1     -11.987  16.234  72.207  1.00  0.00    -0.605 A  
ENDBRANCH  17  19
ENDBRANCH  14  16
ENDBRANCH  10  14
BRANCH  13  27
HETATM   27  C   UNL     1     -10.451   8.499  71.513  1.00  0.00    -0.248 C  
HETATM   28  C   UNL     1      -9.603   7.311  71.028  1.00  0.00    -0.158 C  
HETATM   29  C   UNL     1     -10.629   6.237  70.662  1.00  0.00    -0.246 C  
HETATM   30  H   UNL     1     -11.746   7.311  74.213  1.00  0.00     0.000 HD 
HETATM   31  C   UNL     1     -11.716   6.397  71.754  1.00  0.00    -0.324 C  
HETATM   32  H   UNL     1     -12.240   5.536  73.486  1.00  0.00     0.000 HD 
HETATM   33  O   UNL     1     -11.067   7.733  73.698  1.00  0.00    -0.197 OA 
HETATM   34  C   UNL     1     -11.543   7.822  72.340  1.00  0.00    -0.356 C  
HETATM   35  O   UNL     1     -11.574   5.437  72.817  1.00  0.00    -0.307 OA 
BRANCH  29  36
HETATM   36  O   UNL     1     -11.199   6.461  69.366  1.00  0.00    -0.359 OA 
BRANCH  36  37
HETATM   37  C   UNL     1     -10.242   6.398  68.297  1.00  0.00    -0.171 C  
BRANCH  37  38
HETATM   38  C   UNL     1     -10.970   6.366  66.956  1.00  0.00    -0.389 C  
HETATM   39  H   UNL     1     -11.146   5.126  65.443  1.00  0.00     0.000 HD 
HETATM   40  O   UNL     1     -10.693   5.146  66.278  1.00  0.00    -0.310 OA 
ENDBRANCH  37  38
ENDBRANCH  36  37
ENDBRANCH  29  36
ENDBRANCH  13  27
ENDBRANCH   4   5
ENDBRANCH   3   4
ENDBRANCH   2   3
TORSDOF 10
ENDMDL
MODEL       25
REMARK 921   NORMALIZED FREE ENERGY PREDICTED BY IDOCK:   -6.21 KCAL/MOL
REMARK 922        TOTAL FREE ENERGY PREDICTED BY IDOCK:  -11.90 KCAL/MOL
REMARK 923 INTER-LIGAND FREE ENERGY PREDICTED BY IDOCK:  -10.52 KCAL/MOL
REMARK 924 INTRA-LIGAND FREE ENERGY PREDICTED BY IDOCK:   -1.38 KCAL/MOL
REMARK 927      BINDING AFFINITY PREDICTED BY RF-SCORE:    0.00 PKD
ROOT
HETATM    1  C   UNL     1      -6.151  12.637  67.498  1.00  0.00    -0.157 C  
HETATM    2  C   UNL     1      -5.299  11.458  67.049  1.00  0.00    -0.091 C  
ENDROOT
BRANCH   2   3
HETATM    3  C   UNL     1      -6.094  10.440  66.224  1.00  0.00    -0.090 C  
BRANCH   3   4
HETATM    4  S   UNL     1      -6.665   9.099  67.328  1.00  0.00    -0.069 SA 
BRANCH   4   5
HETATM    5  C   UNL     1      -8.248   9.741  67.828  1.00  0.00    -0.114 A  
HETATM    6  N   UNL     1      -8.942  10.402  66.875  1.00  0.00    -0.139 NA 
HETATM    7  C   UNL     1     -10.113  10.870  67.339  1.00  0.00    -0.191 A  
HETATM    8  C   UNL     1     -10.608  10.727  68.621  1.00  0.00    -0.199 A  
HETATM    9  N   UNL     1     -11.843  11.307  68.711  1.00  0.00    -0.430 NA 
HETATM   10  C   UNL     1      -9.835   9.998  69.536  1.00  0.00    -0.229 A  
HETATM   11  N   UNL     1      -8.637   9.510  69.101  1.00  0.00    -0.133 NA 
HETATM   12  N   UNL     1     -12.157  11.793  67.514  1.00  0.00    -0.550 NA 
HETATM   13  N   UNL     1     -11.129  11.506  66.672  1.00  0.00    -0.302 NA 
BRANCH  10  14
HETATM   14  N   UNL     1     -10.311   9.738  70.839  1.00  0.00    -0.332 NA 
HETATM   15  H   UNL     1     -10.196  10.425  71.584  1.00  0.00     0.000 HD 
BRANCH  14  16
HETATM   16  C   UNL     1     -10.973   8.457  71.094  1.00  0.00    -0.244 C  
HETATM   17  C   UNL     1     -10.723   7.709  72.387  1.00  0.00    -0.333 C  
HETATM   18  C   UNL     1     -12.060   8.350  72.121  1.00  0.00    -0.435 C  
BRANCH  17  19
HETATM   19  C   UNL     1     -10.504   6.219  72.309  1.00  0.00    -0.227 A  
HETATM   20  C   UNL     1     -10.539   3.982  73.266  1.00  0.00    -0.189 A  
HETATM   21  C   UNL     1     -10.772   5.354  73.381  1.00  0.00    -0.321 A  
HETATM   22  F   UNL     1     -10.816   3.182  74.303  1.00  0.00    -0.229 F  
HETATM   23  C   UNL     1     -10.028   3.452  72.088  1.00  0.00    -0.160 A  
HETATM   24  C   UNL     1      -9.980   5.654  71.129  1.00  0.00    -0.244 A  
HETATM   25  F   UNL     1      -9.804   2.136  71.984  1.00  0.00    -0.174 F  
HETATM   26  C   UNL     1      -9.743   4.282  71.014  1.00  0.00    -0.260 A  
ENDBRANCH  17  19
ENDBRANCH  14  16
ENDBRANCH  10  14
BRANCH  13  27
HETATM   27  C   UNL     1     -11.295  11.853  65.275  1.00  0.00    -0.275 C  
HETATM   28  C   UNL     1     -10.169  12.752  64.738  1.00  0.00    -0.304 C  
HETATM   29  C   UNL     1     -10.626  14.174  65.070  1.00  0.00    -0.419 C  
HETATM   30  H   UNL     1     -13.741  12.654  63.337  1.00  0.00     0.000 HD 
HETATM   31  C   UNL     1     -12.155  14.120  64.827  1.00  0.00    -0.441 C  
HETATM   32  H   UNL     1     -13.465  14.615  63.393  1.00  0.00     0.000 HD 
HETATM   33  O   UNL     1     -12.957  12.175  63.578  1.00  0.00    -0.794 OA 
HETATM   34  C   UNL     1     -12.557  12.624  64.889  1.00  0.00    -0.450 C  
HETATM   35  O   UNL     1     -12.528  14.648  63.541  1.00  0.00    -0.681 OA 
BRANCH  29  36
HETATM   36  O   UNL     1     -10.358  14.518  66.435  1.00  0.00    -0.280 OA 
BRANCH  36  37
HETATM   37  C   UNL     1      -9.144  15.264  66.612  1.00  0.00    -0.282 C  
BRANCH  37  38
HETATM   38  C   UNL     1      -9.475  16.737  66.842  1.00  0.00    -0.241 C  
HETATM   39  H   UNL     1      -9.721  18.345  65.742  1.00  0.00     0.000 HD 
HETATM   40  O   UNL     1      -9.515  17.429  65.599  1.00  0.00    -0.509 OA 
ENDBRANCH  37  38
ENDBRANCH  36  37
ENDBRANCH  29  36
ENDBRANCH  13  27
ENDBRANCH   4   5
ENDBRANCH   3   4
ENDBRANCH   2   3
TORSDOF 10
ENDMDL
MODEL       26
REMARK 921   NORMALIZED FREE ENERGY PREDICTED BY IDOCK:   -6.18 KCAL/MOL
REMARK 922        TOTAL FREE ENERGY PREDICTED BY IDOCK:  -11.86 KCAL/MOL
REMARK 923 INTER-LIGAND FREE ENERGY PREDICTED BY IDOCK:   -9.95 KCAL/MOL
REMARK 924 INTRA-LIGAND FREE ENERGY PREDICTED BY IDOCK:   -1.91 KCAL/MOL
REMARK 927      BINDING AFFINITY PREDICTED BY RF-SCORE:    0.00 PKD
ROOT
HETATM    1  C   UNL     1     -12.409  15.104  64.331  1.00  0.00    -0.225 C  
HETATM    2  C   UNL     1     -13.016  14.071  65.271  1.00  0.00    -0.315 C  
ENDROOT
BRANCH   2   3
HETATM    3  C   UNL     1     -12.528  12.649  64.970  1.00  0.00    -0.487 C  
BRANCH   3   4
HETATM    4  S   UNL     1     -10.918  12.744  64.108  1.00  0.00    -0.426 SA 
BRANCH   4   5
HETATM    5  C   UNL     1      -9.817  12.915  65.496  1.00  0.00    -0.146 A  
HETATM    6  N   UNL     1      -9.443  14.180  65.797  1.00  0.00    -0.117 NA 
HETATM    7  C   UNL     1      -8.597  14.219  66.841  1.00  0.00    -0.146 A  
HETATM    8  C   UNL     1      -8.130  13.138  67.564  1.00  0.00    -0.181 A  
HETATM    9  N   UNL     1      -7.315  13.571  68.573  1.00  0.00    -0.109 NA 
HETATM   10  C   UNL     1      -8.596  11.866  67.203  1.00  0.00    -0.172 A  
HETATM   11  N   UNL     1      -9.454  11.787  66.143  1.00  0.00    -0.223 NA 
HETATM   12  N   UNL     1      -7.271  14.899  68.526  1.00  0.00    -0.108 NA 
HETATM   13  N   UNL     1      -8.068  15.299  67.500  1.00  0.00    -0.158 NA 
BRANCH  10  14
HETATM   14  N   UNL     1      -8.230  10.724  67.944  1.00  0.00    -0.111 NA 
HETATM   15  H   UNL     1      -7.584  10.035  67.559  1.00  0.00     0.000 HD 
BRANCH  14  16
HETATM   16  C   UNL     1      -8.801  10.551  69.282  1.00  0.00    -0.122 C  
HETATM   17  C   UNL     1      -9.515   9.268  69.651  1.00  0.00    -0.188 C  
HETATM   18  C   UNL     1      -8.179   9.602  70.262  1.00  0.00    -0.217 C  
BRANCH  17  19
HETATM   19  C   UNL     1     -10.810   9.376  70.416  1.00  0.00    -0.321 A  
HETATM   20  C   UNL     1     -12.717  10.628  71.264  1.00  0.00    -0.433 A  
HETATM   21  C   UNL     1     -11.530  10.575  70.531  1.00  0.00    -0.433 A  
HETATM   22  F   UNL     1     -13.386  11.785  71.343  1.00  0.00    -0.424 F  
HETATM   23  C   UNL     1     -13.202   9.492  71.900  1.00  0.00    -0.439 A  
HETATM   24  C   UNL     1     -11.322   8.241  71.079  1.00  0.00    -0.299 A  
HETATM   25  F   UNL     1     -14.339   9.548  72.603  1.00  0.00    -0.378 F  
HETATM   26  C   UNL     1     -12.509   8.294  71.814  1.00  0.00    -0.367 A  
ENDBRANCH  17  19
ENDBRANCH  14  16
ENDBRANCH  10  14
BRANCH  13  27
HETATM   27  C   UNL     1      -8.258  16.724  67.321  1.00  0.00    -0.176 C  
HETATM   28  C   UNL     1      -8.396  17.486  68.650  1.00  0.00    -0.258 C  
HETATM   29  C   UNL     1      -9.887  17.405  68.982  1.00  0.00    -0.230 C  
HETATM   30  H   UNL     1      -9.893  18.634  65.307  1.00  0.00     0.000 HD 
HETATM   31  C   UNL     1     -10.566  17.544  67.596  1.00  0.00    -0.355 C  
HETATM   32  H   UNL     1     -11.445  18.968  66.492  1.00  0.00     0.000 HD 
HETATM   33  O   UNL     1      -9.126  18.352  65.792  1.00  0.00    -0.432 OA 
HETATM   34  C   UNL     1      -9.491  17.176  66.541  1.00  0.00    -0.273 C  
HETATM   35  O   UNL     1     -11.028  18.883  67.341  1.00  0.00    -0.437 OA 
BRANCH  29  36
HETATM   36  O   UNL     1     -10.236  16.148  69.575  1.00  0.00    -0.248 OA 
BRANCH  36  37
HETATM   37  C   UNL     1     -11.525  15.660  69.172  1.00  0.00    -0.359 C  
BRANCH  37  38
HETATM   38  C   UNL     1     -11.681  14.204  69.604  1.00  0.00    -0.316 C  
HETATM   39  H   UNL     1     -11.797  12.448  68.733  1.00  0.00     0.000 HD 
HETATM   40  O   UNL     1     -11.699  13.354  68.464  1.00  0.00    -0.313 OA 
ENDBRANCH  37  38
ENDBRANCH  36  37
ENDBRANCH  29  36
ENDBRANCH  13  27
ENDBRANCH   4   5
ENDBRANCH   3   4
ENDBRANCH   2   3
TORSDOF 10
ENDMDL
MODEL       27
REMARK 921   NORMALIZED FREE ENERGY PREDICTED BY IDOCK:   -6.17 KCAL/MOL
REMARK 922        TOTAL FREE ENERGY PREDICTED BY IDOCK:  -11.85 KCAL/MOL
REMARK 923 INTER-LIGAND FREE ENERGY PREDICTED BY IDOCK:  -10.92 KCAL/MOL
REMARK 924 INTRA-LIGAND FREE ENERGY PREDICTED BY IDOCK:   -0.92 KCAL/MOL
REMARK 927      BINDING AFFINITY PREDICTED BY RF-SCORE:    0.00 PKD
ROOT
HETATM    1  C   UNL     1     -10.469  11.380  63.457  1.00  0.00    -0.477 C  
HETATM    2  C   UNL     1     -10.021  10.560  64.659  1.00  0.00    -0.415 C  
ENDROOT
BRANCH   2   3
HETATM    3  C   UNL     1     -10.506  11.153  65.986  1.00  0.00    -0.256 C  
BRANCH   3   4
HETATM    4  S   UNL     1      -9.070  11.836  66.890  1.00  0.00    -0.198 SA 
BRANCH   4   5
HETATM    5  C   UNL     1      -9.896  12.855  68.092  1.00  0.00    -0.227 A  
HETATM    6  N   UNL     1      -9.580  14.170  68.065  1.00  0.00    -0.211 NA 
HETATM    7  C   UNL     1     -10.230  14.863  69.014  1.00  0.00    -0.243 A  
HETATM    8  C   UNL     1     -11.127  14.357  69.936  1.00  0.00    -0.121 A  
HETATM    9  N   UNL     1     -11.610  15.369  70.719  1.00  0.00    -0.313 NA 
HETATM   10  C   UNL     1     -11.421  12.987  69.870  1.00  0.00    -0.081 A  
HETATM   11  N   UNL     1     -10.776  12.250  68.920  1.00  0.00    -0.206 NA 
HETATM   12  N   UNL     1     -11.063  16.507  70.304  1.00  0.00    -0.279 NA 
HETATM   13  N   UNL     1     -10.251  16.213  69.254  1.00  0.00    -0.241 NA 
BRANCH  10  14
HETATM   14  N   UNL     1     -12.387  12.413  70.722  1.00  0.00    -0.362 NA 
HETATM   15  H   UNL     1     -12.889  12.983  71.403  1.00  0.00     0.000 HD 
BRANCH  14  16
HETATM   16  C   UNL     1     -12.653  10.978  70.603  1.00  0.00    -0.338 C  
HETATM   17  C   UNL     1     -11.648   9.968  71.115  1.00  0.00    -0.460 C  
HETATM   18  C   UNL     1     -12.967  10.156  71.818  1.00  0.00    -0.567 C  
BRANCH  17  19
HETATM   19  C   UNL     1     -11.350   8.768  70.251  1.00  0.00    -0.162 A  
HETATM   20  C   UNL     1     -10.642   7.736  68.164  1.00  0.00    -0.124 A  
HETATM   21  C   UNL     1     -10.890   8.877  68.929  1.00  0.00    -0.052 A  
HETATM   22  F   UNL     1     -10.192   7.875  66.910  1.00  0.00    -0.275 F  
HETATM   23  C   UNL     1     -10.856   6.472  68.697  1.00  0.00    -0.295 A  
HETATM   24  C   UNL     1     -11.564   7.472  70.763  1.00  0.00    -0.300 A  
HETATM   25  F   UNL     1     -10.619   5.381  67.958  1.00  0.00    -0.243 F  
HETATM   26  C   UNL     1     -11.320   6.330  69.996  1.00  0.00    -0.486 A  
ENDBRANCH  17  19
ENDBRANCH  14  16
ENDBRANCH  10  14
BRANCH  13  27
HETATM   27  C   UNL     1      -9.622  17.323  68.569  1.00  0.00    -0.291 C  
HETATM   28  C   UNL     1     -10.535  17.982  67.521  1.00  0.00    -0.408 C  
HETATM   29  C   UNL     1     -10.307  17.164  66.249  1.00  0.00    -0.313 C  
HETATM   30  H   UNL     1      -6.699  17.994  67.392  1.00  0.00     0.000 HD 
HETATM   31  C   UNL     1      -8.790  16.850  66.297  1.00  0.00    -0.279 C  
HETATM   32  H   UNL     1      -7.089  17.549  65.501  1.00  0.00     0.000 HD 
HETATM   33  O   UNL     1      -7.489  18.177  67.887  1.00  0.00    -0.219 OA 
HETATM   34  C   UNL     1      -8.351  17.027  67.773  1.00  0.00    -0.196 C  
HETATM   35  O   UNL     1      -8.018  17.742  65.472  1.00  0.00    -0.395 OA 
BRANCH  29  36
HETATM   36  O   UNL     1     -11.060  15.944  66.255  1.00  0.00    -0.182 OA 
BRANCH  36  37
HETATM   37  C   UNL     1     -11.091  15.281  64.981  1.00  0.00    -0.426 C  
BRANCH  37  38
HETATM   38  C   UNL     1     -12.285  14.333  64.924  1.00  0.00    -0.440 C  
HETATM   39  H   UNL     1     -13.351  13.441  63.537  1.00  0.00     0.000 HD 
HETATM   40  O   UNL     1     -12.608  14.031  63.572  1.00  0.00    -0.842 OA 
ENDBRANCH  37  38
ENDBRANCH  36  37
ENDBRANCH  29  36
ENDBRANCH  13  27
ENDBRANCH   4   5
ENDBRANCH   3   4
ENDBRANCH   2   3
TORSDOF 10
ENDMDL
MODEL       28
REMARK 921   NORMALIZED FREE ENERGY PREDICTED BY IDOCK:   -6.15 KCAL/MOL
REMARK 922        TOTAL FREE ENERGY PREDICTED BY IDOCK:  -11.81 KCAL/MOL
REMARK 923 INTER-LIGAND FREE ENERGY PREDICTED BY IDOCK:  -10.23 KCAL/MOL
REMARK 924 INTRA-LIGAND FREE ENERGY PREDICTED BY IDOCK:   -1.58 KCAL/MOL
REMARK 927      BINDING AFFINITY PREDICTED BY RF-SCORE:    0.00 PKD
ROOT
HETATM    1  C   UNL     1     -10.655  11.569  63.299  1.00  0.00    -0.405 C  
HETATM    2  C   UNL     1     -12.020  12.216  63.488  1.00  0.00    -0.619 C  
ENDROOT
BRANCH   2   3
HETATM    3  C   UNL     1     -11.921  13.645  64.031  1.00  0.00    -0.431 C  
BRANCH   3   4
HETATM    4  S   UNL     1     -12.639  13.692  65.712  1.00  0.00    -0.419 SA 
BRANCH   4   5
HETATM    5  C   UNL     1     -11.274  13.062  66.665  1.00  0.00    -0.307 A  
HETATM    6  N   UNL     1     -11.554  12.008  67.466  1.00  0.00    -0.450 NA 
HETATM    7  C   UNL     1     -10.478  11.608  68.165  1.00  0.00    -0.195 A  
HETATM    8  C   UNL     1      -9.211  12.160  68.116  1.00  0.00    -0.197 A  
HETATM    9  N   UNL     1      -8.369  11.466  68.940  1.00  0.00    -0.093 NA 
HETATM   10  C   UNL     1      -9.004  13.229  67.232  1.00  0.00    -0.217 A  
HETATM   11  N   UNL     1     -10.076  13.665  66.509  1.00  0.00    -0.279 NA 
HETATM   12  N   UNL     1      -9.060  10.473  69.492  1.00  0.00    -0.107 NA 
HETATM   13  N   UNL     1     -10.327  10.535  69.005  1.00  0.00    -0.200 NA 
BRANCH  10  14
HETATM   14  N   UNL     1      -7.721  13.790  67.065  1.00  0.00    -0.351 NA 
HETATM   15  H   UNL     1      -6.977  13.266  66.605  1.00  0.00     0.000 HD 
BRANCH  14  16
HETATM   16  C   UNL     1      -7.484  15.145  67.568  1.00  0.00    -0.198 C  
HETATM   17  C   UNL     1      -8.546  15.858  68.379  1.00  0.00    -0.178 C  
HETATM   18  C   UNL     1      -7.272  15.390  69.032  1.00  0.00    -0.153 C  
BRANCH  17  19
HETATM   19  C   UNL     1      -8.816  17.309  68.067  1.00  0.00    -0.238 A  
HETATM   20  C   UNL     1     -10.205  19.103  67.188  1.00  0.00    -0.401 A  
HETATM   21  C   UNL     1     -10.007  17.750  67.470  1.00  0.00    -0.324 A  
HETATM   22  F   UNL     1     -11.358  19.493  66.629  1.00  0.00    -0.406 F  
HETATM   23  C   UNL     1      -9.219  20.035  67.486  1.00  0.00    -0.364 A  
HETATM   24  C   UNL     1      -7.831  18.276  68.352  1.00  0.00    -0.318 A  
HETATM   25  F   UNL     1      -9.413  21.331  67.210  1.00  0.00    -0.533 F  
HETATM   26  C   UNL     1      -8.027  19.630  68.066  1.00  0.00    -0.339 A  
ENDBRANCH  17  19
ENDBRANCH  14  16
ENDBRANCH  10  14
BRANCH  13  27
HETATM   27  C   UNL     1     -11.241   9.480  69.393  1.00  0.00    -0.035 C  
HETATM   28  C   UNL     1     -12.650   9.996  69.730  1.00  0.00     0.358 C  
HETATM   29  C   UNL     1     -12.573  10.372  71.211  1.00  0.00    -0.419 C  
HETATM   30  H   UNL     1     -11.098   6.790  71.160  1.00  0.00     0.000 HD 
HETATM   31  C   UNL     1     -11.670   9.266  71.811  1.00  0.00    -0.386 C  
HETATM   32  H   UNL     1     -11.875   7.545  72.818  1.00  0.00     0.000 HD 
HETATM   33  O   UNL     1     -11.323   7.303  70.393  1.00  0.00    -0.281 OA 
HETATM   34  C   UNL     1     -10.878   8.655  70.627  1.00  0.00    -0.229 C  
HETATM   35  O   UNL     1     -12.429   8.223  72.450  1.00  0.00    -0.344 OA 
BRANCH  29  36
HETATM   36  O   UNL     1     -11.970  11.657  71.406  1.00  0.00     0.112 OA 
BRANCH  36  37
HETATM   37  C   UNL     1     -12.784  12.750  70.953  1.00  0.00    -0.192 C  
BRANCH  37  38
HETATM   38  C   UNL     1     -12.969  13.757  72.086  1.00  0.00    -0.343 C  
HETATM   39  H   UNL     1     -14.361  14.213  73.394  1.00  0.00     0.000 HD 
HETATM   40  O   UNL     1     -14.246  13.586  72.689  1.00  0.00    -0.751 OA 
ENDBRANCH  37  38
ENDBRANCH  36  37
ENDBRANCH  29  36
ENDBRANCH  13  27
ENDBRANCH   4   5
ENDBRANCH   3   4
ENDBRANCH   2   3
TORSDOF 10
ENDMDL
MODEL       29
REMARK 921   NORMALIZED FREE ENERGY PREDICTED BY IDOCK:   -6.12 KCAL/MOL
REMARK 922        TOTAL FREE ENERGY PREDICTED BY IDOCK:  -11.76 KCAL/MOL
REMARK 923 INTER-LIGAND FREE ENERGY PREDICTED BY IDOCK:  -10.85 KCAL/MOL
REMARK 924 INTRA-LIGAND FREE ENERGY PREDICTED BY IDOCK:   -0.91 KCAL/MOL
REMARK 927      BINDING AFFINITY PREDICTED BY RF-SCORE:    0.00 PKD
ROOT
HETATM    1  C   UNL     1     -10.365  12.227  63.531  1.00  0.00    -0.443 C  
HETATM    2  C   UNL     1     -11.855  11.996  63.319  1.00  0.00    -0.450 C  
ENDROOT
BRANCH   2   3
HETATM    3  C   UNL     1     -12.715  12.760  64.332  1.00  0.00    -0.289 C  
BRANCH   3   4
HETATM    4  S   UNL     1     -11.622  13.766  65.398  1.00  0.00    -0.333 SA 
BRANCH   4   5
HETATM    5  C   UNL     1     -11.691  12.830  66.910  1.00  0.00    -0.380 A  
HETATM    6  N   UNL     1     -12.095  13.513  68.006  1.00  0.00    -0.323 NA 
HETATM    7  C   UNL     1     -12.100  12.741  69.106  1.00  0.00    -0.158 A  
HETATM    8  C   UNL     1     -11.750  11.406  69.177  1.00  0.00    -0.342 A  
HETATM    9  N   UNL     1     -11.912  10.950  70.456  1.00  0.00    -0.343 NA 
HETATM   10  C   UNL     1     -11.375  10.769  67.985  1.00  0.00    -0.307 A  
HETATM   11  N   UNL     1     -11.354  11.524  66.848  1.00  0.00    -0.420 NA 
HETATM   12  N   UNL     1     -12.379  11.952  71.194  1.00  0.00    -0.271 NA 
HETATM   13  N   UNL     1     -12.524  13.030  70.377  1.00  0.00    -0.244 NA 
BRANCH  10  14
HETATM   14  N   UNL     1     -11.084   9.389  67.962  1.00  0.00    -0.513 NA 
HETATM   15  H   UNL     1     -11.364   8.809  67.172  1.00  0.00     0.000 HD 
BRANCH  14  16
HETATM   16  C   UNL     1     -10.370   8.811  69.102  1.00  0.00    -0.217 C  
HETATM   17  C   UNL     1     -10.196   7.312  69.218  1.00  0.00    -0.193 C  
HETATM   18  C   UNL     1      -9.014   8.197  68.923  1.00  0.00    -0.141 C  
BRANCH  17  19
HETATM   19  C   UNL     1     -10.421   6.677  70.568  1.00  0.00    -0.240 A  
HETATM   20  C   UNL     1     -10.416   4.773  72.083  1.00  0.00    -0.175 A  
HETATM   21  C   UNL     1     -10.178   5.318  70.820  1.00  0.00    -0.317 A  
HETATM   22  F   UNL     1     -10.162   3.476  72.294  1.00  0.00    -0.219 F  
HETATM   23  C   UNL     1     -10.907   5.568  73.111  1.00  0.00    -0.285 A  
HETATM   24  C   UNL     1     -10.926   7.458  71.628  1.00  0.00    -0.252 A  
HETATM   25  F   UNL     1     -11.136   5.040  74.319  1.00  0.00    -0.311 F  
HETATM   26  C   UNL     1     -11.168   6.912  72.891  1.00  0.00    -0.254 A  
ENDBRANCH  17  19
ENDBRANCH  14  16
ENDBRANCH  10  14
BRANCH  13  27
HETATM   27  C   UNL     1     -13.121  14.220  70.946  1.00  0.00    -0.304 C  
HETATM   28  C   UNL     1     -12.662  15.515  70.255  1.00  0.00    -0.310 C  
HETATM   29  C   UNL     1     -11.375  15.901  70.987  1.00  0.00    -0.389 C  
HETATM   30  H   UNL     1     -13.862  15.288  73.894  1.00  0.00     0.000 HD 
HETATM   31  C   UNL     1     -11.679  15.527  72.459  1.00  0.00    -0.468 C  
HETATM   32  H   UNL     1     -12.267  16.435  74.147  1.00  0.00     0.000 HD 
HETATM   33  O   UNL     1     -14.033  15.109  72.977  1.00  0.00    -0.424 OA 
HETATM   34  C   UNL     1     -12.846  14.508  72.422  1.00  0.00    -0.360 C  
HETATM   35  O   UNL     1     -12.081  16.665  73.244  1.00  0.00    -0.480 OA 
BRANCH  29  36
HETATM   36  O   UNL     1     -10.246  15.155  70.515  1.00  0.00    -0.075 OA 
BRANCH  36  37
HETATM   37  C   UNL     1      -9.665  15.689  69.315  1.00  0.00    -0.271 C  
BRANCH  37  38
HETATM   38  C   UNL     1      -8.371  14.944  68.995  1.00  0.00    -0.175 C  
HETATM   39  H   UNL     1      -7.859  13.229  68.187  1.00  0.00     0.000 HD 
HETATM   40  O   UNL     1      -8.665  13.692  68.386  1.00  0.00    -0.176 OA 
ENDBRANCH  37  38
ENDBRANCH  36  37
ENDBRANCH  29  36
ENDBRANCH  13  27
ENDBRANCH   4   5
ENDBRANCH   3   4
ENDBRANCH   2   3
TORSDOF 10
ENDMDL
MODEL       30
REMARK 921   NORMALIZED FREE ENERGY PREDICTED BY IDOCK:   -6.12 KCAL/MOL
REMARK 922        TOTAL FREE ENERGY PREDICTED BY IDOCK:  -11.76 KCAL/MOL
REMARK 923 INTER-LIGAND FREE ENERGY PREDICTED BY IDOCK:  -10.21 KCAL/MOL
REMARK 924 INTRA-LIGAND FREE ENERGY PREDICTED BY IDOCK:   -1.55 KCAL/MOL
REMARK 927      BINDING AFFINITY PREDICTED BY RF-SCORE:    0.00 PKD
ROOT
HETATM    1  C   UNL     1     -14.213  15.281  71.684  1.00  0.00    -0.654 C  
HETATM    2  C   UNL     1     -14.062  13.862  72.214  1.00  0.00    -0.632 C  
ENDROOT
BRANCH   2   3
HETATM    3  C   UNL     1     -12.972  13.075  71.477  1.00  0.00    -0.305 C  
BRANCH   3   4
HETATM    4  S   UNL     1     -13.267  11.287  71.721  1.00  0.00    -0.248 SA 
BRANCH   4   5
HETATM    5  C   UNL     1     -12.072  10.603  70.593  1.00  0.00    -0.365 A  
HETATM    6  N   UNL     1     -11.190   9.729  71.130  1.00  0.00    -0.370 NA 
HETATM    7  C   UNL     1     -10.312   9.277  70.218  1.00  0.00    -0.229 A  
HETATM    8  C   UNL     1     -10.263   9.621  68.880  1.00  0.00    -0.201 A  
HETATM    9  N   UNL     1      -9.256   8.935  68.260  1.00  0.00    -0.140 NA 
HETATM   10  C   UNL     1     -11.237  10.510  68.403  1.00  0.00    -0.279 A  
HETATM   11  N   UNL     1     -12.143  10.993  69.302  1.00  0.00    -0.371 NA 
HETATM   12  N   UNL     1      -8.680   8.146  69.162  1.00  0.00    -0.139 NA 
HETATM   13  N   UNL     1      -9.333   8.325  70.341  1.00  0.00    -0.157 NA 
BRANCH  10  14
HETATM   14  N   UNL     1     -11.303  10.844  67.034  1.00  0.00    -0.363 NA 
HETATM   15  H   UNL     1     -11.144  10.138  66.315  1.00  0.00     0.000 HD 
BRANCH  14  16
HETATM   16  C   UNL     1     -11.605  12.230  66.671  1.00  0.00    -0.375 C  
HETATM   17  C   UNL     1     -10.491  13.188  66.308  1.00  0.00    -0.291 C  
HETATM   18  C   UNL     1     -11.452  12.700  65.256  1.00  0.00    -0.368 C  
BRANCH  17  19
HETATM   19  C   UNL     1     -10.546  14.584  66.876  1.00  0.00    -0.279 A  
HETATM   20  C   UNL     1     -11.069  16.173  68.643  1.00  0.00    -0.356 A  
HETATM   21  C   UNL     1     -11.024  14.862  68.166  1.00  0.00    -0.276 A  
HETATM   22  F   UNL     1     -11.518  16.404  69.883  1.00  0.00    -0.306 F  
HETATM   23  C   UNL     1     -10.648  17.228  67.842  1.00  0.00    -0.384 A  
HETATM   24  C   UNL     1     -10.133  15.674  66.084  1.00  0.00    -0.333 A  
HETATM   25  F   UNL     1     -10.696  18.483  68.303  1.00  0.00    -0.361 F  
HETATM   26  C   UNL     1     -10.181  16.987  66.559  1.00  0.00    -0.321 A  
ENDBRANCH  17  19
ENDBRANCH  14  16
ENDBRANCH  10  14
BRANCH  13  27
HETATM   27  C   UNL     1      -8.941   7.485  71.454  1.00  0.00    -0.133 C  
HETATM   28  C   UNL     1      -8.455   6.092  71.017  1.00  0.00    -0.128 C  
HETATM   29  C   UNL     1      -9.731   5.254  70.930  1.00  0.00    -0.184 C  
HETATM   30  H   UNL     1     -10.018   6.890  74.431  1.00  0.00     0.000 HD 
HETATM   31  C   UNL     1     -10.572   5.764  72.128  1.00  0.00    -0.219 C  
HETATM   32  H   UNL     1     -10.989   5.215  74.010  1.00  0.00     0.000 HD 
HETATM   33  O   UNL     1      -9.355   7.092  73.782  1.00  0.00    -0.190 OA 
HETATM   34  C   UNL     1     -10.008   7.159  72.498  1.00  0.00    -0.168 C  
HETATM   35  O   UNL     1     -10.473   4.903  73.276  1.00  0.00    -0.174 OA 
BRANCH  29  36
HETATM   36  O   UNL     1     -10.438   5.479  69.704  1.00  0.00    -0.264 OA 
BRANCH  36  37
HETATM   37  C   UNL     1      -9.793   4.906  68.555  1.00  0.00    -0.141 C  
BRANCH  37  38
HETATM   38  C   UNL     1     -10.390   5.500  67.282  1.00  0.00    -0.236 C  
HETATM   39  H   UNL     1     -11.741   6.847  66.817  1.00  0.00     0.000 HD 
HETATM   40  O   UNL     1     -11.370   6.478  67.610  1.00  0.00    -0.268 OA 
ENDBRANCH  37  38
ENDBRANCH  36  37
ENDBRANCH  29  36
ENDBRANCH  13  27
ENDBRANCH   4   5
ENDBRANCH   3   4
ENDBRANCH   2   3
TORSDOF 10
ENDMDL
MODEL       31
REMARK 921   NORMALIZED FREE ENERGY PREDICTED BY IDOCK:   -6.11 KCAL/MOL
REMARK 922        TOTAL FREE ENERGY PREDICTED BY IDOCK:  -11.75 KCAL/MOL
REMARK 923 INTER-LIGAND FREE ENERGY PREDICTED BY IDOCK:   -9.82 KCAL/MOL
REMARK 924 INTRA-LIGAND FREE ENERGY PREDICTED BY IDOCK:   -1.93 KCAL/MOL
REMARK 927      BINDING AFFINITY PREDICTED BY RF-SCORE:    0.00 PKD
ROOT
HETATM    1  C   UNL     1     -11.877   6.809  70.660  1.00  0.00    -0.442 C  
HETATM    2  C   UNL     1     -12.716   7.564  71.682  1.00  0.00    -0.385 C  
ENDROOT
BRANCH   2   3
HETATM    3  C   UNL     1     -12.152   8.955  71.990  1.00  0.00    -0.371 C  
BRANCH   3   4
HETATM    4  S   UNL     1     -13.089  10.199  71.032  1.00  0.00    -0.316 SA 
BRANCH   4   5
HETATM    5  C   UNL     1     -11.897  10.607  69.775  1.00  0.00    -0.304 A  
HETATM    6  N   UNL     1     -10.608  10.333  70.077  1.00  0.00    -0.280 NA 
HETATM    7  C   UNL     1      -9.772  10.689  69.086  1.00  0.00    -0.189 A  
HETATM    8  C   UNL     1     -10.123  11.267  67.880  1.00  0.00    -0.178 A  
HETATM    9  N   UNL     1      -9.007  11.455  67.113  1.00  0.00    -0.159 NA 
HETATM   10  C   UNL     1     -11.487  11.485  67.638  1.00  0.00    -0.285 A  
HETATM   11  N   UNL     1     -12.364  11.140  68.625  1.00  0.00    -0.457 NA 
HETATM   12  N   UNL     1      -7.960  10.990  67.788  1.00  0.00    -0.112 NA 
HETATM   13  N   UNL     1      -8.419  10.498  68.969  1.00  0.00    -0.151 NA 
BRANCH  10  14
HETATM   14  N   UNL     1     -11.929  11.994  66.400  1.00  0.00    -0.593 NA 
HETATM   15  H   UNL     1     -12.102  11.372  65.611  1.00  0.00     0.000 HD 
BRANCH  14  16
HETATM   16  C   UNL     1     -12.133  13.439  66.275  1.00  0.00    -0.422 C  
HETATM   17  C   UNL     1     -11.017  14.331  65.775  1.00  0.00    -0.305 C  
HETATM   18  C   UNL     1     -12.234  14.083  64.925  1.00  0.00    -0.455 C  
BRANCH  17  19
HETATM   19  C   UNL     1     -10.777  15.634  66.495  1.00  0.00    -0.293 A  
HETATM   20  C   UNL     1     -10.654  16.994  68.509  1.00  0.00    -0.370 A  
HETATM   21  C   UNL     1     -10.869  15.762  67.890  1.00  0.00    -0.314 A  
HETATM   22  F   UNL     1     -10.737  17.079  69.843  1.00  0.00    -0.314 F  
HETATM   23  C   UNL     1     -10.352  18.119  67.752  1.00  0.00    -0.399 A  
HETATM   24  C   UNL     1     -10.477  16.794  65.752  1.00  0.00    -0.305 A  
HETATM   25  F   UNL     1     -10.149  19.299  68.351  1.00  0.00    -0.394 F  
HETATM   26  C   UNL     1     -10.265  18.028  66.371  1.00  0.00    -0.393 A  
ENDBRANCH  17  19
ENDBRANCH  14  16
ENDBRANCH  10  14
BRANCH  13  27
HETATM   27  C   UNL     1      -7.461   9.840  69.834  1.00  0.00    -0.141 C  
HETATM   28  C   UNL     1      -6.426   9.004  69.062  1.00  0.00    -0.047 C  
HETATM   29  C   UNL     1      -7.093   7.639  68.888  1.00  0.00    -0.079 C  
HETATM   30  H   UNL     1      -7.527   8.326  72.676  1.00  0.00     0.000 HD 
HETATM   31  C   UNL     1      -7.843   7.437  70.229  1.00  0.00    -0.095 C  
HETATM   32  H   UNL     1      -7.574   6.477  71.967  1.00  0.00     0.000 HD 
HETATM   33  O   UNL     1      -7.188   8.945  72.040  1.00  0.00    -0.287 OA 
HETATM   34  C   UNL     1      -8.006   8.845  70.857  1.00  0.00    -0.148 C  
HETATM   35  O   UNL     1      -7.114   6.600  71.146  1.00  0.00    -0.073 OA 
BRANCH  29  36
HETATM   36  O   UNL     1      -8.026   7.634  67.800  1.00  0.00    -0.117 OA 
BRANCH  36  37
HETATM   37  C   UNL     1      -9.251   6.945  68.095  1.00  0.00    -0.126 C  
BRANCH  37  38
HETATM   38  C   UNL     1     -10.388   7.543  67.271  1.00  0.00    -0.296 C  
HETATM   39  H   UNL     1     -10.571   8.699  65.694  1.00  0.00     0.000 HD 
HETATM   40  O   UNL     1      -9.863   8.327  66.207  1.00  0.00    -0.232 OA 
ENDBRANCH  37  38
ENDBRANCH  36  37
ENDBRANCH  29  36
ENDBRANCH  13  27
ENDBRANCH   4   5
ENDBRANCH   3   4
ENDBRANCH   2   3
TORSDOF 10
ENDMDL
MODEL       32
REMARK 921   NORMALIZED FREE ENERGY PREDICTED BY IDOCK:   -6.11 KCAL/MOL
REMARK 922        TOTAL FREE ENERGY PREDICTED BY IDOCK:  -11.74 KCAL/MOL
REMARK 923 INTER-LIGAND FREE ENERGY PREDICTED BY IDOCK:  -10.01 KCAL/MOL
REMARK 924 INTRA-LIGAND FREE ENERGY PREDICTED BY IDOCK:   -1.73 KCAL/MOL
REMARK 927      BINDING AFFINITY PREDICTED BY RF-SCORE:    0.00 PKD
ROOT
HETATM    1  C   UNL     1     -13.517   7.450  71.447  1.00  0.00    -0.405 C  
HETATM    2  C   UNL     1     -13.516   8.857  72.029  1.00  0.00    -0.482 C  
ENDROOT
BRANCH   2   3
HETATM    3  C   UNL     1     -12.274   9.658  71.622  1.00  0.00    -0.402 C  
BRANCH   3   4
HETATM    4  S   UNL     1     -12.743  10.860  70.326  1.00  0.00    -0.129 SA 
BRANCH   4   5
HETATM    5  C   UNL     1     -11.349  10.715  69.228  1.00  0.00    -0.282 A  
HETATM    6  N   UNL     1     -11.575  11.068  67.942  1.00  0.00    -0.545 NA 
HETATM    7  C   UNL     1     -10.481  10.910  67.178  1.00  0.00    -0.237 A  
HETATM    8  C   UNL     1      -9.245  10.452  67.593  1.00  0.00    -0.148 A  
HETATM    9  N   UNL     1      -8.369  10.459  66.543  1.00  0.00    -0.126 NA 
HETATM   10  C   UNL     1      -9.092  10.141  68.952  1.00  0.00    -0.165 A  
HETATM   11  N   UNL     1     -10.184  10.284  69.758  1.00  0.00    -0.238 NA 
HETATM   12  N   UNL     1      -9.008  10.933  65.478  1.00  0.00    -0.196 NA 
HETATM   13  N   UNL     1     -10.276  11.236  65.862  1.00  0.00    -0.241 NA 
BRANCH  10  14
HETATM   14  N   UNL     1      -7.839   9.746  69.467  1.00  0.00    -0.113 NA 
HETATM   15  H   UNL     1      -6.998  10.287  69.269  1.00  0.00     0.000 HD 
BRANCH  14  16
HETATM   16  C   UNL     1      -7.777   8.539  70.294  1.00  0.00    -0.077 C  
HETATM   17  C   UNL     1      -8.402   7.247  69.813  1.00  0.00    -0.135 C  
HETATM   18  C   UNL     1      -6.905   7.385  69.898  1.00  0.00    -0.055 C  
BRANCH  17  19
HETATM   19  C   UNL     1      -9.203   6.438  70.803  1.00  0.00    -0.161 A  
HETATM   20  C   UNL     1     -10.471   6.197  72.866  1.00  0.00    -0.217 A  
HETATM   21  C   UNL     1      -9.749   6.990  71.972  1.00  0.00    -0.166 A  
HETATM   22  F   UNL     1     -10.990   6.756  73.966  1.00  0.00    -0.253 F  
HETATM   23  C   UNL     1     -10.653   4.842  72.615  1.00  0.00    -0.215 A  
HETATM   24  C   UNL     1      -9.398   5.060  70.578  1.00  0.00    -0.213 A  
HETATM   25  F   UNL     1     -11.343   4.086  73.477  1.00  0.00    -0.313 F  
HETATM   26  C   UNL     1     -10.117   4.265  71.474  1.00  0.00    -0.205 A  
ENDBRANCH  17  19
ENDBRANCH  14  16
ENDBRANCH  10  14
BRANCH  13  27
HETATM   27  C   UNL     1     -11.135  11.870  64.882  1.00  0.00    -0.307 C  
HETATM   28  C   UNL     1     -10.426  12.977  64.084  1.00  0.00    -0.395 C  
HETATM   29  C   UNL     1     -10.600  14.233  64.939  1.00  0.00    -0.431 C  
HETATM   30  H   UNL     1     -14.206  12.831  64.734  1.00  0.00     0.000 HD 
HETATM   31  C   UNL     1     -12.033  14.079  65.509  1.00  0.00    -0.384 C  
HETATM   32  H   UNL     1     -13.882  14.746  65.119  1.00  0.00     0.000 HD 
HETATM   33  O   UNL     1     -13.426  12.393  64.413  1.00  0.00    -0.626 OA 
HETATM   34  C   UNL     1     -12.389  12.574  65.398  1.00  0.00    -0.359 C  
HETATM   35  O   UNL     1     -13.004  14.841  64.770  1.00  0.00    -0.400 OA 
BRANCH  29  36
HETATM   36  O   UNL     1      -9.650  14.288  66.011  1.00  0.00    -0.295 OA 
BRANCH  36  37
HETATM   37  C   UNL     1      -9.746  15.481  66.805  1.00  0.00    -0.239 C  
BRANCH  37  38
HETATM   38  C   UNL     1      -8.843  16.563  66.217  1.00  0.00    -0.329 C  
HETATM   39  H   UNL     1      -9.061  18.349  65.433  1.00  0.00     0.000 HD 
HETATM   40  O   UNL     1      -9.623  17.676  65.798  1.00  0.00    -0.524 OA 
ENDBRANCH  37  38
ENDBRANCH  36  37
ENDBRANCH  29  36
ENDBRANCH  13  27
ENDBRANCH   4   5
ENDBRANCH   3   4
ENDBRANCH   2   3
TORSDOF 10
ENDMDL
MODEL       33
REMARK 921   NORMALIZED FREE ENERGY PREDICTED BY IDOCK:   -6.09 KCAL/MOL
REMARK 922        TOTAL FREE ENERGY PREDICTED BY IDOCK:  -11.71 KCAL/MOL
REMARK 923 INTER-LIGAND FREE ENERGY PREDICTED BY IDOCK:  -10.10 KCAL/MOL
REMARK 924 INTRA-LIGAND FREE ENERGY PREDICTED BY IDOCK:   -1.61 KCAL/MOL
REMARK 927      BINDING AFFINITY PREDICTED BY RF-SCORE:    0.00 PKD
ROOT
HETATM    1  C   UNL     1     -14.261  14.781  71.608  1.00  0.00    -0.618 C  
HETATM    2  C   UNL     1     -13.446  13.530  71.905  1.00  0.00    -0.528 C  
ENDROOT
BRANCH   2   3
HETATM    3  C   UNL     1     -12.368  13.269  70.846  1.00  0.00    -0.329 C  
BRANCH   3   4
HETATM    4  S   UNL     1     -12.211  11.465  70.594  1.00  0.00    -0.359 SA 
BRANCH   4   5
HETATM    5  C   UNL     1     -11.740  11.416  68.878  1.00  0.00    -0.343 A  
HETATM    6  N   UNL     1     -10.953  10.379  68.514  1.00  0.00    -0.238 NA 
HETATM    7  C   UNL     1     -10.627  10.427  67.211  1.00  0.00    -0.267 A  
HETATM    8  C   UNL     1     -11.016  11.391  66.300  1.00  0.00    -0.247 A  
HETATM    9  N   UNL     1     -10.518  11.089  65.063  1.00  0.00    -0.291 NA 
HETATM   10  C   UNL     1     -11.860  12.413  66.758  1.00  0.00    -0.315 A  
HETATM   11  N   UNL     1     -12.209  12.398  68.077  1.00  0.00    -0.277 NA 
HETATM   12  N   UNL     1      -9.843   9.948  65.159  1.00  0.00    -0.313 NA 
HETATM   13  N   UNL     1      -9.930   9.526  66.448  1.00  0.00    -0.256 NA 
BRANCH  10  14
HETATM   14  N   UNL     1     -12.366  13.385  65.870  1.00  0.00    -0.443 NA 
HETATM   15  H   UNL     1     -13.274  13.261  65.421  1.00  0.00     0.000 HD 
BRANCH  14  16
HETATM   16  C   UNL     1     -11.556  14.576  65.609  1.00  0.00    -0.344 C  
HETATM   17  C   UNL     1     -10.532  15.044  66.620  1.00  0.00    -0.284 C  
HETATM   18  C   UNL     1     -10.093  14.454  65.306  1.00  0.00    -0.387 C  
BRANCH  17  19
HETATM   19  C   UNL     1     -10.455  16.521  66.917  1.00  0.00    -0.282 A  
HETATM   20  C   UNL     1     -10.508  18.860  66.249  1.00  0.00    -0.445 A  
HETATM   21  C   UNL     1     -10.603  17.505  65.927  1.00  0.00    -0.203 A  
HETATM   22  F   UNL     1     -10.667  19.774  65.284  1.00  0.00    -0.542 F  
HETATM   23  C   UNL     1     -10.257  19.257  67.556  1.00  0.00    -0.414 A  
HETATM   24  C   UNL     1     -10.193  16.953  68.233  1.00  0.00    -0.318 A  
HETATM   25  F   UNL     1     -10.165  20.557  67.859  1.00  0.00    -0.515 F  
HETATM   26  C   UNL     1     -10.095  18.309  68.555  1.00  0.00    -0.419 A  
ENDBRANCH  17  19
ENDBRANCH  14  16
ENDBRANCH  10  14
BRANCH  13  27
HETATM   27  C   UNL     1      -9.350   8.238  66.768  1.00  0.00    -0.182 C  
HETATM   28  C   UNL     1      -8.144   8.338  67.718  1.00  0.00    -0.127 C  
HETATM   29  C   UNL     1      -6.948   8.564  66.792  1.00  0.00    -0.073 C  
HETATM   30  H   UNL     1      -8.705   5.504  65.190  1.00  0.00     0.000 HD 
HETATM   31  C   UNL     1      -7.272   7.668  65.569  1.00  0.00    -0.068 C  
HETATM   32  H   UNL     1      -6.783   5.857  64.865  1.00  0.00     0.000 HD 
HETATM   33  O   UNL     1      -9.047   6.020  65.911  1.00  0.00    -0.155 OA 
HETATM   34  C   UNL     1      -8.800   7.408  65.608  1.00  0.00    -0.024 C  
HETATM   35  O   UNL     1      -6.584   6.405  65.615  1.00  0.00    -0.044 OA 
BRANCH  29  36
HETATM   36  O   UNL     1      -6.839   9.933  66.381  1.00  0.00    -0.084 OA 
BRANCH  36  37
HETATM   37  C   UNL     1      -6.562  10.837  67.462  1.00  0.00    -0.059 C  
BRANCH  37  38
HETATM   38  C   UNL     1      -7.297  12.155  67.231  1.00  0.00    -0.149 C  
HETATM   39  H   UNL     1      -8.635  13.241  68.172  1.00  0.00     0.000 HD 
HETATM   40  O   UNL     1      -8.177  12.421  68.316  1.00  0.00    -0.162 OA 
ENDBRANCH  37  38
ENDBRANCH  36  37
ENDBRANCH  29  36
ENDBRANCH  13  27
ENDBRANCH   4   5
ENDBRANCH   3   4
ENDBRANCH   2   3
TORSDOF 10
ENDMDL
MODEL       34
REMARK 921   NORMALIZED FREE ENERGY PREDICTED BY IDOCK:   -6.09 KCAL/MOL
REMARK 922        TOTAL FREE ENERGY PREDICTED BY IDOCK:  -11.71 KCAL/MOL
REMARK 923 INTER-LIGAND FREE ENERGY PREDICTED BY IDOCK:   -9.68 KCAL/MOL
REMARK 924 INTRA-LIGAND FREE ENERGY PREDICTED BY IDOCK:   -2.03 KCAL/MOL
REMARK 927      BINDING AFFINITY PREDICTED BY RF-SCORE:    0.00 PKD
ROOT
HETATM    1  C   UNL     1     -14.024  15.395  71.871  1.00  0.00    -0.629 C  
HETATM    2  C   UNL     1     -13.912  13.891  72.081  1.00  0.00    -0.639 C  
ENDROOT
BRANCH   2   3
HETATM    3  C   UNL     1     -12.900  13.242  71.130  1.00  0.00    -0.280 C  
BRANCH   3   4
HETATM    4  S   UNL     1     -12.829  11.447  71.476  1.00  0.00    -0.333 SA 
BRANCH   4   5
HETATM    5  C   UNL     1     -12.027  10.863  69.998  1.00  0.00    -0.350 A  
HETATM    6  N   UNL     1     -11.300   9.731  70.133  1.00  0.00    -0.254 NA 
HETATM    7  C   UNL     1     -10.713   9.370  68.979  1.00  0.00    -0.187 A  
HETATM    8  C   UNL     1     -10.802  10.029  67.768  1.00  0.00    -0.282 A  
HETATM    9  N   UNL     1     -10.098   9.347  66.814  1.00  0.00    -0.240 NA 
HETATM   10  C   UNL     1     -11.605  11.177  67.712  1.00  0.00    -0.223 A  
HETATM   11  N   UNL     1     -12.214  11.576  68.867  1.00  0.00    -0.419 NA 
HETATM   12  N   UNL     1      -9.584   8.260  67.381  1.00  0.00    -0.153 NA 
HETATM   13  N   UNL     1      -9.977   8.251  68.683  1.00  0.00    -0.185 NA 
BRANCH  10  14
HETATM   14  N   UNL     1     -11.812  11.856  66.493  1.00  0.00    -0.570 NA 
HETATM   15  H   UNL     1     -11.802  11.354  65.606  1.00  0.00     0.000 HD 
BRANCH  14  16
HETATM   16  C   UNL     1     -12.042  13.302  66.534  1.00  0.00    -0.375 C  
HETATM   17  C   UNL     1     -10.938  14.265  66.151  1.00  0.00    -0.313 C  
HETATM   18  C   UNL     1     -12.144  14.096  65.266  1.00  0.00    -0.407 C  
BRANCH  17  19
HETATM   19  C   UNL     1     -10.728  15.480  67.019  1.00  0.00    -0.321 A  
HETATM   20  C   UNL     1     -10.832  16.654  69.148  1.00  0.00    -0.315 A  
HETATM   21  C   UNL     1     -11.030  15.499  68.389  1.00  0.00    -0.297 A  
HETATM   22  F   UNL     1     -11.119  16.635  70.456  1.00  0.00    -0.366 F  
HETATM   23  C   UNL     1     -10.341  17.810  68.555  1.00  0.00    -0.364 A  
HETATM   24  C   UNL     1     -10.237  16.670  66.442  1.00  0.00    -0.322 A  
HETATM   25  F   UNL     1     -10.155  18.915  69.286  1.00  0.00    -0.415 F  
HETATM   26  C   UNL     1     -10.043  17.827  67.201  1.00  0.00    -0.338 A  
ENDBRANCH  17  19
ENDBRANCH  14  16
ENDBRANCH  10  14
BRANCH  13  27
HETATM   27  C   UNL     1      -9.617   7.096  69.479  1.00  0.00    -0.154 C  
HETATM   28  C   UNL     1      -8.687   7.439  70.655  1.00  0.00    -0.142 C  
HETATM   29  C   UNL     1      -7.280   7.374  70.058  1.00  0.00    -0.073 C  
HETATM   30  H   UNL     1      -8.848   4.017  68.924  1.00  0.00     0.000 HD 
HETATM   31  C   UNL     1      -7.365   6.175  69.080  1.00  0.00    -0.085 C  
HETATM   32  H   UNL     1      -6.882   4.231  69.044  1.00  0.00     0.000 HD 
HETATM   33  O   UNL     1      -9.312   4.722  69.361  1.00  0.00    -0.111 OA 
HETATM   34  C   UNL     1      -8.871   5.963  68.776  1.00  0.00    -0.111 C  
HETATM   35  O   UNL     1      -6.830   4.965  69.644  1.00  0.00    -0.049 OA 
BRANCH  29  36
HETATM   36  O   UNL     1      -6.946   8.569  69.341  1.00  0.00    -0.048 OA 
BRANCH  36  37
HETATM   37  C   UNL     1      -6.986   9.755  70.150  1.00  0.00    -0.118 C  
BRANCH  37  38
HETATM   38  C   UNL     1      -7.478  10.932  69.311  1.00  0.00    -0.124 C  
HETATM   39  H   UNL     1      -7.529  11.425  67.411  1.00  0.00     0.000 HD 
HETATM   40  O   UNL     1      -7.223  10.692  67.933  1.00  0.00    -0.085 OA 
ENDBRANCH  37  38
ENDBRANCH  36  37
ENDBRANCH  29  36
ENDBRANCH  13  27
ENDBRANCH   4   5
ENDBRANCH   3   4
ENDBRANCH   2   3
TORSDOF 10
ENDMDL
MODEL       35
REMARK 921   NORMALIZED FREE ENERGY PREDICTED BY IDOCK:   -6.07 KCAL/MOL
REMARK 922        TOTAL FREE ENERGY PREDICTED BY IDOCK:  -11.68 KCAL/MOL
REMARK 923 INTER-LIGAND FREE ENERGY PREDICTED BY IDOCK:  -10.20 KCAL/MOL
REMARK 924 INTRA-LIGAND FREE ENERGY PREDICTED BY IDOCK:   -1.47 KCAL/MOL
REMARK 927      BINDING AFFINITY PREDICTED BY RF-SCORE:    0.00 PKD
ROOT
HETATM    1  C   UNL     1     -12.651  11.979  63.339  1.00  0.00    -0.592 C  
HETATM    2  C   UNL     1     -11.273  11.384  63.593  1.00  0.00    -0.366 C  
ENDROOT
BRANCH   2   3
HETATM    3  C   UNL     1     -10.202  12.459  63.808  1.00  0.00    -0.377 C  
BRANCH   3   4
HETATM    4  S   UNL     1     -10.966  13.900  64.635  1.00  0.00    -0.382 SA 
BRANCH   4   5
HETATM    5  C   UNL     1      -9.953  14.012  66.094  1.00  0.00    -0.312 A  
HETATM    6  N   UNL     1      -9.237  15.152  66.225  1.00  0.00    -0.300 NA 
HETATM    7  C   UNL     1      -8.486  15.148  67.340  1.00  0.00    -0.183 A  
HETATM    8  C   UNL     1      -8.411  14.138  68.280  1.00  0.00    -0.157 A  
HETATM    9  N   UNL     1      -7.568  14.505  69.292  1.00  0.00    -0.111 NA 
HETATM   10  C   UNL     1      -9.214  13.006  68.080  1.00  0.00    -0.212 A  
HETATM   11  N   UNL     1      -9.987  12.973  66.956  1.00  0.00    -0.238 NA 
HETATM   12  N   UNL     1      -7.126  15.732  69.033  1.00  0.00    -0.147 NA 
HETATM   13  N   UNL     1      -7.700  16.139  67.871  1.00  0.00    -0.135 NA 
BRANCH  10  14
HETATM   14  N   UNL     1      -9.255  11.970  69.036  1.00  0.00    -0.363 NA 
HETATM   15  H   UNL     1      -8.626  11.975  69.840  1.00  0.00     0.000 HD 
BRANCH  14  16
HETATM   16  C   UNL     1     -10.223  10.887  68.847  1.00  0.00    -0.198 C  
HETATM   17  C   UNL     1     -10.131   9.623  69.675  1.00  0.00    -0.242 C  
HETATM   18  C   UNL     1     -11.259  10.597  69.892  1.00  0.00    -0.378 C  
BRANCH  17  19
HETATM   19  C   UNL     1     -10.318   8.303  68.971  1.00  0.00    -0.233 A  
HETATM   20  C   UNL     1     -10.554   5.881  68.957  1.00  0.00    -0.290 A  
HETATM   21  C   UNL     1     -10.394   7.079  69.655  1.00  0.00    -0.222 A  
HETATM   22  F   UNL     1     -10.636   4.732  69.640  1.00  0.00    -0.296 F  
HETATM   23  C   UNL     1     -10.631   5.879  67.570  1.00  0.00    -0.273 A  
HETATM   24  C   UNL     1     -10.392   8.270  67.563  1.00  0.00    -0.333 A  
HETATM   25  F   UNL     1     -10.781   4.727  66.906  1.00  0.00    -0.239 F  
HETATM   26  C   UNL     1     -10.548   7.070  66.865  1.00  0.00    -0.372 A  
ENDBRANCH  17  19
ENDBRANCH  14  16
ENDBRANCH  10  14
BRANCH  13  27
HETATM   27  C   UNL     1      -7.441  17.497  67.440  1.00  0.00    -0.195 C  
HETATM   28  C   UNL     1      -7.685  18.538  68.545  1.00  0.00    -0.330 C  
HETATM   29  C   UNL     1      -9.174  18.867  68.437  1.00  0.00    -0.347 C  
HETATM   30  H   UNL     1      -7.945  19.247  64.782  1.00  0.00     0.000 HD 
HETATM   31  C   UNL     1      -9.430  18.853  66.909  1.00  0.00    -0.317 C  
HETATM   32  H   UNL     1      -9.586  20.167  65.403  1.00  0.00     0.000 HD 
HETATM   33  O   UNL     1      -7.428  18.911  65.505  1.00  0.00    -0.484 OA 
HETATM   34  C   UNL     1      -8.274  18.036  66.277  1.00  0.00    -0.208 C  
HETATM   35  O   UNL     1      -9.429  20.175  66.339  1.00  0.00    -0.384 OA 
BRANCH  29  36
HETATM   36  O   UNL     1      -9.989  17.877  69.078  1.00  0.00    -0.341 OA 
BRANCH  36  37
HETATM   37  C   UNL     1     -11.075  17.409  68.263  1.00  0.00    -0.009 C  
BRANCH  37  38
HETATM   38  C   UNL     1     -11.581  16.072  68.799  1.00  0.00    -0.351 C  
HETATM   39  H   UNL     1     -11.204  14.898  70.327  1.00  0.00     0.000 HD 
HETATM   40  O   UNL     1     -10.889  15.730  69.994  1.00  0.00    -0.286 OA 
ENDBRANCH  37  38
ENDBRANCH  36  37
ENDBRANCH  29  36
ENDBRANCH  13  27
ENDBRANCH   4   5
ENDBRANCH   3   4
ENDBRANCH   2   3
TORSDOF 10
ENDMDL
MODEL       36
REMARK 921   NORMALIZED FREE ENERGY PREDICTED BY IDOCK:   -6.05 KCAL/MOL
REMARK 922        TOTAL FREE ENERGY PREDICTED BY IDOCK:  -11.65 KCAL/MOL
REMARK 923 INTER-LIGAND FREE ENERGY PREDICTED BY IDOCK:  -10.54 KCAL/MOL
REMARK 924 INTRA-LIGAND FREE ENERGY PREDICTED BY IDOCK:   -1.11 KCAL/MOL
REMARK 927      BINDING AFFINITY PREDICTED BY RF-SCORE:    0.00 PKD
ROOT
HETATM    1  C   UNL     1     -14.393   7.200  71.616  1.00  0.00    -0.528 C  
HETATM    2  C   UNL     1     -14.373   8.716  71.749  1.00  0.00    -0.476 C  
ENDROOT
BRANCH   2   3
HETATM    3  C   UNL     1     -12.967   9.261  72.025  1.00  0.00    -0.425 C  
BRANCH   3   4
HETATM    4  S   UNL     1     -12.847  10.958  71.354  1.00  0.00    -0.435 SA 
BRANCH   4   5
HETATM    5  C   UNL     1     -11.849  10.667  69.910  1.00  0.00    -0.315 A  
HETATM    6  N   UNL     1     -10.893   9.719  70.037  1.00  0.00    -0.258 NA 
HETATM    7  C   UNL     1     -10.174   9.576  68.911  1.00  0.00    -0.199 A  
HETATM    8  C   UNL     1     -10.340  10.278  67.732  1.00  0.00    -0.204 A  
HETATM    9  N   UNL     1      -9.446   9.835  66.797  1.00  0.00    -0.157 NA 
HETATM   10  C   UNL     1     -11.378  11.219  67.679  1.00  0.00    -0.282 A  
HETATM   11  N   UNL     1     -12.127  11.394  68.806  1.00  0.00    -0.514 NA 
HETATM   12  N   UNL     1      -8.733   8.854  67.342  1.00  0.00    -0.125 NA 
HETATM   13  N   UNL     1      -9.188   8.671  68.610  1.00  0.00    -0.139 NA 
BRANCH  10  14
HETATM   14  N   UNL     1     -11.663  11.915  66.486  1.00  0.00    -0.562 NA 
HETATM   15  H   UNL     1     -11.603  11.448  65.581  1.00  0.00     0.000 HD 
BRANCH  14  16
HETATM   16  C   UNL     1     -12.046  13.325  66.578  1.00  0.00    -0.375 C  
HETATM   17  C   UNL     1     -11.238  14.388  65.864  1.00  0.00    -0.324 C  
HETATM   18  C   UNL     1     -12.626  14.039  65.394  1.00  0.00    -0.529 C  
BRANCH  17  19
HETATM   19  C   UNL     1     -10.927  15.660  66.611  1.00  0.00    -0.212 A  
HETATM   20  C   UNL     1     -10.226  17.989  66.707  1.00  0.00    -0.364 A  
HETATM   21  C   UNL     1     -10.518  16.840  65.970  1.00  0.00    -0.300 A  
HETATM   22  F   UNL     1      -9.851  19.101  66.064  1.00  0.00    -0.367 F  
HETATM   23  C   UNL     1     -10.328  17.980  68.093  1.00  0.00    -0.388 A  
HETATM   24  C   UNL     1     -11.014  15.679  68.019  1.00  0.00    -0.318 A  
HETATM   25  F   UNL     1     -10.045  19.083  68.795  1.00  0.00    -0.395 F  
HETATM   26  C   UNL     1     -10.719  16.828  68.757  1.00  0.00    -0.341 A  
ENDBRANCH  17  19
ENDBRANCH  14  16
ENDBRANCH  10  14
BRANCH  13  27
HETATM   27  C   UNL     1      -8.623   7.575  69.369  1.00  0.00    -0.133 C  
HETATM   28  C   UNL     1      -8.581   6.254  68.582  1.00  0.00    -0.121 C  
HETATM   29  C   UNL     1      -9.951   5.621  68.829  1.00  0.00    -0.167 C  
HETATM   30  H   UNL     1      -8.762   6.513  72.407  1.00  0.00     0.000 HD 
HETATM   31  C   UNL     1     -10.242   5.972  70.310  1.00  0.00    -0.208 C  
HETATM   32  H   UNL     1     -10.118   5.100  72.110  1.00  0.00     0.000 HD 
HETATM   33  O   UNL     1      -8.321   6.761  71.603  1.00  0.00    -0.111 OA 
HETATM   34  C   UNL     1      -9.332   7.177  70.662  1.00  0.00    -0.158 C  
HETATM   35  O   UNL     1      -9.940   4.884  71.203  1.00  0.00    -0.186 OA 
BRANCH  29  36
HETATM   36  O   UNL     1     -10.962   6.184  67.984  1.00  0.00    -0.312 OA 
BRANCH  36  37
HETATM   37  C   UNL     1     -10.664   6.083  66.583  1.00  0.00    -0.244 C  
BRANCH  37  38
HETATM   38  C   UNL     1     -10.465   4.617  66.205  1.00  0.00    -0.241 C  
HETATM   39  H   UNL     1      -9.044   3.512  65.421  1.00  0.00     0.000 HD 
HETATM   40  O   UNL     1      -9.167   4.424  65.657  1.00  0.00    -0.132 OA 
ENDBRANCH  37  38
ENDBRANCH  36  37
ENDBRANCH  29  36
ENDBRANCH  13  27
ENDBRANCH   4   5
ENDBRANCH   3   4
ENDBRANCH   2   3
TORSDOF 10
ENDMDL
MODEL       37
REMARK 921   NORMALIZED FREE ENERGY PREDICTED BY IDOCK:   -6.05 KCAL/MOL
REMARK 922        TOTAL FREE ENERGY PREDICTED BY IDOCK:  -11.64 KCAL/MOL
REMARK 923 INTER-LIGAND FREE ENERGY PREDICTED BY IDOCK:  -10.15 KCAL/MOL
REMARK 924 INTRA-LIGAND FREE ENERGY PREDICTED BY IDOCK:   -1.49 KCAL/MOL
REMARK 927      BINDING AFFINITY PREDICTED BY RF-SCORE:    0.00 PKD
ROOT
HETATM    1  C   UNL     1     -12.028  12.861  63.483  1.00  0.00    -0.629 C  
HETATM    2  C   UNL     1     -12.050  14.293  64.000  1.00  0.00    -0.350 C  
ENDROOT
BRANCH   2   3
HETATM    3  C   UNL     1     -11.946  14.365  65.528  1.00  0.00    -0.358 C  
BRANCH   3   4
HETATM    4  S   UNL     1     -10.225  13.996  66.022  1.00  0.00    -0.313 SA 
BRANCH   4   5
HETATM    5  C   UNL     1     -10.398  12.312  66.572  1.00  0.00    -0.227 A  
HETATM    6  N   UNL     1      -9.644  11.400  65.917  1.00  0.00    -0.220 NA 
HETATM    7  C   UNL     1      -9.848  10.154  66.378  1.00  0.00    -0.222 A  
HETATM    8  C   UNL     1     -10.707   9.783  67.395  1.00  0.00    -0.249 A  
HETATM    9  N   UNL     1     -10.621   8.435  67.607  1.00  0.00    -0.227 NA 
HETATM   10  C   UNL     1     -11.425  10.800  68.041  1.00  0.00    -0.256 A  
HETATM   11  N   UNL     1     -11.246  12.077  67.596  1.00  0.00    -0.262 NA 
HETATM   12  N   UNL     1      -9.713   7.944  66.769  1.00  0.00    -0.215 NA 
HETATM   13  N   UNL     1      -9.220   8.982  66.044  1.00  0.00    -0.208 NA 
BRANCH  10  14
HETATM   14  N   UNL     1     -12.258  10.509  69.142  1.00  0.00    -0.721 NA 
HETATM   15  H   UNL     1     -12.993   9.806  69.071  1.00  0.00     0.000 HD 
BRANCH  14  16
HETATM   16  C   UNL     1     -12.040  11.244  70.390  1.00  0.00    -0.384 C  
HETATM   17  C   UNL     1     -13.140  12.104  70.975  1.00  0.00    -0.018 C  
HETATM   18  C   UNL     1     -12.730  10.824  71.654  1.00  0.00    -0.520 C  
BRANCH  17  19
HETATM   19  C   UNL     1     -12.765  13.465  71.507  1.00  0.00    -0.386 A  
HETATM   20  C   UNL     1     -11.639  15.615  71.329  1.00  0.00    -0.428 A  
HETATM   21  C   UNL     1     -11.972  14.372  70.787  1.00  0.00    -0.391 A  
HETATM   22  F   UNL     1     -10.891  16.462  70.611  1.00  0.00    -0.283 F  
HETATM   23  C   UNL     1     -12.080  15.970  72.597  1.00  0.00    -0.538 A  
HETATM   24  C   UNL     1     -13.192  13.850  72.794  1.00  0.00    -0.543 A  
HETATM   25  F   UNL     1     -11.756  17.162  73.113  1.00  0.00    -0.505 F  
HETATM   26  C   UNL     1     -12.856  15.092  73.338  1.00  0.00    -0.661 A  
ENDBRANCH  17  19
ENDBRANCH  14  16
ENDBRANCH  10  14
BRANCH  13  27
HETATM   27  C   UNL     1      -8.134   8.698  65.129  1.00  0.00    -0.143 C  
HETATM   28  C   UNL     1      -6.911   8.071  65.819  1.00  0.00    -0.056 C  
HETATM   29  C   UNL     1      -6.091   9.268  66.304  1.00  0.00    -0.060 C  
HETATM   30  H   UNL     1      -6.773  10.143  62.591  1.00  0.00     0.000 HD 
HETATM   31  C   UNL     1      -6.258  10.299  65.159  1.00  0.00    -0.127 C  
HETATM   32  H   UNL     1      -5.238  10.940  63.558  1.00  0.00     0.000 HD 
HETATM   33  O   UNL     1      -7.150   9.409  63.062  1.00  0.00    -0.096 OA 
HETATM   34  C   UNL     1      -7.527   9.879  64.372  1.00  0.00    -0.137 C  
HETATM   35  O   UNL     1      -5.135  10.308  64.259  1.00  0.00    -0.088 OA 
BRANCH  29  36
HETATM   36  O   UNL     1      -6.605   9.808  67.528  1.00  0.00    -0.068 OA 
BRANCH  36  37
HETATM   37  C   UNL     1      -5.869  10.944  68.009  1.00  0.00    -0.045 C  
BRANCH  37  38
HETATM   38  C   UNL     1      -6.623  11.592  69.167  1.00  0.00    -0.102 C  
HETATM   39  H   UNL     1      -8.156  12.797  69.392  1.00  0.00     0.000 HD 
HETATM   40  O   UNL     1      -7.687  12.394  68.671  1.00  0.00    -0.118 OA 
ENDBRANCH  37  38
ENDBRANCH  36  37
ENDBRANCH  29  36
ENDBRANCH  13  27
ENDBRANCH   4   5
ENDBRANCH   3   4
ENDBRANCH   2   3
TORSDOF 10
ENDMDL
MODEL       38
REMARK 921   NORMALIZED FREE ENERGY PREDICTED BY IDOCK:   -6.04 KCAL/MOL
REMARK 922        TOTAL FREE ENERGY PREDICTED BY IDOCK:  -11.63 KCAL/MOL
REMARK 923 INTER-LIGAND FREE ENERGY PREDICTED BY IDOCK:  -10.02 KCAL/MOL
REMARK 924 INTRA-LIGAND FREE ENERGY PREDICTED BY IDOCK:   -1.61 KCAL/MOL
REMARK 927      BINDING AFFINITY PREDICTED BY RF-SCORE:    0.00 PKD
ROOT
HETATM    1  C   UNL     1     -14.293   7.584  71.456  1.00  0.00    -0.603 C  
HETATM    2  C   UNL     1     -13.790   8.891  72.052  1.00  0.00    -0.511 C  
ENDROOT
BRANCH   2   3
HETATM    3  C   UNL     1     -12.478   9.360  71.413  1.00  0.00    -0.352 C  
BRANCH   3   4
HETATM    4  S   UNL     1     -12.626  11.133  70.990  1.00  0.00    -0.379 SA 
BRANCH   4   5
HETATM    5  C   UNL     1     -11.955  11.131  69.342  1.00  0.00    -0.349 A  
HETATM    6  N   UNL     1     -11.342   9.989  68.958  1.00  0.00    -0.141 NA 
HETATM    7  C   UNL     1     -10.847  10.078  67.712  1.00  0.00    -0.282 A  
HETATM    8  C   UNL     1     -10.924  11.171  66.871  1.00  0.00    -0.273 A  
HETATM    9  N   UNL     1     -10.337  10.878  65.671  1.00  0.00    -0.254 NA 
HETATM   10  C   UNL     1     -11.608  12.303  67.339  1.00  0.00    -0.355 A  
HETATM   11  N   UNL     1     -12.120  12.250  68.603  1.00  0.00    -0.224 NA 
HETATM   12  N   UNL     1      -9.912   9.619  65.718  1.00  0.00    -0.296 NA 
HETATM   13  N   UNL     1     -10.244   9.119  66.938  1.00  0.00    -0.258 NA 
BRANCH  10  14
HETATM   14  N   UNL     1     -11.800  13.427  66.509  1.00  0.00    -0.376 NA 
HETATM   15  H   UNL     1     -12.631  13.509  65.924  1.00  0.00     0.000 HD 
BRANCH  14  16
HETATM   16  C   UNL     1     -10.775  14.473  66.509  1.00  0.00    -0.312 C  
HETATM   17  C   UNL     1     -10.521  15.298  67.753  1.00  0.00    -0.253 C  
HETATM   18  C   UNL     1      -9.501  14.296  67.280  1.00  0.00    -0.220 C  
BRANCH  17  19
HETATM   19  C   UNL     1     -10.338  16.786  67.588  1.00  0.00    -0.309 A  
HETATM   20  C   UNL     1     -10.010  19.029  68.472  1.00  0.00    -0.421 A  
HETATM   21  C   UNL     1     -10.160  17.656  68.674  1.00  0.00    -0.377 A  
HETATM   22  F   UNL     1      -9.830  19.831  69.529  1.00  0.00    -0.457 F  
HETATM   23  C   UNL     1     -10.042  19.558  67.188  1.00  0.00    -0.400 A  
HETATM   24  C   UNL     1     -10.374  17.352  66.297  1.00  0.00    -0.330 A  
HETATM   25  F   UNL     1      -9.900  20.876  66.999  1.00  0.00    -0.599 F  
HETATM   26  C   UNL     1     -10.227  18.727  66.094  1.00  0.00    -0.462 A  
ENDBRANCH  17  19
ENDBRANCH  14  16
ENDBRANCH  10  14
BRANCH  13  27
HETATM   27  C   UNL     1      -9.968   7.718  67.181  1.00  0.00    -0.230 C  
HETATM   28  C   UNL     1      -9.156   7.477  68.464  1.00  0.00    -0.134 C  
HETATM   29  C   UNL     1      -7.697   7.611  68.022  1.00  0.00    -0.119 C  
HETATM   30  H   UNL     1      -9.160   5.150  65.411  1.00  0.00     0.000 HD 
HETATM   31  C   UNL     1      -7.691   6.959  66.617  1.00  0.00    -0.105 C  
HETATM   32  H   UNL     1      -7.215   5.200  65.782  1.00  0.00     0.000 HD 
HETATM   33  O   UNL     1      -9.662   5.617  66.069  1.00  0.00    -0.139 OA 
HETATM   34  C   UNL     1      -9.161   6.968  66.122  1.00  0.00    -0.115 C  
HETATM   35  O   UNL     1      -7.219   5.600  66.643  1.00  0.00    -0.071 OA 
BRANCH  29  36
HETATM   36  O   UNL     1      -7.291   8.982  67.928  1.00  0.00    -0.083 OA 
BRANCH  36  37
HETATM   37  C   UNL     1      -6.910   9.557  69.187  1.00  0.00    -0.050 C  
BRANCH  37  38
HETATM   38  C   UNL     1      -7.660  10.870  69.401  1.00  0.00    -0.094 C  
HETATM   39  H   UNL     1      -7.960  12.535  68.405  1.00  0.00     0.000 HD 
HETATM   40  O   UNL     1      -7.494  11.718  68.271  1.00  0.00    -0.089 OA 
ENDBRANCH  37  38
ENDBRANCH  36  37
ENDBRANCH  29  36
ENDBRANCH  13  27
ENDBRANCH   4   5
ENDBRANCH   3   4
ENDBRANCH   2   3
TORSDOF 10
ENDMDL
MODEL       39
REMARK 921   NORMALIZED FREE ENERGY PREDICTED BY IDOCK:   -6.03 KCAL/MOL
REMARK 922        TOTAL FREE ENERGY PREDICTED BY IDOCK:  -11.62 KCAL/MOL
REMARK 923 INTER-LIGAND FREE ENERGY PREDICTED BY IDOCK:  -10.28 KCAL/MOL
REMARK 924 INTRA-LIGAND FREE ENERGY PREDICTED BY IDOCK:   -1.33 KCAL/MOL
REMARK 927      BINDING AFFINITY PREDICTED BY RF-SCORE:    0.00 PKD
ROOT
HETATM    1  C   UNL     1     -12.262  16.056  74.290  1.00  0.00    -0.627 C  
HETATM    2  C   UNL     1     -12.048  16.417  72.826  1.00  0.00    -0.570 C  
ENDROOT
BRANCH   2   3
HETATM    3  C   UNL     1     -13.020  15.685  71.894  1.00  0.00    -0.463 C  
BRANCH   3   4
HETATM    4  S   UNL     1     -13.330  14.010  72.560  1.00  0.00    -0.550 SA 
BRANCH   4   5
HETATM    5  C   UNL     1     -12.814  13.011  71.181  1.00  0.00    -0.245 A  
HETATM    6  N   UNL     1     -12.383  13.689  70.093  1.00  0.00    -0.326 NA 
HETATM    7  C   UNL     1     -12.031  12.863  69.093  1.00  0.00    -0.259 A  
HETATM    8  C   UNL     1     -12.078  11.482  69.109  1.00  0.00    -0.263 A  
HETATM    9  N   UNL     1     -11.611  10.986  67.924  1.00  0.00    -0.545 NA 
HETATM   10  C   UNL     1     -12.507  10.862  70.292  1.00  0.00    -0.303 A  
HETATM   11  N   UNL     1     -12.876  11.670  71.328  1.00  0.00    -0.376 NA 
HETATM   12  N   UNL     1     -11.245  12.014  67.164  1.00  0.00    -0.296 NA 
HETATM   13  N   UNL     1     -11.468  13.151  67.876  1.00  0.00    -0.288 NA 
BRANCH  10  14
HETATM   14  N   UNL     1     -12.503   9.457  70.414  1.00  0.00    -0.460 NA 
HETATM   15  H   UNL     1     -13.201   8.888  69.935  1.00  0.00     0.000 HD 
BRANCH  14  16
HETATM   16  C   UNL     1     -11.471   8.834  71.246  1.00  0.00    -0.292 C  
HETATM   17  C   UNL     1     -10.491   7.850  70.643  1.00  0.00    -0.216 C  
HETATM   18  C   UNL     1     -10.029   9.213  71.085  1.00  0.00    -0.377 C  
BRANCH  17  19
HETATM   19  C   UNL     1     -10.184   6.594  71.420  1.00  0.00    -0.220 A  
HETATM   20  C   UNL     1     -10.823   4.735  72.853  1.00  0.00    -0.237 A  
HETATM   21  C   UNL     1     -11.160   5.884  72.137  1.00  0.00    -0.333 A  
HETATM   22  F   UNL     1     -11.780   4.073  73.516  1.00  0.00    -0.329 F  
HETATM   23  C   UNL     1      -9.511   4.279  72.876  1.00  0.00    -0.123 A  
HETATM   24  C   UNL     1      -8.860   6.113  71.467  1.00  0.00    -0.135 A  
HETATM   25  F   UNL     1      -9.193   3.177  73.567  1.00  0.00    -0.084 F  
HETATM   26  C   UNL     1      -8.522   4.964  72.187  1.00  0.00    -0.124 A  
ENDBRANCH  17  19
ENDBRANCH  14  16
ENDBRANCH  10  14
BRANCH  13  27
HETATM   27  C   UNL     1     -11.045  14.402  67.282  1.00  0.00    -0.311 C  
HETATM   28  C   UNL     1      -9.811  14.254  66.377  1.00  0.00    -0.309 C  
HETATM   29  C   UNL     1      -8.622  14.390  67.329  1.00  0.00    -0.215 C  
HETATM   30  H   UNL     1     -10.792  17.473  68.223  1.00  0.00     0.000 HD 
HETATM   31  C   UNL     1      -9.089  15.480  68.326  1.00  0.00    -0.186 C  
HETATM   32  H   UNL     1      -8.851  17.449  68.617  1.00  0.00     0.000 HD 
HETATM   33  O   UNL     1     -11.047  16.773  67.633  1.00  0.00    -0.235 OA 
HETATM   34  C   UNL     1     -10.636  15.527  68.232  1.00  0.00    -0.255 C  
HETATM   35  O   UNL     1      -8.564  16.781  68.005  1.00  0.00    -0.201 OA 
BRANCH  29  36
HETATM   36  O   UNL     1      -8.354  13.169  68.029  1.00  0.00    -0.143 OA 
BRANCH  36  37
HETATM   37  C   UNL     1      -7.234  12.438  67.503  1.00  0.00    -0.145 C  
BRANCH  37  38
HETATM   38  C   UNL     1      -7.727  11.168  66.815  1.00  0.00    -0.153 C  
HETATM   39  H   UNL     1      -7.957   9.275  67.280  1.00  0.00     0.000 HD 
HETATM   40  O   UNL     1      -7.651  10.065  67.709  1.00  0.00    -0.089 OA 
ENDBRANCH  37  38
ENDBRANCH  36  37
ENDBRANCH  29  36
ENDBRANCH  13  27
ENDBRANCH   4   5
ENDBRANCH   3   4
ENDBRANCH   2   3
TORSDOF 10
ENDMDL
MODEL       40
REMARK 921   NORMALIZED FREE ENERGY PREDICTED BY IDOCK:   -6.01 KCAL/MOL
REMARK 922        TOTAL FREE ENERGY PREDICTED BY IDOCK:  -11.59 KCAL/MOL
REMARK 923 INTER-LIGAND FREE ENERGY PREDICTED BY IDOCK:   -9.98 KCAL/MOL
REMARK 924 INTRA-LIGAND FREE ENERGY PREDICTED BY IDOCK:   -1.62 KCAL/MOL
REMARK 927      BINDING AFFINITY PREDICTED BY RF-SCORE:    0.00 PKD
ROOT
HETATM    1  C   UNL     1     -12.480  14.023  65.948  1.00  0.00    -0.513 C  
HETATM    2  C   UNL     1     -12.158  13.604  64.520  1.00  0.00    -0.459 C  
ENDROOT
BRANCH   2   3
HETATM    3  C   UNL     1     -10.697  13.171  64.353  1.00  0.00    -0.407 C  
BRANCH   3   4
HETATM    4  S   UNL     1     -10.616  11.344  64.353  1.00  0.00    -0.350 SA 
BRANCH   4   5
HETATM    5  C   UNL     1     -10.047  11.044  66.012  1.00  0.00    -0.247 A  
HETATM    6  N   UNL     1     -10.019   9.748  66.398  1.00  0.00    -0.233 NA 
HETATM    7  C   UNL     1      -9.598   9.611  67.667  1.00  0.00    -0.142 A  
HETATM    8  C   UNL     1      -9.222  10.626  68.526  1.00  0.00    -0.170 A  
HETATM    9  N   UNL     1      -8.821  10.100  69.722  1.00  0.00    -0.172 NA 
HETATM   10  C   UNL     1      -9.251  11.938  68.030  1.00  0.00    -0.190 A  
HETATM   11  N   UNL     1      -9.678  12.116  66.746  1.00  0.00    -0.203 NA 
HETATM   12  N   UNL     1      -8.909   8.776  69.639  1.00  0.00    -0.138 NA 
HETATM   13  N   UNL     1      -9.349   8.472  68.389  1.00  0.00    -0.135 NA 
BRANCH  10  14
HETATM   14  N   UNL     1      -8.804  13.019  68.818  1.00  0.00    -0.379 NA 
HETATM   15  H   UNL     1      -8.711  12.926  69.829  1.00  0.00     0.000 HD 
BRANCH  14  16
HETATM   16  C   UNL     1      -8.475  14.279  68.147  1.00  0.00    -0.167 C  
HETATM   17  C   UNL     1      -8.730  15.603  68.835  1.00  0.00    -0.215 C  
HETATM   18  C   UNL     1      -7.322  15.115  68.614  1.00  0.00    -0.121 C  
BRANCH  17  19
HETATM   19  C   UNL     1      -9.344  16.715  68.022  1.00  0.00    -0.227 A  
HETATM   20  C   UNL     1     -10.200  18.977  67.763  1.00  0.00    -0.402 A  
HETATM   21  C   UNL     1      -9.617  17.985  68.552  1.00  0.00    -0.342 A  
HETATM   22  F   UNL     1     -10.437  20.183  68.296  1.00  0.00    -0.535 F  
HETATM   23  C   UNL     1     -10.529  18.720  66.438  1.00  0.00    -0.429 A  
HETATM   24  C   UNL     1      -9.694  16.480  66.676  1.00  0.00    -0.275 A  
HETATM   25  F   UNL     1     -11.090  19.675  65.686  1.00  0.00    -0.487 F  
HETATM   26  C   UNL     1     -10.281  17.472  65.887  1.00  0.00    -0.251 A  
ENDBRANCH  17  19
ENDBRANCH  14  16
ENDBRANCH  10  14
BRANCH  13  27
HETATM   27  C   UNL     1      -9.423   7.070  68.033  1.00  0.00    -0.125 C  
HETATM   28  C   UNL     1     -10.866   6.541  67.959  1.00  0.00    -0.372 C  
HETATM   29  C   UNL     1     -11.190   6.118  69.392  1.00  0.00    -0.396 C  
HETATM   30  H   UNL     1      -7.787   4.385  68.736  1.00  0.00     0.000 HD 
HETATM   31  C   UNL     1      -9.855   5.510  69.893  1.00  0.00    -0.194 C  
HETATM   32  H   UNL     1      -9.025   3.701  70.124  1.00  0.00     0.000 HD 
HETATM   33  O   UNL     1      -8.209   5.007  68.155  1.00  0.00    -0.096 OA 
HETATM   34  C   UNL     1      -8.744   6.070  68.968  1.00  0.00    -0.122 C  
HETATM   35  O   UNL     1      -9.843   4.073  69.817  1.00  0.00    -0.211 OA 
BRANCH  29  36
HETATM   36  O   UNL     1     -11.557   7.236  70.211  1.00  0.00    -0.257 OA 
BRANCH  36  37
HETATM   37  C   UNL     1     -11.325   7.023  71.612  1.00  0.00    -0.257 C  
BRANCH  37  38
HETATM   38  C   UNL     1     -11.838   8.222  72.406  1.00  0.00    -0.396 C  
HETATM   39  H   UNL     1     -11.907  10.172  72.185  1.00  0.00     0.000 HD 
HETATM   40  O   UNL     1     -11.588   9.426  71.691  1.00  0.00    -0.362 OA 
ENDBRANCH  37  38
ENDBRANCH  36  37
ENDBRANCH  29  36
ENDBRANCH  13  27
ENDBRANCH   4   5
ENDBRANCH   3   4
ENDBRANCH   2   3
TORSDOF 10
ENDMDL
MODEL       41
REMARK 921   NORMALIZED FREE ENERGY PREDICTED BY IDOCK:   -5.95 KCAL/MOL
REMARK 922        TOTAL FREE ENERGY PREDICTED BY IDOCK:  -11.50 KCAL/MOL
REMARK 923 INTER-LIGAND FREE ENERGY PREDICTED BY IDOCK:   -9.44 KCAL/MOL
REMARK 924 INTRA-LIGAND FREE ENERGY PREDICTED BY IDOCK:   -2.06 KCAL/MOL
REMARK 927      BINDING AFFINITY PREDICTED BY RF-SCORE:    0.00 PKD
ROOT
HETATM    1  C   UNL     1     -12.273  13.219  63.519  1.00  0.00    -0.513 C  
HETATM    2  C   UNL     1     -11.234  12.107  63.533  1.00  0.00    -0.536 C  
ENDROOT
BRANCH   2   3
HETATM    3  C   UNL     1     -10.436  12.066  64.841  1.00  0.00    -0.285 C  
BRANCH   3   4
HETATM    4  S   UNL     1      -9.908  10.345  65.159  1.00  0.00    -0.331 SA 
BRANCH   4   5
HETATM    5  C   UNL     1      -8.965  10.566  66.653  1.00  0.00    -0.141 A  
HETATM    6  N   UNL     1      -9.249   9.708  67.659  1.00  0.00    -0.130 NA 
HETATM    7  C   UNL     1      -8.509   9.954  68.754  1.00  0.00    -0.122 A  
HETATM    8  C   UNL     1      -7.557  10.945  68.899  1.00  0.00    -0.128 A  
HETATM    9  N   UNL     1      -6.989  10.867  70.140  1.00  0.00    -0.183 NA 
HETATM   10  C   UNL     1      -7.304  11.769  67.792  1.00  0.00    -0.106 A  
HETATM   11  N   UNL     1      -8.040  11.550  66.663  1.00  0.00    -0.158 NA 
HETATM   12  N   UNL     1      -7.537   9.838  70.779  1.00  0.00    -0.304 NA 
HETATM   13  N   UNL     1      -8.435   9.263  69.936  1.00  0.00    -0.146 NA 
BRANCH  10  14
HETATM   14  N   UNL     1      -6.290  12.748  67.836  1.00  0.00    -0.101 NA 
HETATM   15  H   UNL     1      -5.305  12.482  67.821  1.00  0.00     0.000 HD 
BRANCH  14  16
HETATM   16  C   UNL     1      -6.686  14.156  67.902  1.00  0.00    -0.167 C  
HETATM   17  C   UNL     1      -8.054  14.544  68.421  1.00  0.00    -0.143 C  
HETATM   18  C   UNL     1      -6.817  14.851  69.224  1.00  0.00    -0.148 C  
BRANCH  17  19
HETATM   19  C   UNL     1      -8.820  15.603  67.668  1.00  0.00    -0.181 A  
HETATM   20  C   UNL     1     -10.295  16.333  65.876  1.00  0.00    -0.365 A  
HETATM   21  C   UNL     1      -9.616  15.316  66.548  1.00  0.00    -0.294 A  
HETATM   22  F   UNL     1     -11.056  16.024  64.818  1.00  0.00    -0.414 F  
HETATM   23  C   UNL     1     -10.186  17.651  66.300  1.00  0.00    -0.362 A  
HETATM   24  C   UNL     1      -8.723  16.950  68.072  1.00  0.00    -0.215 A  
HETATM   25  F   UNL     1     -10.837  18.624  65.650  1.00  0.00    -0.478 F  
HETATM   26  C   UNL     1      -9.400  17.969  67.397  1.00  0.00    -0.254 A  
ENDBRANCH  17  19
ENDBRANCH  14  16
ENDBRANCH  10  14
BRANCH  13  27
HETATM   27  C   UNL     1      -9.087   8.049  70.384  1.00  0.00    -0.150 C  
HETATM   28  C   UNL     1     -10.590   8.017  70.060  1.00  0.00    -0.242 C  
HETATM   29  C   UNL     1     -11.251   8.722  71.246  1.00  0.00    -0.284 C  
HETATM   30  H   UNL     1      -8.941   6.131  72.968  1.00  0.00     0.000 HD 
HETATM   31  C   UNL     1     -10.409   8.243  72.456  1.00  0.00    -0.331 C  
HETATM   32  H   UNL     1     -10.520   6.868  73.910  1.00  0.00     0.000 HD 
HETATM   33  O   UNL     1      -8.960   6.318  72.037  1.00  0.00    -0.142 OA 
HETATM   34  C   UNL     1      -9.057   7.749  71.882  1.00  0.00    -0.134 C  
HETATM   35  O   UNL     1     -11.036   7.161  73.168  1.00  0.00    -0.310 OA 
BRANCH  29  36
HETATM   36  O   UNL     1     -11.176  10.148  71.130  1.00  0.00    -0.325 OA 
BRANCH  36  37
HETATM   37  C   UNL     1     -12.273  10.725  70.405  1.00  0.00    -0.349 C  
BRANCH  37  38
HETATM   38  C   UNL     1     -11.745  11.744  69.398  1.00  0.00    -0.341 C  
HETATM   39  H   UNL     1     -11.814  12.016  67.455  1.00  0.00     0.000 HD 
HETATM   40  O   UNL     1     -12.143  11.382  68.081  1.00  0.00    -0.623 OA 
ENDBRANCH  37  38
ENDBRANCH  36  37
ENDBRANCH  29  36
ENDBRANCH  13  27
ENDBRANCH   4   5
ENDBRANCH   3   4
ENDBRANCH   2   3
TORSDOF 10
ENDMDL
MODEL       42
REMARK 921   NORMALIZED FREE ENERGY PREDICTED BY IDOCK:   -5.94 KCAL/MOL
REMARK 922        TOTAL FREE ENERGY PREDICTED BY IDOCK:  -11.48 KCAL/MOL
REMARK 923 INTER-LIGAND FREE ENERGY PREDICTED BY IDOCK:  -10.07 KCAL/MOL
REMARK 924 INTRA-LIGAND FREE ENERGY PREDICTED BY IDOCK:   -1.41 KCAL/MOL
REMARK 927      BINDING AFFINITY PREDICTED BY RF-SCORE:    0.00 PKD
ROOT
HETATM    1  C   UNL     1     -13.828  14.967  71.290  1.00  0.00    -0.528 C  
HETATM    2  C   UNL     1     -14.087  13.752  72.170  1.00  0.00    -0.604 C  
ENDROOT
BRANCH   2   3
HETATM    3  C   UNL     1     -12.845  12.868  72.328  1.00  0.00    -0.073 C  
BRANCH   3   4
HETATM    4  S   UNL     1     -13.134  11.281  71.465  1.00  0.00    -0.252 SA 
BRANCH   4   5
HETATM    5  C   UNL     1     -11.821  11.321  70.264  1.00  0.00    -0.357 A  
HETATM    6  N   UNL     1     -11.831  12.375  69.417  1.00  0.00    -0.312 NA 
HETATM    7  C   UNL     1     -10.821  12.318  68.532  1.00  0.00    -0.237 A  
HETATM    8  C   UNL     1      -9.856  11.333  68.444  1.00  0.00    -0.199 A  
HETATM    9  N   UNL     1      -8.975  11.632  67.442  1.00  0.00    -0.162 NA 
HETATM   10  C   UNL     1      -9.903  10.294  69.385  1.00  0.00    -0.227 A  
HETATM   11  N   UNL     1     -10.918  10.316  70.298  1.00  0.00    -0.303 NA 
HETATM   12  N   UNL     1      -9.340  12.792  66.907  1.00  0.00    -0.228 NA 
HETATM   13  N   UNL     1     -10.437  13.228  67.580  1.00  0.00    -0.227 NA 
BRANCH  10  14
HETATM   14  N   UNL     1      -8.906   9.297  69.413  1.00  0.00    -0.142 NA 
HETATM   15  H   UNL     1      -8.080   9.399  70.002  1.00  0.00     0.000 HD 
BRANCH  14  16
HETATM   16  C   UNL     1      -9.086   8.111  68.573  1.00  0.00    -0.136 C  
HETATM   17  C   UNL     1     -10.290   7.213  68.761  1.00  0.00    -0.200 C  
HETATM   18  C   UNL     1     -10.162   8.069  67.529  1.00  0.00    -0.311 C  
BRANCH  17  19
HETATM   19  C   UNL     1     -10.069   5.721  68.744  1.00  0.00    -0.231 A  
HETATM   20  C   UNL     1      -9.781   3.571  69.845  1.00  0.00    -0.061 A  
HETATM   21  C   UNL     1     -10.003   4.947  69.912  1.00  0.00    -0.317 A  
HETATM   22  F   UNL     1      -9.737   2.859  70.978  1.00  0.00    -0.211 F  
HETATM   23  C   UNL     1      -9.612   2.945  68.616  1.00  0.00    -0.014 A  
HETATM   24  C   UNL     1      -9.886   5.060  67.511  1.00  0.00    -0.201 A  
HETATM   25  F   UNL     1      -9.397   1.625  68.557  1.00  0.00    -0.150 F  
HETATM   26  C   UNL     1      -9.661   3.683  67.444  1.00  0.00    -0.197 A  
ENDBRANCH  17  19
ENDBRANCH  14  16
ENDBRANCH  10  14
BRANCH  13  27
HETATM   27  C   UNL     1     -10.956  14.536  67.234  1.00  0.00    -0.305 C  
HETATM   28  C   UNL     1     -12.392  14.490  66.685  1.00  0.00    -0.141 C  
HETATM   29  C   UNL     1     -12.218  14.243  65.185  1.00  0.00    -0.421 C  
HETATM   30  H   UNL     1      -9.818  17.213  65.848  1.00  0.00     0.000 HD 
HETATM   31  C   UNL     1     -10.966  15.085  64.830  1.00  0.00    -0.413 C  
HETATM   32  H   UNL     1     -10.537  16.873  64.034  1.00  0.00     0.000 HD 
HETATM   33  O   UNL     1     -10.283  16.721  66.515  1.00  0.00    -0.296 OA 
HETATM   34  C   UNL     1     -10.208  15.325  66.161  1.00  0.00    -0.304 C  
HETATM   35  O   UNL     1     -11.305  16.358  64.251  1.00  0.00    -0.892 OA 
BRANCH  29  36
HETATM   36  O   UNL     1     -11.978  12.861  64.894  1.00  0.00    -0.347 OA 
BRANCH  36  37
HETATM   37  C   UNL     1     -11.453  12.633  63.577  1.00  0.00    -0.491 C  
BRANCH  37  38
HETATM   38  C   UNL     1     -10.141  11.859  63.674  1.00  0.00    -0.426 C  
HETATM   39  H   UNL     1      -9.277  10.365  62.737  1.00  0.00     0.000 HD 
HETATM   40  O   UNL     1     -10.094  10.846  62.676  1.00  0.00    -0.154 OA 
ENDBRANCH  37  38
ENDBRANCH  36  37
ENDBRANCH  29  36
ENDBRANCH  13  27
ENDBRANCH   4   5
ENDBRANCH   3   4
ENDBRANCH   2   3
TORSDOF 10
ENDMDL
MODEL       43
REMARK 921   NORMALIZED FREE ENERGY PREDICTED BY IDOCK:   -5.92 KCAL/MOL
REMARK 922        TOTAL FREE ENERGY PREDICTED BY IDOCK:  -11.45 KCAL/MOL
REMARK 923 INTER-LIGAND FREE ENERGY PREDICTED BY IDOCK:   -9.64 KCAL/MOL
REMARK 924 INTRA-LIGAND FREE ENERGY PREDICTED BY IDOCK:   -1.81 KCAL/MOL
REMARK 927      BINDING AFFINITY PREDICTED BY RF-SCORE:    0.00 PKD
ROOT
HETATM    1  C   UNL     1     -12.418  16.170  74.136  1.00  0.00    -0.711 C  
HETATM    2  C   UNL     1     -12.045  16.404  72.678  1.00  0.00    -0.554 C  
ENDROOT
BRANCH   2   3
HETATM    3  C   UNL     1     -12.882  15.553  71.717  1.00  0.00    -0.438 C  
BRANCH   3   4
HETATM    4  S   UNL     1     -13.268  13.957  72.521  1.00  0.00    -0.485 SA 
BRANCH   4   5
HETATM    5  C   UNL     1     -12.813  12.822  71.227  1.00  0.00    -0.262 A  
HETATM    6  N   UNL     1     -12.388  13.387  70.074  1.00  0.00    -0.269 NA 
HETATM    7  C   UNL     1     -12.085  12.464  69.144  1.00  0.00    -0.146 A  
HETATM    8  C   UNL     1     -12.172  11.092  69.286  1.00  0.00    -0.226 A  
HETATM    9  N   UNL     1     -11.748  10.479  68.140  1.00  0.00    -0.401 NA 
HETATM   10  C   UNL     1     -12.591  10.594  70.528  1.00  0.00    -0.348 A  
HETATM   11  N   UNL     1     -12.912  11.502  71.495  1.00  0.00    -0.430 NA 
HETATM   12  N   UNL     1     -11.370  11.423  67.283  1.00  0.00    -0.425 NA 
HETATM   13  N   UNL     1     -11.542  12.624  67.895  1.00  0.00    -0.328 NA 
BRANCH  10  14
HETATM   14  N   UNL     1     -12.626   9.206  70.776  1.00  0.00    -0.501 NA 
HETATM   15  H   UNL     1     -13.509   8.728  70.951  1.00  0.00     0.000 HD 
BRANCH  14  16
HETATM   16  C   UNL     1     -11.361   8.468  70.775  1.00  0.00    -0.266 C  
HETATM   17  C   UNL     1     -10.074   9.153  71.183  1.00  0.00    -0.384 C  
HETATM   18  C   UNL     1     -10.690   8.100  72.065  1.00  0.00    -0.343 C  
BRANCH  17  19
HETATM   19  C   UNL     1      -8.843   8.898  70.348  1.00  0.00    -0.204 A  
HETATM   20  C   UNL     1      -6.452   9.057  69.928  1.00  0.00    -0.038 A  
HETATM   21  C   UNL     1      -7.559   9.303  70.742  1.00  0.00    -0.154 A  
HETATM   22  F   UNL     1      -5.238   9.445  70.339  1.00  0.00    -0.026 F  
HETATM   23  C   UNL     1      -6.606   8.414  68.707  1.00  0.00    -0.054 A  
HETATM   24  C   UNL     1      -8.971   8.254  69.101  1.00  0.00    -0.147 A  
HETATM   25  F   UNL     1      -5.542   8.183  67.928  1.00  0.00    -0.031 F  
HETATM   26  C   UNL     1      -7.864   8.011  68.284  1.00  0.00    -0.123 A  
ENDBRANCH  17  19
ENDBRANCH  14  16
ENDBRANCH  10  14
BRANCH  13  27
HETATM   27  C   UNL     1     -11.097  13.804  67.182  1.00  0.00    -0.302 C  
HETATM   28  C   UNL     1      -9.871  13.544  66.291  1.00  0.00    -0.306 C  
HETATM   29  C   UNL     1      -8.674  13.746  67.223  1.00  0.00    -0.219 C  
HETATM   30  H   UNL     1     -10.776  16.945  67.823  1.00  0.00     0.000 HD 
HETATM   31  C   UNL     1      -9.114  14.936  68.112  1.00  0.00    -0.177 C  
HETATM   32  H   UNL     1      -8.834  16.918  68.211  1.00  0.00     0.000 HD 
HETATM   33  O   UNL     1     -11.048  16.197  67.304  1.00  0.00    -0.231 OA 
HETATM   34  C   UNL     1     -10.660  15.006  68.018  1.00  0.00    -0.250 C  
HETATM   35  O   UNL     1      -8.564  16.189  67.666  1.00  0.00    -0.170 OA 
BRANCH  29  36
HETATM   36  O   UNL     1      -8.428  12.592  68.035  1.00  0.00    -0.156 OA 
BRANCH  36  37
HETATM   37  C   UNL     1      -7.445  11.700  67.486  1.00  0.00    -0.123 C  
BRANCH  37  38
HETATM   38  C   UNL     1      -6.046  12.189  67.851  1.00  0.00    -0.075 C  
HETATM   39  H   UNL     1      -4.358  12.554  66.915  1.00  0.00     0.000 HD 
HETATM   40  O   UNL     1      -5.229  12.250  66.687  1.00  0.00    -0.338 OA 
ENDBRANCH  37  38
ENDBRANCH  36  37
ENDBRANCH  29  36
ENDBRANCH  13  27
ENDBRANCH   4   5
ENDBRANCH   3   4
ENDBRANCH   2   3
TORSDOF 10
ENDMDL
MODEL       44
REMARK 921   NORMALIZED FREE ENERGY PREDICTED BY IDOCK:   -5.92 KCAL/MOL
REMARK 922        TOTAL FREE ENERGY PREDICTED BY IDOCK:  -11.44 KCAL/MOL
REMARK 923 INTER-LIGAND FREE ENERGY PREDICTED BY IDOCK:  -10.02 KCAL/MOL
REMARK 924 INTRA-LIGAND FREE ENERGY PREDICTED BY IDOCK:   -1.42 KCAL/MOL
REMARK 927      BINDING AFFINITY PREDICTED BY RF-SCORE:    0.00 PKD
ROOT
HETATM    1  C   UNL     1     -12.349  12.042  63.528  1.00  0.00    -0.661 C  
HETATM    2  C   UNL     1     -11.866  13.327  64.187  1.00  0.00    -0.497 C  
ENDROOT
BRANCH   2   3
HETATM    3  C   UNL     1     -11.760  13.200  65.711  1.00  0.00    -0.374 C  
BRANCH   3   4
HETATM    4  S   UNL     1     -10.929  11.622  66.117  1.00  0.00    -0.265 SA 
BRANCH   4   5
HETATM    5  C   UNL     1     -11.355  11.464  67.838  1.00  0.00    -0.303 A  
HETATM    6  N   UNL     1     -11.283  10.214  68.348  1.00  0.00    -0.220 NA 
HETATM    7  C   UNL     1     -11.639  10.178  69.644  1.00  0.00    -0.153 A  
HETATM    8  C   UNL     1     -12.038  11.251  70.418  1.00  0.00    -0.384 A  
HETATM    9  N   UNL     1     -12.289  10.834  71.696  1.00  0.00    -0.268 NA 
HETATM   10  C   UNL     1     -12.052  12.516  69.815  1.00  0.00    -0.224 A  
HETATM   11  N   UNL     1     -11.700  12.590  68.498  1.00  0.00    -0.310 NA 
HETATM   12  N   UNL     1     -12.035   9.530  71.761  1.00  0.00    -0.382 NA 
HETATM   13  N   UNL     1     -11.613   9.133  70.531  1.00  0.00    -0.238 NA 
BRANCH  10  14
HETATM   14  N   UNL     1     -12.368  13.670  70.562  1.00  0.00    -0.355 NA 
HETATM   15  H   UNL     1     -13.177  13.686  71.183  1.00  0.00     0.000 HD 
BRANCH  14  16
HETATM   16  C   UNL     1     -11.506  14.846  70.423  1.00  0.00    -0.266 C  
HETATM   17  C   UNL     1     -11.961  16.039  69.611  1.00  0.00    -0.189 C  
HETATM   18  C   UNL     1     -11.852  16.133  71.110  1.00  0.00    -0.411 C  
BRANCH  17  19
HETATM   19  C   UNL     1     -10.964  16.682  68.680  1.00  0.00    -0.328 A  
HETATM   20  C   UNL     1      -9.354  18.414  68.107  1.00  0.00    -0.317 A  
HETATM   21  C   UNL     1     -10.256  17.848  69.010  1.00  0.00    -0.274 A  
HETATM   22  F   UNL     1      -8.685  19.519  68.458  1.00  0.00    -0.364 F  
HETATM   23  C   UNL     1      -9.148  17.835  66.862  1.00  0.00    -0.258 A  
HETATM   24  C   UNL     1     -10.741  16.120  67.406  1.00  0.00    -0.291 A  
HETATM   25  F   UNL     1      -8.284  18.383  65.999  1.00  0.00    -0.274 F  
HETATM   26  C   UNL     1      -9.840  16.689  66.501  1.00  0.00    -0.295 A  
ENDBRANCH  17  19
ENDBRANCH  14  16
ENDBRANCH  10  14
BRANCH  13  27
HETATM   27  C   UNL     1     -11.178   7.759  70.389  1.00  0.00    -0.237 C  
HETATM   28  C   UNL     1     -10.239   7.302  71.518  1.00  0.00    -0.206 C  
HETATM   29  C   UNL     1      -8.844   7.714  71.043  1.00  0.00    -0.142 C  
HETATM   30  H   UNL     1     -10.272   5.829  67.973  1.00  0.00     0.000 HD 
HETATM   31  C   UNL     1      -8.893   7.439  69.519  1.00  0.00    -0.137 C  
HETATM   32  H   UNL     1      -8.316   6.015  68.232  1.00  0.00     0.000 HD 
HETATM   33  O   UNL     1     -10.760   6.054  68.757  1.00  0.00    -0.252 OA 
HETATM   34  C   UNL     1     -10.393   7.398  69.128  1.00  0.00    -0.208 C  
HETATM   35  O   UNL     1      -8.286   6.183  69.167  1.00  0.00    -0.114 OA 
BRANCH  29  36
HETATM   36  O   UNL     1      -8.586   9.104  71.282  1.00  0.00    -0.278 OA 
BRANCH  36  37
HETATM   37  C   UNL     1      -7.999   9.781  70.160  1.00  0.00    -0.186 C  
BRANCH  37  38
HETATM   38  C   UNL     1      -6.537  10.101  70.461  1.00  0.00    -0.110 C  
HETATM   39  H   UNL     1      -5.413  11.705  70.604  1.00  0.00     0.000 HD 
HETATM   40  O   UNL     1      -6.324  11.507  70.417  1.00  0.00    -0.253 OA 
ENDBRANCH  37  38
ENDBRANCH  36  37
ENDBRANCH  29  36
ENDBRANCH  13  27
ENDBRANCH   4   5
ENDBRANCH   3   4
ENDBRANCH   2   3
TORSDOF 10
ENDMDL
MODEL       45
REMARK 921   NORMALIZED FREE ENERGY PREDICTED BY IDOCK:   -5.90 KCAL/MOL
REMARK 922        TOTAL FREE ENERGY PREDICTED BY IDOCK:  -11.42 KCAL/MOL
REMARK 923 INTER-LIGAND FREE ENERGY PREDICTED BY IDOCK:  -10.09 KCAL/MOL
REMARK 924 INTRA-LIGAND FREE ENERGY PREDICTED BY IDOCK:   -1.33 KCAL/MOL
REMARK 927      BINDING AFFINITY PREDICTED BY RF-SCORE:    0.00 PKD
ROOT
HETATM    1  C   UNL     1     -14.256   7.886  71.424  1.00  0.00    -0.467 C  
HETATM    2  C   UNL     1     -13.672   9.036  72.233  1.00  0.00    -0.550 C  
ENDROOT
BRANCH   2   3
HETATM    3  C   UNL     1     -12.307   9.490  71.704  1.00  0.00    -0.398 C  
BRANCH   3   4
HETATM    4  S   UNL     1     -12.519  11.054  70.781  1.00  0.00    -0.400 SA 
BRANCH   4   5
HETATM    5  C   UNL     1     -11.453  10.756  69.387  1.00  0.00    -0.295 A  
HETATM    6  N   UNL     1     -11.402   9.478  68.949  1.00  0.00     0.093 NA 
HETATM    7  C   UNL     1     -10.561   9.335  67.910  1.00  0.00    -0.231 A  
HETATM    8  C   UNL     1      -9.812  10.331  67.314  1.00  0.00    -0.182 A  
HETATM    9  N   UNL     1      -9.101   9.815  66.266  1.00  0.00    -0.152 NA 
HETATM   10  C   UNL     1      -9.952  11.635  67.813  1.00  0.00    -0.181 A  
HETATM   11  N   UNL     1     -10.795  11.816  68.871  1.00  0.00    -0.223 NA 
HETATM   12  N   UNL     1      -9.397   8.523  66.165  1.00  0.00    -0.213 NA 
HETATM   13  N   UNL     1     -10.302   8.232  67.137  1.00  0.00    -0.293 NA 
BRANCH  10  14
HETATM   14  N   UNL     1      -9.284  12.718  67.204  1.00  0.00    -0.212 NA 
HETATM   15  H   UNL     1      -8.291  12.660  66.980  1.00  0.00     0.000 HD 
BRANCH  14  16
HETATM   16  C   UNL     1     -10.053  13.927  66.902  1.00  0.00    -0.260 C  
HETATM   17  C   UNL     1      -9.447  15.032  66.064  1.00  0.00    -0.337 C  
HETATM   18  C   UNL     1     -10.562  14.182  65.515  1.00  0.00    -0.335 C  
BRANCH  17  19
HETATM   19  C   UNL     1      -9.654  16.456  66.516  1.00  0.00    -0.291 A  
HETATM   20  C   UNL     1     -10.442  18.733  66.177  1.00  0.00    -0.446 A  
HETATM   21  C   UNL     1     -10.287  17.423  65.720  1.00  0.00    -0.226 A  
HETATM   22  F   UNL     1     -11.062  19.628  65.398  1.00  0.00    -0.518 F  
HETATM   23  C   UNL     1      -9.963  19.103  67.427  1.00  0.00    -0.351 A  
HETATM   24  C   UNL     1      -9.171  16.862  67.777  1.00  0.00    -0.230 A  
HETATM   25  F   UNL     1     -10.112  20.361  67.859  1.00  0.00    -0.518 F  
HETATM   26  C   UNL     1      -9.323  18.174  68.233  1.00  0.00    -0.312 A  
ENDBRANCH  17  19
ENDBRANCH  14  16
ENDBRANCH  10  14
BRANCH  13  27
HETATM   27  C   UNL     1     -10.852   6.892  67.156  1.00  0.00    -0.377 C  
HETATM   28  C   UNL     1     -11.149   6.381  68.575  1.00  0.00    -0.385 C  
HETATM   29  C   UNL     1      -9.828   5.766  69.042  1.00  0.00    -0.158 C  
HETATM   30  H   UNL     1     -10.352   4.135  65.567  1.00  0.00     0.000 HD 
HETATM   31  C   UNL     1      -9.278   5.094  67.759  1.00  0.00    -0.115 C  
HETATM   32  H   UNL     1      -9.209   3.269  66.934  1.00  0.00     0.000 HD 
HETATM   33  O   UNL     1     -10.885   4.831  65.934  1.00  0.00    -0.304 OA 
HETATM   34  C   UNL     1      -9.995   5.774  66.565  1.00  0.00    -0.163 C  
HETATM   35  O   UNL     1      -9.547   3.681  67.720  1.00  0.00    -0.193 OA 
BRANCH  29  36
HETATM   36  O   UNL     1      -8.909   6.762  69.507  1.00  0.00    -0.138 OA 
BRANCH  36  37
HETATM   37  C   UNL     1      -8.997   7.013  70.919  1.00  0.00    -0.152 C  
BRANCH  37  38
HETATM   38  C   UNL     1      -8.644   8.470  71.205  1.00  0.00    -0.169 C  
HETATM   39  H   UNL     1      -8.475   9.627  72.782  1.00  0.00     0.000 HD 
HETATM   40  O   UNL     1      -8.694   8.720  72.604  1.00  0.00    -0.408 OA 
ENDBRANCH  37  38
ENDBRANCH  36  37
ENDBRANCH  29  36
ENDBRANCH  13  27
ENDBRANCH   4   5
ENDBRANCH   3   4
ENDBRANCH   2   3
TORSDOF 10
ENDMDL
MODEL       46
REMARK 921   NORMALIZED FREE ENERGY PREDICTED BY IDOCK:   -5.88 KCAL/MOL
REMARK 922        TOTAL FREE ENERGY PREDICTED BY IDOCK:  -11.38 KCAL/MOL
REMARK 923 INTER-LIGAND FREE ENERGY PREDICTED BY IDOCK:   -9.91 KCAL/MOL
REMARK 924 INTRA-LIGAND FREE ENERGY PREDICTED BY IDOCK:   -1.47 KCAL/MOL
REMARK 927      BINDING AFFINITY PREDICTED BY RF-SCORE:    0.00 PKD
ROOT
HETATM    1  C   UNL     1     -11.472  16.094  70.867  1.00  0.00    -0.421 C  
HETATM    2  C   UNL     1     -12.592  15.672  71.808  1.00  0.00    -0.510 C  
ENDROOT
BRANCH   2   3
HETATM    3  C   UNL     1     -13.558  14.675  71.158  1.00  0.00    -0.344 C  
BRANCH   3   4
HETATM    4  S   UNL     1     -13.504  13.103  72.091  1.00  0.00    -0.514 SA 
BRANCH   4   5
HETATM    5  C   UNL     1     -12.466  12.127  71.025  1.00  0.00    -0.269 A  
HETATM    6  N   UNL     1     -12.260  10.848  71.415  1.00  0.00    -0.280 NA 
HETATM    7  C   UNL     1     -11.452  10.188  70.568  1.00  0.00    -0.337 A  
HETATM    8  C   UNL     1     -10.872  10.693  69.420  1.00  0.00    -0.246 A  
HETATM    9  N   UNL     1     -10.142   9.717  68.799  1.00  0.00    -0.167 NA 
HETATM   10  C   UNL     1     -11.167  12.020  69.074  1.00  0.00    -0.258 A  
HETATM   11  N   UNL     1     -11.981  12.723  69.914  1.00  0.00    -0.325 NA 
HETATM   12  N   UNL     1     -10.264   8.599  69.508  1.00  0.00    -0.204 NA 
HETATM   13  N   UNL     1     -11.079   8.868  70.562  1.00  0.00    -0.247 NA 
BRANCH  10  14
HETATM   14  N   UNL     1     -10.679  12.580  67.875  1.00  0.00    -0.212 NA 
HETATM   15  H   UNL     1     -10.110  12.029  67.234  1.00  0.00     0.000 HD 
BRANCH  14  16
HETATM   16  C   UNL     1     -11.012  13.974  67.575  1.00  0.00    -0.277 C  
HETATM   17  C   UNL     1     -10.538  14.615  66.287  1.00  0.00    -0.306 C  
HETATM   18  C   UNL     1     -11.998  14.309  66.496  1.00  0.00    -0.448 C  
BRANCH  17  19
HETATM   19  C   UNL     1      -9.981  16.015  66.358  1.00  0.00    -0.312 A  
HETATM   20  C   UNL     1     -10.215  18.416  66.677  1.00  0.00    -0.394 A  
HETATM   21  C   UNL     1     -10.775  17.137  66.637  1.00  0.00    -0.082 A  
HETATM   22  F   UNL     1     -10.998  19.465  66.958  1.00  0.00    -0.540 F  
HETATM   23  C   UNL     1      -8.860  18.597  66.431  1.00  0.00    -0.275 A  
HETATM   24  C   UNL     1      -8.610  16.230  66.106  1.00  0.00    -0.342 A  
HETATM   25  F   UNL     1      -8.328  19.825  66.468  1.00  0.00    -0.289 F  
HETATM   26  C   UNL     1      -8.050  17.510  66.142  1.00  0.00    -0.244 A  
ENDBRANCH  17  19
ENDBRANCH  14  16
ENDBRANCH  10  14
BRANCH  13  27
HETATM   27  C   UNL     1     -11.440   7.761  71.424  1.00  0.00    -0.260 C  
HETATM   28  C   UNL     1     -11.191   8.050  72.914  1.00  0.00    -0.389 C  
HETATM   29  C   UNL     1      -9.732   7.654  73.140  1.00  0.00    -0.269 C  
HETATM   30  H   UNL     1     -11.192   4.550  71.339  1.00  0.00     0.000 HD 
HETATM   31  C   UNL     1      -9.566   6.393  72.256  1.00  0.00    -0.150 C  
HETATM   32  H   UNL     1      -9.573   4.400  72.469  1.00  0.00     0.000 HD 
HETATM   33  O   UNL     1     -11.647   5.374  71.472  1.00  0.00     0.121 OA 
HETATM   34  C   UNL     1     -10.708   6.437  71.209  1.00  0.00    -0.241 C  
HETATM   35  O   UNL     1      -9.675   5.173  73.012  1.00  0.00    -0.145 OA 
BRANCH  29  36
HETATM   36  O   UNL     1      -8.826   8.678  72.709  1.00  0.00    -0.374 OA 
BRANCH  36  37
HETATM   37  C   UNL     1      -7.443   8.307  72.823  1.00  0.00    -0.108 C  
BRANCH  37  38
HETATM   38  C   UNL     1      -7.077   8.131  74.294  1.00  0.00    -0.161 C  
HETATM   39  H   UNL     1      -6.475   6.674  75.464  1.00  0.00     0.000 HD 
HETATM   40  O   UNL     1      -6.702   6.783  74.548  1.00  0.00    -0.090 OA 
ENDBRANCH  37  38
ENDBRANCH  36  37
ENDBRANCH  29  36
ENDBRANCH  13  27
ENDBRANCH   4   5
ENDBRANCH   3   4
ENDBRANCH   2   3
TORSDOF 10
ENDMDL
MODEL       47
REMARK 921   NORMALIZED FREE ENERGY PREDICTED BY IDOCK:   -5.87 KCAL/MOL
REMARK 922        TOTAL FREE ENERGY PREDICTED BY IDOCK:  -11.36 KCAL/MOL
REMARK 923 INTER-LIGAND FREE ENERGY PREDICTED BY IDOCK:   -9.05 KCAL/MOL
REMARK 924 INTRA-LIGAND FREE ENERGY PREDICTED BY IDOCK:   -2.31 KCAL/MOL
REMARK 927      BINDING AFFINITY PREDICTED BY RF-SCORE:    0.00 PKD
ROOT
HETATM    1  C   UNL     1      -9.438   9.087  71.035  1.00  0.00    -0.342 C  
HETATM    2  C   UNL     1     -10.752   9.188  71.796  1.00  0.00    -0.405 C  
ENDROOT
BRANCH   2   3
HETATM    3  C   UNL     1     -11.954   9.390  70.866  1.00  0.00    -0.280 C  
BRANCH   3   4
HETATM    4  S   UNL     1     -12.158  11.179  70.543  1.00  0.00    -0.394 SA 
BRANCH   4   5
HETATM    5  C   UNL     1     -11.548  11.280  68.875  1.00  0.00    -0.319 A  
HETATM    6  N   UNL     1     -11.425  12.528  68.369  1.00  0.00    -0.287 NA 
HETATM    7  C   UNL     1     -10.978  12.515  67.101  1.00  0.00    -0.263 A  
HETATM    8  C   UNL     1     -10.662  11.399  66.350  1.00  0.00    -0.275 A  
HETATM    9  N   UNL     1     -10.210  11.780  65.117  1.00  0.00    -0.258 NA 
HETATM   10  C   UNL     1     -10.788  10.146  66.967  1.00  0.00    -0.151 A  
HETATM   11  N   UNL     1     -11.244  10.120  68.253  1.00  0.00    -0.229 NA 
HETATM   12  N   UNL     1     -10.207  13.109  65.074  1.00  0.00    -0.298 NA 
HETATM   13  N   UNL     1     -10.641  13.560  66.280  1.00  0.00    -0.285 NA 
BRANCH  10  14
HETATM   14  N   UNL     1     -10.407   8.967  66.293  1.00  0.00    -0.305 NA 
HETATM   15  H   UNL     1     -10.567   8.861  65.292  1.00  0.00     0.000 HD 
BRANCH  14  16
HETATM   16  C   UNL     1      -9.775   7.897  67.069  1.00  0.00    -0.206 C  
HETATM   17  C   UNL     1     -10.557   6.657  67.444  1.00  0.00    -0.370 C  
HETATM   18  C   UNL     1      -9.446   6.581  66.429  1.00  0.00    -0.165 C  
BRANCH  17  19
HETATM   19  C   UNL     1     -10.413   6.130  68.849  1.00  0.00    -0.293 A  
HETATM   20  C   UNL     1     -11.242   5.749  71.105  1.00  0.00    -0.141 A  
HETATM   21  C   UNL     1     -11.428   6.240  69.812  1.00  0.00    -0.449 A  
HETATM   22  F   UNL     1     -12.236   5.859  71.996  1.00  0.00    -0.346 F  
HETATM   23  C   UNL     1     -10.041   5.150  71.464  1.00  0.00    -0.193 A  
HETATM   24  C   UNL     1      -9.202   5.523  69.244  1.00  0.00    -0.140 A  
HETATM   25  F   UNL     1      -9.867   4.683  72.706  1.00  0.00    -0.152 F  
HETATM   26  C   UNL     1      -9.015   5.035  70.540  1.00  0.00    -0.160 A  
ENDBRANCH  17  19
ENDBRANCH  14  16
ENDBRANCH  10  14
BRANCH  13  27
HETATM   27  C   UNL     1     -10.623  14.992  66.501  1.00  0.00    -0.305 C  
HETATM   28  C   UNL     1      -9.363  15.674  65.942  1.00  0.00    -0.357 C  
HETATM   29  C   UNL     1      -8.336  15.561  67.070  1.00  0.00    -0.232 C  
HETATM   30  H   UNL     1     -11.444  17.004  68.879  1.00  0.00     0.000 HD 
HETATM   31  C   UNL     1      -9.188  15.776  68.347  1.00  0.00    -0.192 C  
HETATM   32  H   UNL     1      -9.626  17.255  69.626  1.00  0.00     0.000 HD 
HETATM   33  O   UNL     1     -11.423  16.700  67.979  1.00  0.00    -0.167 OA 
HETATM   34  C   UNL     1     -10.657  15.479  67.949  1.00  0.00    -0.274 C  
HETATM   35  O   UNL     1      -9.104  17.124  68.843  1.00  0.00    -0.260 OA 
BRANCH  29  36
HETATM   36  O   UNL     1      -7.718  14.268  67.105  1.00  0.00    -0.164 OA 
BRANCH  36  37
HETATM   37  C   UNL     1      -7.561  13.741  68.432  1.00  0.00    -0.135 C  
BRANCH  37  38
HETATM   38  C   UNL     1      -7.630  12.217  68.391  1.00  0.00    -0.128 C  
HETATM   39  H   UNL     1      -7.293  10.795  67.079  1.00  0.00     0.000 HD 
HETATM   40  O   UNL     1      -7.250  11.744  67.104  1.00  0.00    -0.132 OA 
ENDBRANCH  37  38
ENDBRANCH  36  37
ENDBRANCH  29  36
ENDBRANCH  13  27
ENDBRANCH   4   5
ENDBRANCH   3   4
ENDBRANCH   2   3
TORSDOF 10
ENDMDL
MODEL       48
REMARK 921   NORMALIZED FREE ENERGY PREDICTED BY IDOCK:   -5.86 KCAL/MOL
REMARK 922        TOTAL FREE ENERGY PREDICTED BY IDOCK:  -11.36 KCAL/MOL
REMARK 923 INTER-LIGAND FREE ENERGY PREDICTED BY IDOCK:   -9.11 KCAL/MOL
REMARK 924 INTRA-LIGAND FREE ENERGY PREDICTED BY IDOCK:   -2.25 KCAL/MOL
REMARK 927      BINDING AFFINITY PREDICTED BY RF-SCORE:    0.00 PKD
ROOT
HETATM    1  C   UNL     1      -6.795   9.625  70.269  1.00  0.00    -0.107 C  
HETATM    2  C   UNL     1      -5.756  10.638  70.730  1.00  0.00    -0.103 C  
ENDROOT
BRANCH   2   3
HETATM    3  C   UNL     1      -5.192  11.467  69.570  1.00  0.00    -0.045 C  
BRANCH   3   4
HETATM    4  S   UNL     1      -5.624  13.224  69.833  1.00  0.00    -0.119 SA 
BRANCH   4   5
HETATM    5  C   UNL     1      -6.885  13.437  68.595  1.00  0.00    -0.098 A  
HETATM    6  N   UNL     1      -7.249  14.714  68.341  1.00  0.00    -0.109 NA 
HETATM    7  C   UNL     1      -8.217  14.786  67.411  1.00  0.00    -0.196 A  
HETATM    8  C   UNL     1      -8.810  13.724  66.755  1.00  0.00    -0.138 A  
HETATM    9  N   UNL     1      -9.730  14.187  65.856  1.00  0.00    -0.275 NA 
HETATM   10  C   UNL     1      -8.346  12.435  67.057  1.00  0.00    -0.157 A  
HETATM   11  N   UNL     1      -7.366  12.324  68.000  1.00  0.00    -0.094 NA 
HETATM   12  N   UNL     1      -9.720  15.516  65.905  1.00  0.00    -0.337 NA 
HETATM   13  N   UNL     1      -8.787  15.886  66.821  1.00  0.00    -0.236 NA 
BRANCH  10  14
HETATM   14  N   UNL     1      -8.843  11.308  66.369  1.00  0.00    -0.178 NA 
HETATM   15  H   UNL     1      -8.853  11.280  65.350  1.00  0.00     0.000 HD 
BRANCH  14  16
HETATM   16  C   UNL     1      -9.345  10.180  67.156  1.00  0.00    -0.153 C  
HETATM   17  C   UNL     1     -10.775  10.166  67.651  1.00  0.00    -0.339 C  
HETATM   18  C   UNL     1     -10.333   9.218  66.568  1.00  0.00    -0.270 C  
BRANCH  17  19
HETATM   19  C   UNL     1     -11.027   9.722  69.070  1.00  0.00    -0.193 A  
HETATM   20  C   UNL     1     -12.021  10.002  71.274  1.00  0.00    -0.394 A  
HETATM   21  C   UNL     1     -11.829  10.447  69.965  1.00  0.00    -0.351 A  
HETATM   22  F   UNL     1     -12.802  10.711  72.098  1.00  0.00    -0.510 F  
HETATM   23  C   UNL     1     -11.411   8.835  71.716  1.00  0.00    -0.339 A  
HETATM   24  C   UNL     1     -10.415   8.545  69.549  1.00  0.00    -0.222 A  
HETATM   25  F   UNL     1     -11.595   8.414  72.974  1.00  0.00    -0.412 F  
HETATM   26  C   UNL     1     -10.603   8.101  70.861  1.00  0.00    -0.236 A  
ENDBRANCH  17  19
ENDBRANCH  14  16
ENDBRANCH  10  14
BRANCH  13  27
HETATM   27  C   UNL     1      -8.527  17.303  66.972  1.00  0.00    -0.219 C  
HETATM   28  C   UNL     1      -8.778  17.814  68.401  1.00  0.00    -0.292 C  
HETATM   29  C   UNL     1     -10.267  18.160  68.425  1.00  0.00    -0.387 C  
HETATM   30  H   UNL     1      -9.018  19.971  65.236  1.00  0.00     0.000 HD 
HETATM   31  C   UNL     1     -10.514  18.760  67.018  1.00  0.00    -0.416 C  
HETATM   32  H   UNL     1     -10.664  20.567  66.164  1.00  0.00     0.000 HD 
HETATM   33  O   UNL     1      -8.504  19.373  65.766  1.00  0.00    -0.419 OA 
HETATM   34  C   UNL     1      -9.354  18.263  66.119  1.00  0.00    -0.133 C  
HETATM   35  O   UNL     1     -10.512  20.199  67.026  1.00  0.00    -0.418 OA 
BRANCH  29  36
HETATM   36  O   UNL     1     -11.084  16.997  68.612  1.00  0.00    -0.272 OA 
BRANCH  36  37
HETATM   37  C   UNL     1     -10.743  16.236  69.781  1.00  0.00    -0.345 C  
BRANCH  37  38
HETATM   38  C   UNL     1     -11.108  14.770  69.564  1.00  0.00    -0.279 C  
HETATM   39  H   UNL     1     -12.217  13.730  68.321  1.00  0.00     0.000 HD 
HETATM   40  O   UNL     1     -11.990  14.643  68.456  1.00  0.00    -0.315 OA 
ENDBRANCH  37  38
ENDBRANCH  36  37
ENDBRANCH  29  36
ENDBRANCH  13  27
ENDBRANCH   4   5
ENDBRANCH   3   4
ENDBRANCH   2   3
TORSDOF 10
ENDMDL
MODEL       49
REMARK 921   NORMALIZED FREE ENERGY PREDICTED BY IDOCK:   -5.86 KCAL/MOL
REMARK 922        TOTAL FREE ENERGY PREDICTED BY IDOCK:  -11.35 KCAL/MOL
REMARK 923 INTER-LIGAND FREE ENERGY PREDICTED BY IDOCK:  -10.27 KCAL/MOL
REMARK 924 INTRA-LIGAND FREE ENERGY PREDICTED BY IDOCK:   -1.08 KCAL/MOL
REMARK 927      BINDING AFFINITY PREDICTED BY RF-SCORE:    0.00 PKD
ROOT
HETATM    1  C   UNL     1     -12.522  14.108  64.850  1.00  0.00    -0.419 C  
HETATM    2  C   UNL     1     -12.437  12.587  64.864  1.00  0.00    -0.524 C  
ENDROOT
BRANCH   2   3
HETATM    3  C   UNL     1     -11.771  12.050  66.135  1.00  0.00    -0.241 C  
BRANCH   3   4
HETATM    4  S   UNL     1     -11.817  13.348  67.422  1.00  0.00    -0.360 SA 
BRANCH   4   5
HETATM    5  C   UNL     1     -10.107  13.839  67.451  1.00  0.00    -0.244 A  
HETATM    6  N   UNL     1      -9.840  15.068  66.953  1.00  0.00    -0.233 NA 
HETATM    7  C   UNL     1      -8.527  15.353  66.993  1.00  0.00    -0.231 A  
HETATM    8  C   UNL     1      -7.521  14.536  67.472  1.00  0.00    -0.194 A  
HETATM    9  N   UNL     1      -6.317  15.177  67.380  1.00  0.00    -0.320 NA 
HETATM   10  C   UNL     1      -7.893  13.291  67.999  1.00  0.00    -0.148 A  
HETATM   11  N   UNL     1      -9.218  12.966  67.972  1.00  0.00    -0.206 NA 
HETATM   12  N   UNL     1      -6.534  16.389  66.879  1.00  0.00    -0.264 NA 
HETATM   13  N   UNL     1      -7.872  16.514  66.671  1.00  0.00    -0.256 NA 
BRANCH  10  14
HETATM   14  N   UNL     1      -6.934  12.437  68.582  1.00  0.00    -0.086 NA 
HETATM   15  H   UNL     1      -5.956  12.472  68.292  1.00  0.00     0.000 HD 
BRANCH  14  16
HETATM   16  C   UNL     1      -7.376  11.496  69.614  1.00  0.00     0.240 C  
HETATM   17  C   UNL     1      -8.149  10.251  69.236  1.00  0.00    -0.156 C  
HETATM   18  C   UNL     1      -6.736  10.147  69.744  1.00  0.00    -0.096 C  
BRANCH  17  19
HETATM   19  C   UNL     1      -9.346   9.881  70.077  1.00  0.00    -0.232 A  
HETATM   20  C   UNL     1     -11.715   9.988  70.621  1.00  0.00    -0.337 A  
HETATM   21  C   UNL     1     -10.641  10.347  69.805  1.00  0.00    -0.302 A  
HETATM   22  F   UNL     1     -12.941  10.439  70.327  1.00  0.00    -0.372 F  
HETATM   23  C   UNL     1     -11.516   9.169  71.725  1.00  0.00    -0.381 A  
HETATM   24  C   UNL     1      -9.173   9.057  71.208  1.00  0.00    -0.314 A  
HETATM   25  F   UNL     1     -12.548   8.830  72.507  1.00  0.00    -0.419 F  
HETATM   26  C   UNL     1     -10.246   8.701  72.028  1.00  0.00    -0.407 A  
ENDBRANCH  17  19
ENDBRANCH  14  16
ENDBRANCH  10  14
BRANCH  13  27
HETATM   27  C   UNL     1      -8.358  17.801  66.219  1.00  0.00    -0.205 C  
HETATM   28  C   UNL     1      -7.472  18.974  66.671  1.00  0.00    -0.240 C  
HETATM   29  C   UNL     1      -8.005  19.341  68.057  1.00  0.00    -0.304 C  
HETATM   30  H   UNL     1     -11.223  19.241  65.902  1.00  0.00     0.000 HD 
HETATM   31  C   UNL     1      -9.536  19.157  67.909  1.00  0.00    -0.320 C  
HETATM   32  H   UNL     1     -11.159  20.287  67.583  1.00  0.00     0.000 HD 
HETATM   33  O   UNL     1     -10.358  18.974  65.612  1.00  0.00    -0.531 OA 
HETATM   34  C   UNL     1      -9.749  18.228  66.686  1.00  0.00    -0.339 C  
HETATM   35  O   UNL     1     -10.220  20.401  67.673  1.00  0.00    -0.365 OA 
BRANCH  29  36
HETATM   36  O   UNL     1      -7.502  18.466  69.074  1.00  0.00    -0.272 OA 
BRANCH  36  37
HETATM   37  C   UNL     1      -6.166  18.783  69.497  1.00  0.00    -0.268 C  
BRANCH  37  38
HETATM   38  C   UNL     1      -6.082  20.260  69.870  1.00  0.00    -0.345 C  
HETATM   39  H   UNL     1      -6.039  21.329  71.517  1.00  0.00     0.000 HD 
HETATM   40  O   UNL     1      -6.091  20.410  71.285  1.00  0.00    -0.582 OA 
ENDBRANCH  37  38
ENDBRANCH  36  37
ENDBRANCH  29  36
ENDBRANCH  13  27
ENDBRANCH   4   5
ENDBRANCH   3   4
ENDBRANCH   2   3
TORSDOF 10
ENDMDL
MODEL       50
REMARK 921   NORMALIZED FREE ENERGY PREDICTED BY IDOCK:   -5.85 KCAL/MOL
REMARK 922        TOTAL FREE ENERGY PREDICTED BY IDOCK:  -11.34 KCAL/MOL
REMARK 923 INTER-LIGAND FREE ENERGY PREDICTED BY IDOCK:   -9.60 KCAL/MOL
REMARK 924 INTRA-LIGAND FREE ENERGY PREDICTED BY IDOCK:   -1.74 KCAL/MOL
REMARK 927      BINDING AFFINITY PREDICTED BY RF-SCORE:    0.00 PKD
ROOT
HETATM    1  C   UNL     1      -5.724  16.198  69.546  1.00  0.00    -0.140 C  
HETATM    2  C   UNL     1      -6.720  15.046  69.552  1.00  0.00    -0.167 C  
ENDROOT
BRANCH   2   3
HETATM    3  C   UNL     1      -6.383  13.975  68.510  1.00  0.00    -0.093 C  
BRANCH   3   4
HETATM    4  S   UNL     1      -6.076  12.389  69.368  1.00  0.00    -0.117 SA 
BRANCH   4   5
HETATM    5  C   UNL     1      -7.596  11.532  69.020  1.00  0.00    -0.058 A  
HETATM    6  N   UNL     1      -7.708  10.294  69.555  1.00  0.00    -0.151 NA 
HETATM    7  C   UNL     1      -8.873   9.709  69.229  1.00  0.00    -0.164 A  
HETATM    8  C   UNL     1      -9.877  10.250  68.449  1.00  0.00    -0.156 A  
HETATM    9  N   UNL     1     -10.924   9.375  68.365  1.00  0.00    -0.096 NA 
HETATM   10  C   UNL     1      -9.690  11.553  67.964  1.00  0.00    -0.186 A  
HETATM   11  N   UNL     1      -8.516  12.177  68.271  1.00  0.00    -0.176 NA 
HETATM   12  N   UNL     1     -10.622   8.302  69.090  1.00  0.00    -0.202 NA 
HETATM   13  N   UNL     1      -9.397   8.510  69.640  1.00  0.00    -0.157 NA 
BRANCH  10  14
HETATM   14  N   UNL     1     -10.704  12.204  67.231  1.00  0.00    -0.223 NA 
HETATM   15  H   UNL     1     -10.776  12.087  66.220  1.00  0.00     0.000 HD 
BRANCH  14  16
HETATM   16  C   UNL     1     -11.651  13.052  67.957  1.00  0.00    -0.343 C  
HETATM   17  C   UNL     1     -11.170  14.287  68.688  1.00  0.00    -0.287 C  
HETATM   18  C   UNL     1     -12.007  14.415  67.443  1.00  0.00    -0.407 C  
BRANCH  17  19
HETATM   19  C   UNL     1     -11.718  14.549  70.069  1.00  0.00    -0.359 A  
HETATM   20  C   UNL     1     -13.085  13.961  71.994  1.00  0.00    -0.393 A  
HETATM   21  C   UNL     1     -12.592  13.667  70.721  1.00  0.00    -0.397 A  
HETATM   22  F   UNL     1     -13.908  13.092  72.594  1.00  0.00    -0.626 F  
HETATM   23  C   UNL     1     -12.723  15.140  72.633  1.00  0.00    -0.380 A  
HETATM   24  C   UNL     1     -11.374  15.742  70.738  1.00  0.00    -0.419 A  
HETATM   25  F   UNL     1     -13.201  15.419  73.852  1.00  0.00    -0.547 F  
HETATM   26  C   UNL     1     -11.870  16.038  72.011  1.00  0.00    -0.623 A  
ENDBRANCH  17  19
ENDBRANCH  14  16
ENDBRANCH  10  14
BRANCH  13  27
HETATM   27  C   UNL     1      -8.902   7.508  70.562  1.00  0.00    -0.147 C  
HETATM   28  C   UNL     1     -10.024   6.761  71.302  1.00  0.00    -0.189 C  
HETATM   29  C   UNL     1     -10.320   7.632  72.524  1.00  0.00    -0.255 C  
HETATM   30  H   UNL     1      -6.467   7.252  72.656  1.00  0.00     0.000 HD 
HETATM   31  C   UNL     1      -8.918   8.139  72.945  1.00  0.00    -0.260 C  
HETATM   32  H   UNL     1      -7.501   7.687  74.288  1.00  0.00     0.000 HD 
HETATM   33  O   UNL     1      -7.025   6.956  71.946  1.00  0.00    -0.068 OA 
HETATM   34  C   UNL     1      -8.004   7.986  71.703  1.00  0.00    -0.112 C  
HETATM   35  O   UNL     1      -8.360   7.376  74.030  1.00  0.00    -0.146 OA 
BRANCH  29  36
HETATM   36  O   UNL     1     -11.166   8.742  72.198  1.00  0.00    -0.353 OA 
BRANCH  36  37
HETATM   37  C   UNL     1     -12.563   8.410  72.159  1.00  0.00    -0.364 C  
BRANCH  37  38
HETATM   38  C   UNL     1     -13.390   9.684  72.013  1.00  0.00    -0.457 C  
HETATM   39  H   UNL     1     -13.683  11.062  70.645  1.00  0.00     0.000 HD 
HETATM   40  O   UNL     1     -13.168  10.269  70.735  1.00  0.00    -0.385 OA 
ENDBRANCH  37  38
ENDBRANCH  36  37
ENDBRANCH  29  36
ENDBRANCH  13  27
ENDBRANCH   4   5
ENDBRANCH   3   4
ENDBRANCH   2   3
TORSDOF 10
ENDMDL
MODEL       51
REMARK 921   NORMALIZED FREE ENERGY PREDICTED BY IDOCK:   -5.83 KCAL/MOL
REMARK 922        TOTAL FREE ENERGY PREDICTED BY IDOCK:  -11.31 KCAL/MOL
REMARK 923 INTER-LIGAND FREE ENERGY PREDICTED BY IDOCK:   -9.66 KCAL/MOL
REMARK 924 INTRA-LIGAND FREE ENERGY PREDICTED BY IDOCK:   -1.65 KCAL/MOL
REMARK 927      BINDING AFFINITY PREDICTED BY RF-SCORE:    0.00 PKD
ROOT
HETATM    1  C   UNL     1     -10.420  11.731  63.208  1.00  0.00    -0.439 C  
HETATM    2  C   UNL     1     -11.779  12.350  63.506  1.00  0.00    -0.592 C  
ENDROOT
BRANCH   2   3
HETATM    3  C   UNL     1     -11.671  13.613  64.368  1.00  0.00    -0.411 C  
BRANCH   3   4
HETATM    4  S   UNL     1     -12.357  13.258  66.026  1.00  0.00    -0.327 SA 
BRANCH   4   5
HETATM    5  C   UNL     1     -10.917  12.601  66.840  1.00  0.00    -0.262 A  
HETATM    6  N   UNL     1     -10.716  11.272  66.695  1.00  0.00    -0.263 NA 
HETATM    7  C   UNL     1      -9.622  10.854  67.355  1.00  0.00    -0.163 A  
HETATM    8  C   UNL     1      -8.764  11.635  68.106  1.00  0.00    -0.159 A  
HETATM    9  N   UNL     1      -7.746  10.866  68.599  1.00  0.00    -0.113 NA 
HETATM   10  C   UNL     1      -9.031  13.010  68.174  1.00  0.00    -0.198 A  
HETATM   11  N   UNL     1     -10.137  13.470  67.519  1.00  0.00    -0.231 NA 
HETATM   12  N   UNL     1      -7.921   9.623  68.161  1.00  0.00    -0.100 NA 
HETATM   13  N   UNL     1      -9.036   9.614  67.384  1.00  0.00    -0.131 NA 
BRANCH  10  14
HETATM   14  N   UNL     1      -8.156  13.884  68.851  1.00  0.00    -0.325 NA 
HETATM   15  H   UNL     1      -7.674  13.588  69.700  1.00  0.00     0.000 HD 
BRANCH  14  16
HETATM   16  C   UNL     1      -7.955  15.228  68.305  1.00  0.00    -0.132 C  
HETATM   17  C   UNL     1      -8.707  16.409  68.880  1.00  0.00    -0.253 C  
HETATM   18  C   UNL     1      -7.223  16.272  69.093  1.00  0.00    -0.213 C  
BRANCH  17  19
HETATM   19  C   UNL     1      -9.303  17.404  67.916  1.00  0.00    -0.267 A  
HETATM   20  C   UNL     1      -9.912  19.665  67.251  1.00  0.00    -0.395 A  
HETATM   21  C   UNL     1      -9.335  18.784  68.169  1.00  0.00    -0.352 A  
HETATM   22  F   UNL     1      -9.915  20.977  67.517  1.00  0.00    -0.588 F  
HETATM   23  C   UNL     1     -10.472  19.186  66.074  1.00  0.00    -0.467 A  
HETATM   24  C   UNL     1      -9.885  16.947  66.716  1.00  0.00    -0.284 A  
HETATM   25  F   UNL     1     -11.026  20.034  65.199  1.00  0.00    -0.559 F  
HETATM   26  C   UNL     1     -10.465  17.827  65.799  1.00  0.00    -0.199 A  
ENDBRANCH  17  19
ENDBRANCH  14  16
ENDBRANCH  10  14
BRANCH  13  27
HETATM   27  C   UNL     1      -9.368   8.376  66.709  1.00  0.00    -0.184 C  
HETATM   28  C   UNL     1     -10.609   7.683  67.295  1.00  0.00    -0.388 C  
HETATM   29  C   UNL     1     -10.064   6.828  68.439  1.00  0.00    -0.162 C  
HETATM   30  H   UNL     1      -7.753   5.875  65.479  1.00  0.00     0.000 HD 
HETATM   31  C   UNL     1      -8.716   6.307  67.881  1.00  0.00    -0.114 C  
HETATM   32  H   UNL     1      -7.989   4.650  67.018  1.00  0.00     0.000 HD 
HETATM   33  O   UNL     1      -8.404   6.566  65.468  1.00  0.00    -0.140 OA 
HETATM   34  C   UNL     1      -8.320   7.264  66.727  1.00  0.00    -0.119 C  
HETATM   35  O   UNL     1      -8.816   4.969  67.360  1.00  0.00    -0.104 OA 
BRANCH  29  36
HETATM   36  O   UNL     1      -9.837   7.600  69.625  1.00  0.00    -0.177 OA 
BRANCH  36  37
HETATM   37  C   UNL     1     -11.001   8.307  70.083  1.00  0.00    -0.222 C  
BRANCH  37  38
HETATM   38  C   UNL     1     -10.575   9.524  70.900  1.00  0.00    -0.325 C  
HETATM   39  H   UNL     1      -9.105  10.003  72.110  1.00  0.00     0.000 HD 
HETATM   40  O   UNL     1      -9.369   9.245  71.601  1.00  0.00    -0.301 OA 
ENDBRANCH  37  38
ENDBRANCH  36  37
ENDBRANCH  29  36
ENDBRANCH  13  27
ENDBRANCH   4   5
ENDBRANCH   3   4
ENDBRANCH   2   3
TORSDOF 10
ENDMDL
MODEL       52
REMARK 921   NORMALIZED FREE ENERGY PREDICTED BY IDOCK:   -5.81 KCAL/MOL
REMARK 922        TOTAL FREE ENERGY PREDICTED BY IDOCK:  -11.27 KCAL/MOL
REMARK 923 INTER-LIGAND FREE ENERGY PREDICTED BY IDOCK:   -9.98 KCAL/MOL
REMARK 924 INTRA-LIGAND FREE ENERGY PREDICTED BY IDOCK:   -1.29 KCAL/MOL
REMARK 927      BINDING AFFINITY PREDICTED BY RF-SCORE:    0.00 PKD
ROOT
HETATM    1  C   UNL     1      -7.469   7.193  65.736  1.00  0.00    -0.081 C  
HETATM    2  C   UNL     1      -8.747   7.979  65.479  1.00  0.00    -0.134 C  
ENDROOT
BRANCH   2   3
HETATM    3  C   UNL     1      -8.806   9.281  66.285  1.00  0.00    -0.146 C  
BRANCH   3   4
HETATM    4  S   UNL     1     -10.154  10.326  65.626  1.00  0.00    -0.243 SA 
BRANCH   4   5
HETATM    5  C   UNL     1     -10.854  10.946  67.140  1.00  0.00    -0.280 A  
HETATM    6  N   UNL     1     -11.041  10.031  68.119  1.00  0.00    -0.233 NA 
HETATM    7  C   UNL     1     -11.591  10.576  69.218  1.00  0.00    -0.236 A  
HETATM    8  C   UNL     1     -11.944  11.901  69.392  1.00  0.00    -0.289 A  
HETATM    9  N   UNL     1     -12.443  12.087  70.652  1.00  0.00    -0.290 NA 
HETATM   10  C   UNL     1     -11.684  12.786  68.336  1.00  0.00    -0.339 A  
HETATM   11  N   UNL     1     -11.130  12.266  67.202  1.00  0.00    -0.262 NA 
HETATM   12  N   UNL     1     -12.393  10.922  71.290  1.00  0.00    -0.358 NA 
HETATM   13  N   UNL     1     -11.851  10.011  70.440  1.00  0.00    -0.271 NA 
BRANCH  10  14
HETATM   14  N   UNL     1     -11.940  14.166  68.470  1.00  0.00    -0.454 NA 
HETATM   15  H   UNL     1     -12.896  14.522  68.479  1.00  0.00     0.000 HD 
BRANCH  14  16
HETATM   16  C   UNL     1     -10.799  15.075  68.594  1.00  0.00    -0.249 C  
HETATM   17  C   UNL     1     -11.020  16.556  68.819  1.00  0.00    -0.330 C  
HETATM   18  C   UNL     1     -10.454  15.692  69.916  1.00  0.00    -0.327 C  
BRANCH  17  19
HETATM   19  C   UNL     1     -10.176  17.524  68.028  1.00  0.00    -0.354 A  
HETATM   20  C   UNL     1      -9.565  19.769  67.316  1.00  0.00    -0.359 A  
HETATM   21  C   UNL     1     -10.362  18.914  68.079  1.00  0.00    -0.457 A  
HETATM   22  F   UNL     1      -9.760  21.091  67.397  1.00  0.00    -0.607 F  
HETATM   23  C   UNL     1      -8.578  19.255  66.484  1.00  0.00    -0.334 A  
HETATM   24  C   UNL     1      -9.172  17.031  67.170  1.00  0.00    -0.242 A  
HETATM   25  F   UNL     1      -7.819  20.080  65.753  1.00  0.00    -0.329 F  
HETATM   26  C   UNL     1      -8.377  17.886  66.403  1.00  0.00    -0.273 A  
ENDBRANCH  17  19
ENDBRANCH  14  16
ENDBRANCH  10  14
BRANCH  13  27
HETATM   27  C   UNL     1     -11.602   8.681  70.959  1.00  0.00    -0.281 C  
HETATM   28  C   UNL     1     -10.559   8.659  72.088  1.00  0.00    -0.411 C  
HETATM   29  C   UNL     1      -9.216   8.547  71.363  1.00  0.00    -0.210 C  
HETATM   30  H   UNL     1     -11.304   5.712  69.744  1.00  0.00     0.000 HD 
HETATM   31  C   UNL     1      -9.530   7.595  70.182  1.00  0.00    -0.161 C  
HETATM   32  H   UNL     1      -9.324   5.655  69.723  1.00  0.00     0.000 HD 
HETATM   33  O   UNL     1     -11.637   6.363  70.351  1.00  0.00    -0.386 OA 
HETATM   34  C   UNL     1     -11.067   7.635  69.982  1.00  0.00    -0.191 C  
HETATM   35  O   UNL     1      -9.131   6.238  70.447  1.00  0.00    -0.152 OA 
BRANCH  29  36
HETATM   36  O   UNL     1      -8.768   9.814  70.866  1.00  0.00    -0.140 OA 
BRANCH  36  37
HETATM   37  C   UNL     1      -7.818   9.708  69.795  1.00  0.00    -0.142 C  
BRANCH  37  38
HETATM   38  C   UNL     1      -6.405   9.619  70.368  1.00  0.00    -0.081 C  
HETATM   39  H   UNL     1      -5.244  10.713  71.512  1.00  0.00     0.000 HD 
HETATM   40  O   UNL     1      -6.123  10.769  71.156  1.00  0.00    -0.351 OA 
ENDBRANCH  37  38
ENDBRANCH  36  37
ENDBRANCH  29  36
ENDBRANCH  13  27
ENDBRANCH   4   5
ENDBRANCH   3   4
ENDBRANCH   2   3
TORSDOF 10
ENDMDL
MODEL       53
REMARK 921   NORMALIZED FREE ENERGY PREDICTED BY IDOCK:   -5.80 KCAL/MOL
REMARK 922        TOTAL FREE ENERGY PREDICTED BY IDOCK:  -11.25 KCAL/MOL
REMARK 923 INTER-LIGAND FREE ENERGY PREDICTED BY IDOCK:   -9.96 KCAL/MOL
REMARK 924 INTRA-LIGAND FREE ENERGY PREDICTED BY IDOCK:   -1.30 KCAL/MOL
REMARK 927      BINDING AFFINITY PREDICTED BY RF-SCORE:    0.00 PKD
ROOT
HETATM    1  C   UNL     1      -5.381   9.562  71.811  1.00  0.00    -0.076 C  
HETATM    2  C   UNL     1      -5.184  10.162  70.426  1.00  0.00    -0.046 C  
ENDROOT
BRANCH   2   3
HETATM    3  C   UNL     1      -6.225  11.239  70.101  1.00  0.00    -0.147 C  
BRANCH   3   4
HETATM    4  S   UNL     1      -6.352  11.411  68.285  1.00  0.00    -0.046 SA 
BRANCH   4   5
HETATM    5  C   UNL     1      -8.120  11.455  68.086  1.00  0.00    -0.137 A  
HETATM    6  N   UNL     1      -8.835  10.822  69.043  1.00  0.00    -0.154 NA 
HETATM    7  C   UNL     1     -10.157  10.885  68.808  1.00  0.00    -0.194 A  
HETATM    8  C   UNL     1     -10.775  11.505  67.739  1.00  0.00    -0.207 A  
HETATM    9  N   UNL     1     -12.132  11.389  67.855  1.00  0.00    -0.621 NA 
HETATM   10  C   UNL     1      -9.957  12.166  66.811  1.00  0.00    -0.203 A  
HETATM   11  N   UNL     1      -8.608  12.119  67.016  1.00  0.00    -0.186 NA 
HETATM   12  N   UNL     1     -12.394  10.733  68.981  1.00  0.00    -0.355 NA 
HETATM   13  N   UNL     1     -11.206  10.451  69.578  1.00  0.00    -0.253 NA 
BRANCH  10  14
HETATM   14  N   UNL     1     -10.518  12.891  65.740  1.00  0.00    -0.274 NA 
HETATM   15  H   UNL     1     -10.657  12.455  64.829  1.00  0.00     0.000 HD 
BRANCH  14  16
HETATM   16  C   UNL     1     -10.895  14.288  65.968  1.00  0.00    -0.303 C  
HETATM   17  C   UNL     1      -9.983  15.411  65.525  1.00  0.00    -0.379 C  
HETATM   18  C   UNL     1     -11.293  15.169  64.823  1.00  0.00    -0.399 C  
BRANCH  17  19
HETATM   19  C   UNL     1      -9.768  16.563  66.474  1.00  0.00    -0.290 A  
HETATM   20  C   UNL     1     -10.035  18.889  67.139  1.00  0.00    -0.332 A  
HETATM   21  C   UNL     1     -10.274  17.850  66.237  1.00  0.00    -0.363 A  
HETATM   22  F   UNL     1     -10.543  20.102  66.889  1.00  0.00    -0.548 F  
HETATM   23  C   UNL     1      -9.283  18.665  68.285  1.00  0.00    -0.322 A  
HETATM   24  C   UNL     1      -9.002  16.368  67.642  1.00  0.00    -0.198 A  
HETATM   25  F   UNL     1      -9.055  19.665  69.146  1.00  0.00    -0.392 F  
HETATM   26  C   UNL     1      -8.760  17.407  68.543  1.00  0.00    -0.277 A  
ENDBRANCH  17  19
ENDBRANCH  14  16
ENDBRANCH  10  14
BRANCH  13  27
HETATM   27  C   UNL     1     -11.248   9.824  70.882  1.00  0.00    -0.359 C  
HETATM   28  C   UNL     1     -10.089   8.840  71.117  1.00  0.00    -0.317 C  
HETATM   29  C   UNL     1     -10.592   7.515  70.545  1.00  0.00    -0.225 C  
HETATM   30  H   UNL     1     -13.516   8.626  72.832  1.00  0.00     0.000 HD 
HETATM   31  C   UNL     1     -12.092   7.508  70.933  1.00  0.00    -0.226 C  
HETATM   32  H   UNL     1     -13.272   6.720  72.349  1.00  0.00     0.000 HD 
HETATM   33  O   UNL     1     -12.751   9.149  72.623  1.00  0.00    -0.329 OA 
HETATM   34  C   UNL     1     -12.479   8.982  71.217  1.00  0.00    -0.289 C  
HETATM   35  O   UNL     1     -12.352   6.724  72.112  1.00  0.00    -0.283 OA 
BRANCH  29  36
HETATM   36  O   UNL     1     -10.455   7.460  69.119  1.00  0.00    -0.207 OA 
BRANCH  36  37
HETATM   37  C   UNL     1     -11.006   6.270  68.533  1.00  0.00    -0.340 C  
BRANCH  37  38
HETATM   38  C   UNL     1     -10.987   6.391  67.012  1.00  0.00    -0.389 C  
HETATM   39  H   UNL     1     -10.630   5.217  65.478  1.00  0.00     0.000 HD 
HETATM   40  O   UNL     1     -10.641   5.142  66.425  1.00  0.00    -0.293 OA 
ENDBRANCH  37  38
ENDBRANCH  36  37
ENDBRANCH  29  36
ENDBRANCH  13  27
ENDBRANCH   4   5
ENDBRANCH   3   4
ENDBRANCH   2   3
TORSDOF 10
ENDMDL
MODEL       54
REMARK 921   NORMALIZED FREE ENERGY PREDICTED BY IDOCK:   -5.80 KCAL/MOL
REMARK 922        TOTAL FREE ENERGY PREDICTED BY IDOCK:  -11.25 KCAL/MOL
REMARK 923 INTER-LIGAND FREE ENERGY PREDICTED BY IDOCK:   -9.06 KCAL/MOL
REMARK 924 INTRA-LIGAND FREE ENERGY PREDICTED BY IDOCK:   -2.19 KCAL/MOL
REMARK 927      BINDING AFFINITY PREDICTED BY RF-SCORE:    0.00 PKD
ROOT
HETATM    1  C   UNL     1     -13.295   9.468  72.121  1.00  0.00    -0.545 C  
HETATM    2  C   UNL     1     -11.906   8.877  71.919  1.00  0.00    -0.440 C  
ENDROOT
BRANCH   2   3
HETATM    3  C   UNL     1     -11.038   9.729  70.986  1.00  0.00    -0.361 C  
BRANCH   3   4
HETATM    4  S   UNL     1     -12.024  11.149  70.391  1.00  0.00    -0.393 SA 
BRANCH   4   5
HETATM    5  C   UNL     1     -11.570  11.161  68.670  1.00  0.00    -0.315 A  
HETATM    6  N   UNL     1     -10.730  10.177  68.277  1.00  0.00    -0.222 NA 
HETATM    7  C   UNL     1     -10.422  10.270  66.972  1.00  0.00    -0.244 A  
HETATM    8  C   UNL     1     -10.875  11.227  66.084  1.00  0.00    -0.222 A  
HETATM    9  N   UNL     1     -10.375  10.979  64.836  1.00  0.00    -0.305 NA 
HETATM   10  C   UNL     1     -11.770  12.191  66.572  1.00  0.00    -0.321 A  
HETATM   11  N   UNL     1     -12.102  12.130  67.894  1.00  0.00    -0.466 NA 
HETATM   12  N   UNL     1      -9.636   9.876  64.902  1.00  0.00    -0.297 NA 
HETATM   13  N   UNL     1      -9.685   9.424  66.183  1.00  0.00    -0.246 NA 
BRANCH  10  14
HETATM   14  N   UNL     1     -12.340  13.150  65.709  1.00  0.00    -0.450 NA 
HETATM   15  H   UNL     1     -13.058  12.886  65.035  1.00  0.00     0.000 HD 
BRANCH  14  16
HETATM   16  C   UNL     1     -11.875  14.536  65.806  1.00  0.00    -0.327 C  
HETATM   17  C   UNL     1     -10.431  14.882  65.513  1.00  0.00    -0.380 C  
HETATM   18  C   UNL     1     -11.525  15.312  64.572  1.00  0.00    -0.318 C  
BRANCH  17  19
HETATM   19  C   UNL     1      -9.732  15.842  66.443  1.00  0.00    -0.305 A  
HETATM   20  C   UNL     1      -7.751  16.700  67.567  1.00  0.00    -0.165 A  
HETATM   21  C   UNL     1      -8.350  15.798  66.685  1.00  0.00    -0.319 A  
HETATM   22  F   UNL     1      -6.428  16.640  67.765  1.00  0.00    -0.124 F  
HETATM   23  C   UNL     1      -8.517  17.651  68.228  1.00  0.00    -0.271 A  
HETATM   24  C   UNL     1     -10.485  16.813  67.135  1.00  0.00    -0.299 A  
HETATM   25  F   UNL     1      -7.939  18.511  69.075  1.00  0.00    -0.315 F  
HETATM   26  C   UNL     1      -9.887  17.712  68.020  1.00  0.00    -0.310 A  
ENDBRANCH  17  19
ENDBRANCH  14  16
ENDBRANCH  10  14
BRANCH  13  27
HETATM   27  C   UNL     1      -9.030   8.165  66.470  1.00  0.00    -0.158 C  
HETATM   28  C   UNL     1      -8.040   8.253  67.644  1.00  0.00    -0.126 C  
HETATM   29  C   UNL     1      -6.727   8.705  67.002  1.00  0.00    -0.062 C  
HETATM   30  H   UNL     1      -7.795   5.726  64.766  1.00  0.00     0.000 HD 
HETATM   31  C   UNL     1      -6.715   7.947  65.650  1.00  0.00    -0.045 C  
HETATM   32  H   UNL     1      -5.899   6.292  64.866  1.00  0.00     0.000 HD 
HETATM   33  O   UNL     1      -8.321   6.112  65.456  1.00  0.00    -0.138 OA 
HETATM   34  C   UNL     1      -8.184   7.544  65.360  1.00  0.00    -0.135 C  
HETATM   35  O   UNL     1      -5.907   6.756  65.694  1.00  0.00    -0.032 OA 
BRANCH  29  36
HETATM   36  O   UNL     1      -6.702  10.119  66.770  1.00  0.00    -0.073 OA 
BRANCH  36  37
HETATM   37  C   UNL     1      -6.879  10.900  67.963  1.00  0.00    -0.068 C  
BRANCH  37  38
HETATM   38  C   UNL     1      -7.349  12.304  67.592  1.00  0.00    -0.127 C  
HETATM   39  H   UNL     1      -8.659  13.607  68.258  1.00  0.00     0.000 HD 
HETATM   40  O   UNL     1      -8.366  12.733  68.489  1.00  0.00    -0.137 OA 
ENDBRANCH  37  38
ENDBRANCH  36  37
ENDBRANCH  29  36
ENDBRANCH  13  27
ENDBRANCH   4   5
ENDBRANCH   3   4
ENDBRANCH   2   3
TORSDOF 10
ENDMDL
MODEL       55
REMARK 921   NORMALIZED FREE ENERGY PREDICTED BY IDOCK:   -5.78 KCAL/MOL
REMARK 922        TOTAL FREE ENERGY PREDICTED BY IDOCK:  -11.23 KCAL/MOL
REMARK 923 INTER-LIGAND FREE ENERGY PREDICTED BY IDOCK:   -9.94 KCAL/MOL
REMARK 924 INTRA-LIGAND FREE ENERGY PREDICTED BY IDOCK:   -1.29 KCAL/MOL
REMARK 927      BINDING AFFINITY PREDICTED BY RF-SCORE:    0.00 PKD
ROOT
HETATM    1  C   UNL     1      -8.419  10.391  62.694  1.00  0.00    -0.201 C  
HETATM    2  C   UNL     1      -9.413  11.514  62.958  1.00  0.00    -0.346 C  
ENDROOT
BRANCH   2   3
HETATM    3  C   UNL     1     -10.660  11.027  63.704  1.00  0.00    -0.269 C  
BRANCH   3   4
HETATM    4  S   UNL     1     -11.746  12.460  64.040  1.00  0.00    -0.464 SA 
BRANCH   4   5
HETATM    5  C   UNL     1     -11.729  12.471  65.819  1.00  0.00    -0.426 A  
HETATM    6  N   UNL     1     -11.512  11.276  66.412  1.00  0.00    -0.274 NA 
HETATM    7  C   UNL     1     -11.535  11.368  67.753  1.00  0.00    -0.281 A  
HETATM    8  C   UNL     1     -11.747  12.513  68.497  1.00  0.00    -0.324 A  
HETATM    9  N   UNL     1     -11.666  12.223  69.831  1.00  0.00    -0.301 NA 
HETATM   10  C   UNL     1     -11.931  13.715  67.798  1.00  0.00    -0.352 A  
HETATM   11  N   UNL     1     -11.918  13.659  66.434  1.00  0.00    -0.403 NA 
HETATM   12  N   UNL     1     -11.384  10.930  69.954  1.00  0.00    -0.289 NA 
HETATM   13  N   UNL     1     -11.273  10.413  68.702  1.00  0.00    -0.260 NA 
BRANCH  10  14
HETATM   14  N   UNL     1     -12.070  14.938  68.487  1.00  0.00    -0.581 NA 
HETATM   15  H   UNL     1     -12.975  15.232  68.852  1.00  0.00     0.000 HD 
BRANCH  14  16
HETATM   16  C   UNL     1     -10.881  15.775  68.664  1.00  0.00    -0.278 C  
HETATM   17  C   UNL     1     -11.019  17.266  68.886  1.00  0.00     0.027 C  
HETATM   18  C   UNL     1     -10.557  16.367  70.003  1.00  0.00    -0.203 C  
BRANCH  17  19
HETATM   19  C   UNL     1     -10.084  18.181  68.136  1.00  0.00    -0.388 A  
HETATM   20  C   UNL     1      -9.589  19.789  66.379  1.00  0.00    -0.411 A  
HETATM   21  C   UNL     1     -10.497  18.968  67.051  1.00  0.00    -0.514 A  
HETATM   22  F   UNL     1     -10.018  20.537  65.354  1.00  0.00    -0.403 F  
HETATM   23  C   UNL     1      -8.257  19.833  66.770  1.00  0.00    -0.312 A  
HETATM   24  C   UNL     1      -8.724  18.240  68.506  1.00  0.00    -0.325 A  
HETATM   25  F   UNL     1      -7.390  20.620  66.120  1.00  0.00    -0.258 F  
HETATM   26  C   UNL     1      -7.815  19.059  67.832  1.00  0.00    -0.301 A  
ENDBRANCH  17  19
ENDBRANCH  14  16
ENDBRANCH  10  14
BRANCH  13  27
HETATM   27  C   UNL     1     -10.865   9.028  68.587  1.00  0.00    -0.017 C  
HETATM   28  C   UNL     1      -9.757   8.640  69.581  1.00  0.00    -0.179 C  
HETATM   29  C   UNL     1      -8.457   9.005  68.862  1.00  0.00    -0.130 C  
HETATM   30  H   UNL     1     -10.355   6.927  66.198  1.00  0.00     0.000 HD 
HETATM   31  C   UNL     1      -8.749   8.626  67.388  1.00  0.00    -0.134 C  
HETATM   32  H   UNL     1      -8.384   7.111  66.128  1.00  0.00     0.000 HD 
HETATM   33  O   UNL     1     -10.712   7.210  67.032  1.00  0.00    -0.327 OA 
HETATM   34  C   UNL     1     -10.292   8.573  67.246  1.00  0.00    -0.302 C  
HETATM   35  O   UNL     1      -8.205   7.342  67.032  1.00  0.00    -0.117 OA 
BRANCH  29  36
HETATM   36  O   UNL     1      -8.166  10.405  68.960  1.00  0.00    -0.121 OA 
BRANCH  36  37
HETATM   37  C   UNL     1      -6.907  10.772  68.374  1.00  0.00    -0.068 C  
BRANCH  37  38
HETATM   38  C   UNL     1      -7.108  11.946  67.419  1.00  0.00    -0.129 C  
HETATM   39  H   UNL     1      -5.975  13.168  66.381  1.00  0.00     0.000 HD 
HETATM   40  O   UNL     1      -5.850  12.438  66.975  1.00  0.00    -0.275 OA 
ENDBRANCH  37  38
ENDBRANCH  36  37
ENDBRANCH  29  36
ENDBRANCH  13  27
ENDBRANCH   4   5
ENDBRANCH   3   4
ENDBRANCH   2   3
TORSDOF 10
ENDMDL
MODEL       56
REMARK 921   NORMALIZED FREE ENERGY PREDICTED BY IDOCK:   -5.78 KCAL/MOL
REMARK 922        TOTAL FREE ENERGY PREDICTED BY IDOCK:  -11.22 KCAL/MOL
REMARK 923 INTER-LIGAND FREE ENERGY PREDICTED BY IDOCK:   -9.08 KCAL/MOL
REMARK 924 INTRA-LIGAND FREE ENERGY PREDICTED BY IDOCK:   -2.14 KCAL/MOL
REMARK 927      BINDING AFFINITY PREDICTED BY RF-SCORE:    0.00 PKD
ROOT
HETATM    1  C   UNL     1      -7.155  14.691  67.499  1.00  0.00    -0.203 C  
HETATM    2  C   UNL     1      -6.647  13.269  67.687  1.00  0.00    -0.172 C  
ENDROOT
BRANCH   2   3
HETATM    3  C   UNL     1      -7.412  12.514  68.780  1.00  0.00    -0.049 C  
BRANCH   3   4
HETATM    4  S   UNL     1      -6.669  10.856  68.985  1.00  0.00    -0.080 SA 
BRANCH   4   5
HETATM    5  C   UNL     1      -7.966   9.833  68.323  1.00  0.00    -0.096 A  
HETATM    6  N   UNL     1      -8.370   8.812  69.112  1.00  0.00    -0.123 NA 
HETATM    7  C   UNL     1      -9.336   8.079  68.531  1.00  0.00    -0.142 A  
HETATM    8  C   UNL     1      -9.893   8.290  67.284  1.00  0.00    -0.197 A  
HETATM    9  N   UNL     1     -10.869   7.363  67.047  1.00  0.00    -0.332 NA 
HETATM   10  C   UNL     1      -9.435   9.393  66.548  1.00  0.00    -0.190 A  
HETATM   11  N   UNL     1      -8.452  10.158  67.105  1.00  0.00    -0.125 NA 
HETATM   12  N   UNL     1     -10.964   6.583  68.120  1.00  0.00    -0.291 NA 
HETATM   13  N   UNL     1     -10.062   7.030  69.033  1.00  0.00    -0.175 NA 
BRANCH  10  14
HETATM   14  N   UNL     1     -10.013   9.722  65.304  1.00  0.00    -0.382 NA 
HETATM   15  H   UNL     1      -9.929   9.092  64.506  1.00  0.00     0.000 HD 
BRANCH  14  16
HETATM   16  C   UNL     1     -10.735  10.990  65.187  1.00  0.00    -0.183 C  
HETATM   17  C   UNL     1      -9.998  12.263  64.829  1.00  0.00    -0.215 C  
HETATM   18  C   UNL     1     -10.947  11.629  63.846  1.00  0.00    -0.478 C  
BRANCH  17  19
HETATM   19  C   UNL     1     -10.337  13.516  65.597  1.00  0.00    -0.303 A  
HETATM   20  C   UNL     1     -10.656  15.922  65.765  1.00  0.00    -0.355 A  
HETATM   21  C   UNL     1     -10.350  14.790  65.008  1.00  0.00    -0.420 A  
HETATM   22  F   UNL     1     -10.671  17.122  65.170  1.00  0.00    -0.352 F  
HETATM   23  C   UNL     1     -10.945  15.807  67.118  1.00  0.00    -0.244 A  
HETATM   24  C   UNL     1     -10.628  13.430  66.974  1.00  0.00    -0.264 A  
HETATM   25  F   UNL     1     -11.236  16.896  67.840  1.00  0.00    -0.330 F  
HETATM   26  C   UNL     1     -10.931  14.563  67.732  1.00  0.00    -0.282 A  
ENDBRANCH  17  19
ENDBRANCH  14  16
ENDBRANCH  10  14
BRANCH  13  27
HETATM   27  C   UNL     1     -10.057   6.390  70.332  1.00  0.00    -0.185 C  
HETATM   28  C   UNL     1     -11.462   6.251  70.942  1.00  0.00    -0.377 C  
HETATM   29  C   UNL     1     -11.690   7.574  71.676  1.00  0.00    -0.282 C  
HETATM   30  H   UNL     1      -8.212   6.464  72.972  1.00  0.00     0.000 HD 
HETATM   31  C   UNL     1     -10.296   7.894  72.271  1.00  0.00    -0.253 C  
HETATM   32  H   UNL     1      -9.335   7.715  74.020  1.00  0.00     0.000 HD 
HETATM   33  O   UNL     1      -8.701   6.039  72.277  1.00  0.00    -0.131 OA 
HETATM   34  C   UNL     1      -9.269   7.074  71.449  1.00  0.00    -0.151 C  
HETATM   35  O   UNL     1     -10.189   7.518  73.656  1.00  0.00    -0.338 OA 
BRANCH  29  36
HETATM   36  O   UNL     1     -12.094   8.619  70.783  1.00  0.00    -0.210 OA 
BRANCH  36  37
HETATM   37  C   UNL     1     -11.692   9.930  71.212  1.00  0.00    -0.392 C  
BRANCH  37  38
HETATM   38  C   UNL     1     -12.886  10.879  71.152  1.00  0.00    -0.409 C  
HETATM   39  H   UNL     1     -13.184  12.803  70.900  1.00  0.00     0.000 HD 
HETATM   40  O   UNL     1     -12.441  12.213  70.937  1.00  0.00    -0.368 OA 
ENDBRANCH  37  38
ENDBRANCH  36  37
ENDBRANCH  29  36
ENDBRANCH  13  27
ENDBRANCH   4   5
ENDBRANCH   3   4
ENDBRANCH   2   3
TORSDOF 10
ENDMDL
MODEL       57
REMARK 921   NORMALIZED FREE ENERGY PREDICTED BY IDOCK:   -5.77 KCAL/MOL
REMARK 922        TOTAL FREE ENERGY PREDICTED BY IDOCK:  -11.20 KCAL/MOL
REMARK 923 INTER-LIGAND FREE ENERGY PREDICTED BY IDOCK:  -10.18 KCAL/MOL
REMARK 924 INTRA-LIGAND FREE ENERGY PREDICTED BY IDOCK:   -1.03 KCAL/MOL
REMARK 927      BINDING AFFINITY PREDICTED BY RF-SCORE:    0.00 PKD
ROOT
HETATM    1  C   UNL     1     -12.221  14.959  64.409  1.00  0.00    -0.399 C  
HETATM    2  C   UNL     1     -12.864  13.964  65.367  1.00  0.00    -0.466 C  
ENDROOT
BRANCH   2   3
HETATM    3  C   UNL     1     -12.208  12.580  65.299  1.00  0.00    -0.433 C  
BRANCH   3   4
HETATM    4  S   UNL     1     -10.512  12.760  64.641  1.00  0.00    -0.356 SA 
BRANCH   4   5
HETATM    5  C   UNL     1      -9.620  13.129  66.136  1.00  0.00    -0.200 A  
HETATM    6  N   UNL     1      -9.233  14.416  66.287  1.00  0.00    -0.221 NA 
HETATM    7  C   UNL     1      -8.550  14.606  67.429  1.00  0.00    -0.199 A  
HETATM    8  C   UNL     1      -8.249  13.648  68.378  1.00  0.00    -0.146 A  
HETATM    9  N   UNL     1      -7.572  14.221  69.418  1.00  0.00     0.005 NA 
HETATM   10  C   UNL     1      -8.719  12.346  68.156  1.00  0.00    -0.190 A  
HETATM   11  N   UNL     1      -9.413  12.115  67.003  1.00  0.00    -0.196 NA 
HETATM   12  N   UNL     1      -7.457  15.521  69.168  1.00  0.00    -0.174 NA 
HETATM   13  N   UNL     1      -8.073  15.767  67.982  1.00  0.00    -0.138 NA 
BRANCH  10  14
HETATM   14  N   UNL     1      -8.523  11.332  69.117  1.00  0.00    -0.378 NA 
HETATM   15  H   UNL     1      -7.701  11.335  69.720  1.00  0.00     0.000 HD 
BRANCH  14  16
HETATM   16  C   UNL     1      -9.531  10.276  69.228  1.00  0.00    -0.215 C  
HETATM   17  C   UNL     1     -10.164   9.957  70.565  1.00  0.00    -0.257 C  
HETATM   18  C   UNL     1     -10.970  10.615  69.477  1.00  0.00    -0.321 C  
BRANCH  17  19
HETATM   19  C   UNL     1     -10.332   8.505  70.939  1.00  0.00    -0.245 A  
HETATM   20  C   UNL     1     -10.813   6.182  70.401  1.00  0.00    -0.310 A  
HETATM   21  C   UNL     1     -10.653   7.510  70.004  1.00  0.00    -0.242 A  
HETATM   22  F   UNL     1     -11.107   5.254  69.482  1.00  0.00    -0.307 F  
HETATM   23  C   UNL     1     -10.665   5.824  71.736  1.00  0.00    -0.249 A  
HETATM   24  C   UNL     1     -10.195   8.115  72.287  1.00  0.00    -0.348 A  
HETATM   25  F   UNL     1     -10.822   4.549  72.112  1.00  0.00    -0.229 F  
HETATM   26  C   UNL     1     -10.358   6.786  72.686  1.00  0.00    -0.225 A  
ENDBRANCH  17  19
ENDBRANCH  14  16
ENDBRANCH  10  14
BRANCH  13  27
HETATM   27  C   UNL     1      -8.163  17.147  67.551  1.00  0.00    -0.185 C  
HETATM   28  C   UNL     1      -9.105  17.992  68.426  1.00  0.00    -0.293 C  
HETATM   29  C   UNL     1     -10.487  17.785  67.804  1.00  0.00    -0.397 C  
HETATM   30  H   UNL     1      -8.304  18.720  64.743  1.00  0.00     0.000 HD 
HETATM   31  C   UNL     1     -10.191  17.747  66.284  1.00  0.00    -0.364 C  
HETATM   32  H   UNL     1     -10.267  18.985  64.710  1.00  0.00     0.000 HD 
HETATM   33  O   UNL     1      -7.979  18.556  65.621  1.00  0.00    -0.468 OA 
HETATM   34  C   UNL     1      -8.684  17.410  66.139  1.00  0.00    -0.147 C  
HETATM   35  O   UNL     1     -10.448  19.009  65.641  1.00  0.00    -0.554 OA 
BRANCH  29  36
HETATM   36  O   UNL     1     -11.082  16.549  68.219  1.00  0.00    -0.355 OA 
BRANCH  36  37
HETATM   37  C   UNL     1     -11.090  16.363  69.643  1.00  0.00    -0.306 C  
BRANCH  37  38
HETATM   38  C   UNL     1     -12.276  15.489  70.041  1.00  0.00    -0.355 C  
HETATM   39  H   UNL     1     -13.141  14.907  71.705  1.00  0.00     0.000 HD 
HETATM   40  O   UNL     1     -12.403  15.452  71.458  1.00  0.00    -0.316 OA 
ENDBRANCH  37  38
ENDBRANCH  36  37
ENDBRANCH  29  36
ENDBRANCH  13  27
ENDBRANCH   4   5
ENDBRANCH   3   4
ENDBRANCH   2   3
TORSDOF 10
ENDMDL
MODEL       58
REMARK 921   NORMALIZED FREE ENERGY PREDICTED BY IDOCK:   -5.76 KCAL/MOL
REMARK 922        TOTAL FREE ENERGY PREDICTED BY IDOCK:  -11.20 KCAL/MOL
REMARK 923 INTER-LIGAND FREE ENERGY PREDICTED BY IDOCK:   -9.61 KCAL/MOL
REMARK 924 INTRA-LIGAND FREE ENERGY PREDICTED BY IDOCK:   -1.58 KCAL/MOL
REMARK 927      BINDING AFFINITY PREDICTED BY RF-SCORE:    0.00 PKD
ROOT
HETATM    1  C   UNL     1      -6.119  14.370  69.982  1.00  0.00    -0.151 C  
HETATM    2  C   UNL     1      -5.288  13.817  68.832  1.00  0.00    -0.071 C  
ENDROOT
BRANCH   2   3
HETATM    3  C   UNL     1      -6.132  13.528  67.586  1.00  0.00    -0.111 C  
BRANCH   3   4
HETATM    4  S   UNL     1      -6.061  11.737  67.225  1.00  0.00    -0.138 SA 
BRANCH   4   5
HETATM    5  C   UNL     1      -7.792  11.327  67.270  1.00  0.00    -0.141 A  
HETATM    6  N   UNL     1      -8.602  12.258  67.824  1.00  0.00    -0.160 NA 
HETATM    7  C   UNL     1      -9.887  11.863  67.837  1.00  0.00    -0.190 A  
HETATM    8  C   UNL     1     -10.386  10.666  67.358  1.00  0.00    -0.219 A  
HETATM    9  N   UNL     1     -11.744  10.634  67.513  1.00  0.00    -0.316 NA 
HETATM   10  C   UNL     1      -9.478   9.774  66.770  1.00  0.00    -0.163 A  
HETATM   11  N   UNL     1      -8.163  10.140  66.743  1.00  0.00    -0.122 NA 
HETATM   12  N   UNL     1     -12.124  11.787  68.054  1.00  0.00    -0.542 NA 
HETATM   13  N   UNL     1     -11.010  12.547  68.225  1.00  0.00    -0.227 NA 
BRANCH  10  14
HETATM   14  N   UNL     1      -9.923   8.570  66.185  1.00  0.00    -0.468 NA 
HETATM   15  H   UNL     1     -10.339   8.564  65.254  1.00  0.00     0.000 HD 
BRANCH  14  16
HETATM   16  C   UNL     1      -9.771   7.329  66.947  1.00  0.00    -0.194 C  
HETATM   17  C   UNL     1     -10.977   6.660  67.571  1.00  0.00    -0.416 C  
HETATM   18  C   UNL     1     -10.275   6.028  66.398  1.00  0.00    -0.135 C  
BRANCH  17  19
HETATM   19  C   UNL     1     -10.845   6.136  68.979  1.00  0.00    -0.416 A  
HETATM   20  C   UNL     1     -11.385   6.167  71.351  1.00  0.00    -0.275 A  
HETATM   21  C   UNL     1     -11.552   6.677  70.063  1.00  0.00    -0.423 A  
HETATM   22  F   UNL     1     -12.084   6.698  72.362  1.00  0.00    -0.303 F  
HETATM   23  C   UNL     1     -10.505   5.116  71.582  1.00  0.00    -0.185 A  
HETATM   24  C   UNL     1      -9.954   5.075  69.245  1.00  0.00    -0.277 A  
HETATM   25  F   UNL     1     -10.346   4.632  72.820  1.00  0.00    -0.200 F  
HETATM   26  C   UNL     1      -9.784   4.566  70.534  1.00  0.00    -0.290 A  
ENDBRANCH  17  19
ENDBRANCH  14  16
ENDBRANCH  10  14
BRANCH  13  27
HETATM   27  C   UNL     1     -11.195  13.899  68.711  1.00  0.00    -0.272 C  
HETATM   28  C   UNL     1     -12.120  14.741  67.816  1.00  0.00    -0.141 C  
HETATM   29  C   UNL     1     -11.190  15.329  66.754  1.00  0.00    -0.241 C  
HETATM   30  H   UNL     1      -9.354  16.173  70.061  1.00  0.00     0.000 HD 
HETATM   31  C   UNL     1      -9.898  15.644  67.549  1.00  0.00    -0.228 C  
HETATM   32  H   UNL     1      -9.017  17.223  68.415  1.00  0.00     0.000 HD 
HETATM   33  O   UNL     1     -10.128  15.626  69.984  1.00  0.00    -0.293 OA 
HETATM   34  C   UNL     1      -9.950  14.777  68.833  1.00  0.00    -0.233 C  
HETATM   35  O   UNL     1      -9.809  17.030  67.928  1.00  0.00    -0.256 OA 
BRANCH  29  36
HETATM   36  O   UNL     1     -10.906  14.388  65.711  1.00  0.00    -0.292 OA 
BRANCH  36  37
HETATM   37  C   UNL     1     -12.014  14.158  64.827  1.00  0.00    -0.431 C  
BRANCH  37  38
HETATM   38  C   UNL     1     -12.004  12.705  64.357  1.00  0.00    -0.400 C  
HETATM   39  H   UNL     1     -13.300  11.242  64.176  1.00  0.00     0.000 HD 
HETATM   40  O   UNL     1     -13.307  12.146  64.468  1.00  0.00    -0.691 OA 
ENDBRANCH  37  38
ENDBRANCH  36  37
ENDBRANCH  29  36
ENDBRANCH  13  27
ENDBRANCH   4   5
ENDBRANCH   3   4
ENDBRANCH   2   3
TORSDOF 10
ENDMDL
MODEL       59
REMARK 921   NORMALIZED FREE ENERGY PREDICTED BY IDOCK:   -5.76 KCAL/MOL
REMARK 922        TOTAL FREE ENERGY PREDICTED BY IDOCK:  -11.19 KCAL/MOL
REMARK 923 INTER-LIGAND FREE ENERGY PREDICTED BY IDOCK:  -10.58 KCAL/MOL
REMARK 924 INTRA-LIGAND FREE ENERGY PREDICTED BY IDOCK:   -0.62 KCAL/MOL
REMARK 927      BINDING AFFINITY PREDICTED BY RF-SCORE:    0.00 PKD
ROOT
HETATM    1  C   UNL     1     -12.756  11.932  63.390  1.00  0.00    -0.496 C  
HETATM    2  C   UNL     1     -11.841  13.107  63.707  1.00  0.00    -0.546 C  
ENDROOT
BRANCH   2   3
HETATM    3  C   UNL     1     -10.370  12.692  63.813  1.00  0.00    -0.330 C  
BRANCH   3   4
HETATM    4  S   UNL     1     -10.279  10.878  64.021  1.00  0.00    -0.335 SA 
BRANCH   4   5
HETATM    5  C   UNL     1      -9.979  10.766  65.772  1.00  0.00    -0.251 A  
HETATM    6  N   UNL     1      -9.978   9.516  66.289  1.00  0.00    -0.268 NA 
HETATM    7  C   UNL     1      -9.765   9.521  67.616  1.00  0.00    -0.154 A  
HETATM    8  C   UNL     1      -9.563  10.631  68.414  1.00  0.00    -0.168 A  
HETATM    9  N   UNL     1      -9.347  10.242  69.707  1.00  0.00    -0.150 NA 
HETATM   10  C   UNL     1      -9.548  11.886  67.788  1.00  0.00    -0.190 A  
HETATM   11  N   UNL     1      -9.765  11.920  66.440  1.00  0.00    -0.216 NA 
HETATM   12  N   UNL     1      -9.382   8.914  69.748  1.00  0.00    -0.161 NA 
HETATM   13  N   UNL     1      -9.603   8.470  68.482  1.00  0.00    -0.150 NA 
BRANCH  10  14
HETATM   14  N   UNL     1      -9.266  13.057  68.521  1.00  0.00    -0.371 NA 
HETATM   15  H   UNL     1      -8.453  13.107  69.136  1.00  0.00     0.000 HD 
BRANCH  14  16
HETATM   16  C   UNL     1     -10.169  14.201  68.377  1.00  0.00    -0.247 C  
HETATM   17  C   UNL     1     -10.137  15.051  67.125  1.00  0.00    -0.239 C  
HETATM   18  C   UNL     1     -11.313  14.155  67.410  1.00  0.00    -0.346 C  
BRANCH  17  19
HETATM   19  C   UNL     1     -10.196  16.549  67.287  1.00  0.00    -0.287 A  
HETATM   20  C   UNL     1     -10.533  18.800  66.425  1.00  0.00    -0.429 A  
HETATM   21  C   UNL     1     -10.505  17.418  66.229  1.00  0.00    -0.276 A  
HETATM   22  F   UNL     1     -10.844  19.600  65.397  1.00  0.00    -0.584 F  
HETATM   23  C   UNL     1     -10.246  19.339  67.672  1.00  0.00    -0.407 A  
HETATM   24  C   UNL     1      -9.902  17.126  68.540  1.00  0.00    -0.297 A  
HETATM   25  F   UNL     1     -10.272  20.665  67.854  1.00  0.00    -0.504 F  
HETATM   26  C   UNL     1      -9.927  18.509  68.735  1.00  0.00    -0.417 A  
ENDBRANCH  17  19
ENDBRANCH  14  16
ENDBRANCH  10  14
BRANCH  13  27
HETATM   27  C   UNL     1      -9.579   7.038  68.265  1.00  0.00    -0.134 C  
HETATM   28  C   UNL     1     -10.983   6.421  68.149  1.00  0.00    -0.393 C  
HETATM   29  C   UNL     1     -11.387   6.120  69.593  1.00  0.00    -0.372 C  
HETATM   30  H   UNL     1      -7.860   4.535  69.343  1.00  0.00     0.000 HD 
HETATM   31  C   UNL     1     -10.062   5.644  70.240  1.00  0.00    -0.222 C  
HETATM   32  H   UNL     1      -9.157   3.918  70.707  1.00  0.00     0.000 HD 
HETATM   33  O   UNL     1      -8.271   5.072  68.675  1.00  0.00    -0.085 OA 
HETATM   34  C   UNL     1      -8.918   6.176  69.340  1.00  0.00    -0.128 C  
HETATM   35  O   UNL     1      -9.969   4.209  70.310  1.00  0.00    -0.201 OA 
BRANCH  29  36
HETATM   36  O   UNL     1     -11.870   7.289  70.268  1.00  0.00    -0.190 OA 
BRANCH  36  37
HETATM   37  C   UNL     1     -11.810   7.191  71.700  1.00  0.00    -0.306 C  
BRANCH  37  38
HETATM   38  C   UNL     1     -12.545   8.374  72.326  1.00  0.00    -0.349 C  
HETATM   39  H   UNL     1     -14.247   9.316  72.060  1.00  0.00     0.000 HD 
HETATM   40  O   UNL     1     -13.790   8.580  71.670  1.00  0.00    -0.379 OA 
ENDBRANCH  37  38
ENDBRANCH  36  37
ENDBRANCH  29  36
ENDBRANCH  13  27
ENDBRANCH   4   5
ENDBRANCH   3   4
ENDBRANCH   2   3
TORSDOF 10
ENDMDL
MODEL       60
REMARK 921   NORMALIZED FREE ENERGY PREDICTED BY IDOCK:   -5.75 KCAL/MOL
REMARK 922        TOTAL FREE ENERGY PREDICTED BY IDOCK:  -11.18 KCAL/MOL
REMARK 923 INTER-LIGAND FREE ENERGY PREDICTED BY IDOCK:   -9.69 KCAL/MOL
REMARK 924 INTRA-LIGAND FREE ENERGY PREDICTED BY IDOCK:   -1.48 KCAL/MOL
REMARK 927      BINDING AFFINITY PREDICTED BY RF-SCORE:    0.00 PKD
ROOT
HETATM    1  C   UNL     1      -7.196  18.479  68.182  1.00  0.00    -0.268 C  
HETATM    2  C   UNL     1      -6.720  17.206  68.869  1.00  0.00    -0.209 C  
ENDROOT
BRANCH   2   3
HETATM    3  C   UNL     1      -6.470  16.064  67.878  1.00  0.00    -0.143 C  
BRANCH   3   4
HETATM    4  S   UNL     1      -5.920  14.586  68.803  1.00  0.00    -0.088 SA 
BRANCH   4   5
HETATM    5  C   UNL     1      -7.335  13.527  68.596  1.00  0.00    -0.112 A  
HETATM    6  N   UNL     1      -8.491  14.148  68.271  1.00  0.00    -0.163 NA 
HETATM    7  C   UNL     1      -9.512  13.281  68.153  1.00  0.00    -0.222 A  
HETATM    8  C   UNL     1      -9.454  11.912  68.327  1.00  0.00    -0.197 A  
HETATM    9  N   UNL     1     -10.683  11.360  68.092  1.00  0.00    -0.191 NA 
HETATM   10  C   UNL     1      -8.206  11.349  68.630  1.00  0.00    -0.142 A  
HETATM   11  N   UNL     1      -7.147  12.200  68.762  1.00  0.00    -0.107 NA 
HETATM   12  N   UNL     1     -11.514  12.340  67.749  1.00  0.00    -0.307 NA 
HETATM   13  N   UNL     1     -10.805  13.500  67.754  1.00  0.00    -0.249 NA 
BRANCH  10  14
HETATM   14  N   UNL     1      -8.050   9.951  68.741  1.00  0.00    -0.098 NA 
HETATM   15  H   UNL     1      -7.475   9.435  68.076  1.00  0.00     0.000 HD 
BRANCH  14  16
HETATM   16  C   UNL     1      -8.735   9.261  69.836  1.00  0.00    -0.180 C  
HETATM   17  C   UNL     1      -9.936   8.383  69.556  1.00  0.00    -0.190 C  
HETATM   18  C   UNL     1      -8.628   7.773  69.986  1.00  0.00    -0.140 C  
BRANCH  17  19
HETATM   19  C   UNL     1     -11.125   8.496  70.478  1.00  0.00    -0.265 A  
HETATM   20  C   UNL     1     -13.083   7.581  71.594  1.00  0.00    -0.358 A  
HETATM   21  C   UNL     1     -11.987   7.422  70.745  1.00  0.00    -0.261 A  
HETATM   22  F   UNL     1     -13.880   6.533  71.838  1.00  0.00    -0.339 F  
HETATM   23  C   UNL     1     -13.344   8.812  72.184  1.00  0.00    -0.423 A  
HETATM   24  C   UNL     1     -11.418   9.735  71.084  1.00  0.00    -0.472 A  
HETATM   25  F   UNL     1     -14.398   8.960  72.995  1.00  0.00    -0.389 F  
HETATM   26  C   UNL     1     -12.517   9.896  71.932  1.00  0.00    -0.435 A  
ENDBRANCH  17  19
ENDBRANCH  14  16
ENDBRANCH  10  14
BRANCH  13  27
HETATM   27  C   UNL     1     -11.487  14.698  67.309  1.00  0.00    -0.372 C  
HETATM   28  C   UNL     1     -12.291  14.490  66.014  1.00  0.00    -0.234 C  
HETATM   29  C   UNL     1     -11.279  14.738  64.894  1.00  0.00    -0.406 C  
HETATM   30  H   UNL     1     -10.827  17.848  67.160  1.00  0.00     0.000 HD 
HETATM   31  C   UNL     1     -10.423  15.907  65.442  1.00  0.00    -0.405 C  
HETATM   32  H   UNL     1     -10.306  17.899  65.249  1.00  0.00     0.000 HD 
HETATM   33  O   UNL     1     -11.363  17.091  67.365  1.00  0.00     0.084 OA 
HETATM   34  C   UNL     1     -10.623  15.915  66.979  1.00  0.00    -0.306 C  
HETATM   35  O   UNL     1     -10.831  17.182  64.913  1.00  0.00    -0.751 OA 
BRANCH  29  36
HETATM   36  O   UNL     1     -10.451  13.593  64.657  1.00  0.00    -0.411 OA 
BRANCH  36  37
HETATM   37  C   UNL     1     -11.018  12.653  63.731  1.00  0.00    -0.435 C  
BRANCH  37  38
HETATM   38  C   UNL     1     -10.916  11.242  64.303  1.00  0.00    -0.288 C  
HETATM   39  H   UNL     1      -9.516  10.094  65.064  1.00  0.00     0.000 HD 
HETATM   40  O   UNL     1      -9.579  10.972  64.708  1.00  0.00    -0.223 OA 
ENDBRANCH  37  38
ENDBRANCH  36  37
ENDBRANCH  29  36
ENDBRANCH  13  27
ENDBRANCH   4   5
ENDBRANCH   3   4
ENDBRANCH   2   3
TORSDOF 10
ENDMDL
MODEL       61
REMARK 921   NORMALIZED FREE ENERGY PREDICTED BY IDOCK:   -5.75 KCAL/MOL
REMARK 922        TOTAL FREE ENERGY PREDICTED BY IDOCK:  -11.17 KCAL/MOL
REMARK 923 INTER-LIGAND FREE ENERGY PREDICTED BY IDOCK:   -9.83 KCAL/MOL
REMARK 924 INTRA-LIGAND FREE ENERGY PREDICTED BY IDOCK:   -1.34 KCAL/MOL
REMARK 927      BINDING AFFINITY PREDICTED BY RF-SCORE:    0.00 PKD
ROOT
HETATM    1  C   UNL     1      -5.731   6.889  68.605  1.00  0.00    -0.018 C  
HETATM    2  C   UNL     1      -5.981   7.925  67.518  1.00  0.00    -0.046 C  
ENDROOT
BRANCH   2   3
HETATM    3  C   UNL     1      -6.457   9.267  68.085  1.00  0.00    -0.058 C  
BRANCH   3   4
HETATM    4  S   UNL     1      -7.342  10.184  66.775  1.00  0.00    -0.107 SA 
BRANCH   4   5
HETATM    5  C   UNL     1      -8.926  10.414  67.552  1.00  0.00    -0.135 A  
HETATM    6  N   UNL     1      -9.156   9.661  68.651  1.00  0.00    -0.131 NA 
HETATM    7  C   UNL     1     -10.379   9.879  69.164  1.00  0.00    -0.209 A  
HETATM    8  C   UNL     1     -11.332  10.754  68.677  1.00  0.00    -0.291 A  
HETATM    9  N   UNL     1     -12.439  10.730  69.480  1.00  0.00    -0.280 NA 
HETATM   10  C   UNL     1     -10.995  11.520  67.552  1.00  0.00    -0.255 A  
HETATM   11  N   UNL     1      -9.762  11.321  67.001  1.00  0.00    -0.185 NA 
HETATM   12  N   UNL     1     -12.205   9.881  70.476  1.00  0.00    -0.222 NA 
HETATM   13  N   UNL     1     -10.951   9.387  70.309  1.00  0.00    -0.249 NA 
BRANCH  10  14
HETATM   14  N   UNL     1     -11.883  12.493  67.047  1.00  0.00    -0.503 NA 
HETATM   15  H   UNL     1     -12.325  12.375  66.136  1.00  0.00     0.000 HD 
BRANCH  14  16
HETATM   16  C   UNL     1     -12.153  13.677  67.864  1.00  0.00    -0.283 C  
HETATM   17  C   UNL     1     -11.175  14.109  68.936  1.00  0.00    -0.294 C  
HETATM   18  C   UNL     1     -11.348  14.930  67.685  1.00  0.00    -0.348 C  
BRANCH  17  19
HETATM   19  C   UNL     1     -11.732  14.533  70.272  1.00  0.00    -0.356 A  
HETATM   20  C   UNL     1     -11.921  16.086  72.135  1.00  0.00    -0.538 A  
HETATM   21  C   UNL     1     -11.389  15.745  70.890  1.00  0.00    -0.426 A  
HETATM   22  F   UNL     1     -11.583  17.256  72.692  1.00  0.00    -0.387 F  
HETATM   23  C   UNL     1     -12.793  15.225  72.787  1.00  0.00    -0.413 A  
HETATM   24  C   UNL     1     -12.614  13.675  70.961  1.00  0.00    -0.441 A  
HETATM   25  F   UNL     1     -13.298  15.556  73.982  1.00  0.00    -0.435 F  
HETATM   26  C   UNL     1     -13.143  14.015  72.208  1.00  0.00    -0.516 A  
ENDBRANCH  17  19
ENDBRANCH  14  16
ENDBRANCH  10  14
BRANCH  13  27
HETATM   27  C   UNL     1     -10.436   8.511  71.342  1.00  0.00    -0.237 C  
HETATM   28  C   UNL     1      -9.593   7.352  70.786  1.00  0.00    -0.170 C  
HETATM   29  C   UNL     1     -10.613   6.257  70.470  1.00  0.00    -0.249 C  
HETATM   30  H   UNL     1     -11.526   7.254  74.101  1.00  0.00     0.000 HD 
HETATM   31  C   UNL     1     -11.631   6.374  71.632  1.00  0.00    -0.310 C  
HETATM   32  H   UNL     1     -12.021   5.476  73.380  1.00  0.00     0.000 HD 
HETATM   33  O   UNL     1     -10.892   7.699  73.550  1.00  0.00    -0.340 OA 
HETATM   34  C   UNL     1     -11.456   7.795  72.227  1.00  0.00    -0.332 C  
HETATM   35  O   UNL     1     -11.397   5.404  72.669  1.00  0.00    -0.279 OA 
BRANCH  29  36
HETATM   36  O   UNL     1     -11.270   6.483  69.217  1.00  0.00    -0.328 OA 
BRANCH  36  37
HETATM   37  C   UNL     1     -10.714   5.728  68.130  1.00  0.00    -0.209 C  
BRANCH  37  38
HETATM   38  C   UNL     1      -9.782   4.649  68.677  1.00  0.00    -0.149 C  
HETATM   39  H   UNL     1      -7.942   4.041  68.362  1.00  0.00     0.000 HD 
HETATM   40  O   UNL     1      -8.522   4.712  68.021  1.00  0.00    -0.101 OA 
ENDBRANCH  37  38
ENDBRANCH  36  37
ENDBRANCH  29  36
ENDBRANCH  13  27
ENDBRANCH   4   5
ENDBRANCH   3   4
ENDBRANCH   2   3
TORSDOF 10
ENDMDL
MODEL       62
REMARK 921   NORMALIZED FREE ENERGY PREDICTED BY IDOCK:   -5.70 KCAL/MOL
REMARK 922        TOTAL FREE ENERGY PREDICTED BY IDOCK:  -11.09 KCAL/MOL
REMARK 923 INTER-LIGAND FREE ENERGY PREDICTED BY IDOCK:   -9.72 KCAL/MOL
REMARK 924 INTRA-LIGAND FREE ENERGY PREDICTED BY IDOCK:   -1.37 KCAL/MOL
REMARK 927      BINDING AFFINITY PREDICTED BY RF-SCORE:    0.00 PKD
ROOT
HETATM    1  C   UNL     1     -10.456   5.376  70.827  1.00  0.00    -0.317 C  
HETATM    2  C   UNL     1     -11.436   6.342  70.175  1.00  0.00    -0.484 C  
ENDROOT
BRANCH   2   3
HETATM    3  C   UNL     1     -10.754   7.624  69.683  1.00  0.00    -0.228 C  
BRANCH   3   4
HETATM    4  S   UNL     1     -11.458   9.052  70.582  1.00  0.00    -0.216 SA 
BRANCH   4   5
HETATM    5  C   UNL     1     -11.286  10.327  69.352  1.00  0.00    -0.221 A  
HETATM    6  N   UNL     1     -10.743   9.940  68.176  1.00  0.00    -0.228 NA 
HETATM    7  C   UNL     1     -10.630  10.963  67.313  1.00  0.00    -0.251 A  
HETATM    8  C   UNL     1     -11.006  12.275  67.535  1.00  0.00    -0.254 A  
HETATM    9  N   UNL     1     -10.769  13.023  66.416  1.00  0.00    -0.280 NA 
HETATM   10  C   UNL     1     -11.591  12.580  68.772  1.00  0.00    -0.322 A  
HETATM   11  N   UNL     1     -11.718  11.565  69.676  1.00  0.00    -0.322 NA 
HETATM   12  N   UNL     1     -10.276  12.218  65.479  1.00  0.00    -0.265 NA 
HETATM   13  N   UNL     1     -10.218  10.966  66.004  1.00  0.00    -0.247 NA 
BRANCH  10  14
HETATM   14  N   UNL     1     -12.076  13.876  69.043  1.00  0.00    -0.399 NA 
HETATM   15  H   UNL     1     -13.075  14.049  69.151  1.00  0.00     0.000 HD 
BRANCH  14  16
HETATM   16  C   UNL     1     -11.108  14.968  69.165  1.00  0.00    -0.270 C  
HETATM   17  C   UNL     1     -11.506  16.388  68.821  1.00  0.00    -0.222 C  
HETATM   18  C   UNL     1     -11.245  15.993  70.251  1.00  0.00    -0.397 C  
BRANCH  17  19
HETATM   19  C   UNL     1     -10.538  17.217  68.015  1.00  0.00    -0.394 A  
HETATM   20  C   UNL     1      -9.722  19.336  67.140  1.00  0.00    -0.330 A  
HETATM   21  C   UNL     1     -10.634  18.614  67.911  1.00  0.00    -0.397 A  
HETATM   22  F   UNL     1      -9.834  20.669  67.072  1.00  0.00    -0.559 F  
HETATM   23  C   UNL     1      -8.707  18.682  66.454  1.00  0.00    -0.276 A  
HETATM   24  C   UNL     1      -9.502  16.580  67.302  1.00  0.00    -0.237 A  
HETATM   25  F   UNL     1      -7.837  19.379  65.714  1.00  0.00    -0.307 F  
HETATM   26  C   UNL     1      -8.592  17.302  66.527  1.00  0.00    -0.298 A  
ENDBRANCH  17  19
ENDBRANCH  14  16
ENDBRANCH  10  14
BRANCH  13  27
HETATM   27  C   UNL     1      -9.804   9.893  65.123  1.00  0.00    -0.278 C  
HETATM   28  C   UNL     1      -9.181   8.703  65.872  1.00  0.00    -0.264 C  
HETATM   29  C   UNL     1      -7.701   9.067  66.002  1.00  0.00    -0.095 C  
HETATM   30  H   UNL     1      -8.398   9.647  62.235  1.00  0.00     0.000 HD 
HETATM   31  C   UNL     1      -7.387   9.761  64.653  1.00  0.00    -0.134 C  
HETATM   32  H   UNL     1      -6.559   9.302  62.887  1.00  0.00     0.000 HD 
HETATM   33  O   UNL     1      -9.054   9.444  62.892  1.00  0.00    -0.234 OA 
HETATM   34  C   UNL     1      -8.748  10.219  64.068  1.00  0.00    -0.202 C  
HETATM   35  O   UNL     1      -6.752   8.876  63.714  1.00  0.00    -0.088 OA 
BRANCH  29  36
HETATM   36  O   UNL     1      -7.467   9.975  67.087  1.00  0.00    -0.091 OA 
BRANCH  36  37
HETATM   37  C   UNL     1      -6.504  10.997  66.784  1.00  0.00    -0.124 C  
BRANCH  37  38
HETATM   38  C   UNL     1      -6.968  12.329  67.367  1.00  0.00    -0.151 C  
HETATM   39  H   UNL     1      -6.240  14.140  67.577  1.00  0.00     0.000 HD 
HETATM   40  O   UNL     1      -5.951  13.312  67.214  1.00  0.00    -0.341 OA 
ENDBRANCH  37  38
ENDBRANCH  36  37
ENDBRANCH  29  36
ENDBRANCH  13  27
ENDBRANCH   4   5
ENDBRANCH   3   4
ENDBRANCH   2   3
TORSDOF 10
ENDMDL
MODEL       63
REMARK 921   NORMALIZED FREE ENERGY PREDICTED BY IDOCK:   -5.67 KCAL/MOL
REMARK 922        TOTAL FREE ENERGY PREDICTED BY IDOCK:  -11.05 KCAL/MOL
REMARK 923 INTER-LIGAND FREE ENERGY PREDICTED BY IDOCK:   -9.12 KCAL/MOL
REMARK 924 INTRA-LIGAND FREE ENERGY PREDICTED BY IDOCK:   -1.93 KCAL/MOL
REMARK 927      BINDING AFFINITY PREDICTED BY RF-SCORE:    0.00 PKD
ROOT
HETATM    1  C   UNL     1      -9.216   7.860  72.544  1.00  0.00    -0.250 C  
HETATM    2  C   UNL     1     -10.632   7.810  73.101  1.00  0.00    -0.415 C  
ENDROOT
BRANCH   2   3
HETATM    3  C   UNL     1     -11.696   7.807  71.997  1.00  0.00    -0.304 C  
BRANCH   3   4
HETATM    4  S   UNL     1     -12.147   9.536  71.606  1.00  0.00    -0.399 SA 
BRANCH   4   5
HETATM    5  C   UNL     1     -11.283   9.757  70.066  1.00  0.00    -0.251 A  
HETATM    6  N   UNL     1     -11.205  11.029  69.613  1.00  0.00    -0.266 NA 
HETATM    7  C   UNL     1     -10.556  11.106  68.438  1.00  0.00    -0.193 A  
HETATM    8  C   UNL     1     -10.011  10.054  67.728  1.00  0.00    -0.170 A  
HETATM    9  N   UNL     1      -9.402  10.522  66.597  1.00  0.00    -0.159 NA 
HETATM   10  C   UNL     1     -10.110   8.772  68.289  1.00  0.00    -0.188 A  
HETATM   11  N   UNL     1     -10.766   8.655  69.480  1.00  0.00    -0.214 NA 
HETATM   12  N   UNL     1      -9.525  11.846  66.582  1.00  0.00    -0.204 NA 
HETATM   13  N   UNL     1     -10.195  12.208  67.707  1.00  0.00    -0.197 NA 
BRANCH  10  14
HETATM   14  N   UNL     1      -9.506   7.661  67.664  1.00  0.00    -0.141 NA 
HETATM   15  H   UNL     1      -9.498   7.572  66.649  1.00  0.00     0.000 HD 
BRANCH  14  16
HETATM   16  C   UNL     1      -8.891   6.637  68.512  1.00  0.00    -0.122 C  
HETATM   17  C   UNL     1      -9.191   5.171  68.283  1.00  0.00    -0.139 C  
HETATM   18  C   UNL     1      -7.829   5.730  67.966  1.00  0.00    -0.100 C  
BRANCH  17  19
HETATM   19  C   UNL     1      -9.456   4.308  69.491  1.00  0.00    -0.257 A  
HETATM   20  C   UNL     1     -10.119   3.989  71.810  1.00  0.00    -0.129 A  
HETATM   21  C   UNL     1      -9.902   4.827  70.716  1.00  0.00    -0.280 A  
HETATM   22  F   UNL     1     -10.557   4.515  72.961  1.00  0.00    -0.204 F  
HETATM   23  C   UNL     1      -9.888   2.623  71.707  1.00  0.00    -0.153 A  
HETATM   24  C   UNL     1      -9.222   2.919  69.418  1.00  0.00    -0.212 A  
HETATM   25  F   UNL     1     -10.095   1.823  72.760  1.00  0.00    -0.136 F  
HETATM   26  C   UNL     1      -9.436   2.080  70.514  1.00  0.00    -0.171 A  
ENDBRANCH  17  19
ENDBRANCH  14  16
ENDBRANCH  10  14
BRANCH  13  27
HETATM   27  C   UNL     1     -10.358  13.626  67.958  1.00  0.00    -0.250 C  
HETATM   28  C   UNL     1     -11.824  14.086  67.895  1.00  0.00    -0.411 C  
HETATM   29  C   UNL     1     -12.063  14.395  66.416  1.00  0.00    -0.369 C  
HETATM   30  H   UNL     1      -8.797  16.335  67.180  1.00  0.00     0.000 HD 
HETATM   31  C   UNL     1     -10.724  15.033  65.967  1.00  0.00    -0.326 C  
HETATM   32  H   UNL     1      -9.961  16.862  65.666  1.00  0.00     0.000 HD 
HETATM   33  O   UNL     1      -9.232  15.733  67.774  1.00  0.00    -0.196 OA 
HETATM   34  C   UNL     1      -9.658  14.592  67.003  1.00  0.00    -0.240 C  
HETATM   35  O   UNL     1     -10.781  16.471  65.942  1.00  0.00    -0.285 OA 
BRANCH  29  36
HETATM   36  O   UNL     1     -12.320  13.208  65.656  1.00  0.00    -0.443 OA 
BRANCH  36  37
HETATM   37  C   UNL     1     -12.140  13.381  64.241  1.00  0.00    -0.424 C  
BRANCH  37  38
HETATM   38  C   UNL     1     -11.682  12.066  63.616  1.00  0.00    -0.493 C  
HETATM   39  H   UNL     1     -10.007  11.302  62.934  1.00  0.00     0.000 HD 
HETATM   40  O   UNL     1     -10.291  12.121  63.324  1.00  0.00    -0.432 OA 
ENDBRANCH  37  38
ENDBRANCH  36  37
ENDBRANCH  29  36
ENDBRANCH  13  27
ENDBRANCH   4   5
ENDBRANCH   3   4
ENDBRANCH   2   3
TORSDOF 10
ENDMDL
MODEL       64
REMARK 921   NORMALIZED FREE ENERGY PREDICTED BY IDOCK:   -5.64 KCAL/MOL
REMARK 922        TOTAL FREE ENERGY PREDICTED BY IDOCK:  -11.01 KCAL/MOL
REMARK 923 INTER-LIGAND FREE ENERGY PREDICTED BY IDOCK:   -9.19 KCAL/MOL
REMARK 924 INTRA-LIGAND FREE ENERGY PREDICTED BY IDOCK:   -1.82 KCAL/MOL
REMARK 927      BINDING AFFINITY PREDICTED BY RF-SCORE:    0.00 PKD
ROOT
HETATM    1  C   UNL     1      -7.063   6.951  68.977  1.00  0.00    -0.088 C  
HETATM    2  C   UNL     1      -6.141   8.160  68.899  1.00  0.00    -0.040 C  
ENDROOT
BRANCH   2   3
HETATM    3  C   UNL     1      -6.067   8.749  67.486  1.00  0.00    -0.051 C  
BRANCH   3   4
HETATM    4  S   UNL     1      -6.112  10.573  67.601  1.00  0.00    -0.052 SA 
BRANCH   4   5
HETATM    5  C   UNL     1      -7.844  10.874  67.319  1.00  0.00    -0.116 A  
HETATM    6  N   UNL     1      -8.179  12.154  67.036  1.00  0.00    -0.176 NA 
HETATM    7  C   UNL     1      -9.503  12.298  66.857  1.00  0.00    -0.217 A  
HETATM    8  C   UNL     1     -10.459  11.303  66.935  1.00  0.00    -0.245 A  
HETATM    9  N   UNL     1     -11.694  11.822  66.660  1.00  0.00    -0.554 NA 
HETATM   10  C   UNL     1     -10.017   9.999  67.200  1.00  0.00    -0.201 A  
HETATM   11  N   UNL     1      -8.678   9.815  67.392  1.00  0.00    -0.132 NA 
HETATM   12  N   UNL     1     -11.546  13.114  66.386  1.00  0.00    -0.332 NA 
HETATM   13  N   UNL     1     -10.220  13.403  66.472  1.00  0.00    -0.276 NA 
BRANCH  10  14
HETATM   14  N   UNL     1     -10.922   8.918  67.214  1.00  0.00    -0.370 NA 
HETATM   15  H   UNL     1     -11.882   9.035  66.891  1.00  0.00     0.000 HD 
BRANCH  14  16
HETATM   16  C   UNL     1     -10.448   7.621  67.702  1.00  0.00    -0.244 C  
HETATM   17  C   UNL     1     -11.404   6.659  68.375  1.00  0.00    -0.110 C  
HETATM   18  C   UNL     1     -10.846   6.352  67.010  1.00  0.00    -0.464 C  
BRANCH  17  19
HETATM   19  C   UNL     1     -10.935   5.955  69.624  1.00  0.00    -0.447 A  
HETATM   20  C   UNL     1     -10.854   5.675  72.040  1.00  0.00    -0.242 A  
HETATM   21  C   UNL     1     -11.327   6.349  70.912  1.00  0.00    -0.398 A  
HETATM   22  F   UNL     1     -11.257   6.068  73.254  1.00  0.00    -0.271 F  
HETATM   23  C   UNL     1      -9.978   4.606  71.903  1.00  0.00    -0.189 A  
HETATM   24  C   UNL     1     -10.039   4.871  69.517  1.00  0.00    -0.286 A  
HETATM   25  F   UNL     1      -9.525   3.964  72.987  1.00  0.00    -0.120 F  
HETATM   26  C   UNL     1      -9.563   4.199  70.645  1.00  0.00    -0.264 A  
ENDBRANCH  17  19
ENDBRANCH  14  16
ENDBRANCH  10  14
BRANCH  13  27
HETATM   27  C   UNL     1      -9.805  14.742  66.111  1.00  0.00    -0.312 C  
HETATM   28  C   UNL     1      -8.864  15.383  67.145  1.00  0.00    -0.234 C  
HETATM   29  C   UNL     1      -9.802  16.029  68.165  1.00  0.00    -0.222 C  
HETATM   30  H   UNL     1     -11.175  17.341  64.788  1.00  0.00     0.000 HD 
HETATM   31  C   UNL     1     -10.955  16.578  67.288  1.00  0.00    -0.084 C  
HETATM   32  H   UNL     1     -11.523  18.319  66.475  1.00  0.00     0.000 HD 
HETATM   33  O   UNL     1     -10.495  16.685  64.888  1.00  0.00    -0.657 OA 
HETATM   34  C   UNL     1     -10.899  15.797  65.950  1.00  0.00    -0.268 C  
HETATM   35  O   UNL     1     -10.816  17.983  67.012  1.00  0.00    -0.281 OA 
BRANCH  29  36
HETATM   36  O   UNL     1     -10.312  15.073  69.104  1.00  0.00    -0.234 OA 
BRANCH  36  37
HETATM   37  C   UNL     1     -11.684  15.298  69.466  1.00  0.00    -0.339 C  
BRANCH  37  38
HETATM   38  C   UNL     1     -12.159  14.185  70.396  1.00  0.00    -0.346 C  
HETATM   39  H   UNL     1     -12.151  12.221  70.413  1.00  0.00     0.000 HD 
HETATM   40  O   UNL     1     -11.855  12.914  69.834  1.00  0.00    -0.323 OA 
ENDBRANCH  37  38
ENDBRANCH  36  37
ENDBRANCH  29  36
ENDBRANCH  13  27
ENDBRANCH   4   5
ENDBRANCH   3   4
ENDBRANCH   2   3
TORSDOF 10
ENDMDL
MODEL       65
REMARK 921   NORMALIZED FREE ENERGY PREDICTED BY IDOCK:   -5.61 KCAL/MOL
REMARK 922        TOTAL FREE ENERGY PREDICTED BY IDOCK:  -10.95 KCAL/MOL
REMARK 923 INTER-LIGAND FREE ENERGY PREDICTED BY IDOCK:   -9.50 KCAL/MOL
REMARK 924 INTRA-LIGAND FREE ENERGY PREDICTED BY IDOCK:   -1.45 KCAL/MOL
REMARK 927      BINDING AFFINITY PREDICTED BY RF-SCORE:    0.00 PKD
ROOT
HETATM    1  C   UNL     1     -14.394   8.239  71.465  1.00  0.00    -0.525 C  
HETATM    2  C   UNL     1     -13.191   7.305  71.462  1.00  0.00    -0.434 C  
ENDROOT
BRANCH   2   3
HETATM    3  C   UNL     1     -11.941   7.963  70.869  1.00  0.00    -0.196 C  
BRANCH   3   4
HETATM    4  S   UNL     1     -11.843   9.690  71.460  1.00  0.00    -0.396 SA 
BRANCH   4   5
HETATM    5  C   UNL     1     -11.603  10.548  69.919  1.00  0.00    -0.307 A  
HETATM    6  N   UNL     1     -11.996  11.842  69.900  1.00  0.00    -0.329 NA 
HETATM    7  C   UNL     1     -11.799  12.410  68.698  1.00  0.00    -0.302 A  
HETATM    8  C   UNL     1     -11.265  11.802  67.577  1.00  0.00    -0.291 A  
HETATM    9  N   UNL     1     -11.189  12.703  66.551  1.00  0.00    -0.281 NA 
HETATM   10  C   UNL     1     -10.854  10.467  67.697  1.00  0.00    -0.306 A  
HETATM   11  N   UNL     1     -11.042   9.857  68.904  1.00  0.00    -0.182 NA 
HETATM   12  N   UNL     1     -11.638  13.872  66.997  1.00  0.00    -0.349 NA 
HETATM   13  N   UNL     1     -11.980  13.710  68.302  1.00  0.00    -0.363 NA 
BRANCH  10  14
HETATM   14  N   UNL     1     -10.224   9.804  66.624  1.00  0.00    -0.233 NA 
HETATM   15  H   UNL     1     -10.337  10.136  65.666  1.00  0.00     0.000 HD 
BRANCH  14  16
HETATM   16  C   UNL     1      -9.403   8.628  66.918  1.00  0.00    -0.170 C  
HETATM   17  C   UNL     1      -9.775   7.273  66.356  1.00  0.00    -0.148 C  
HETATM   18  C   UNL     1      -8.557   8.000  65.852  1.00  0.00    -0.171 C  
BRANCH  17  19
HETATM   19  C   UNL     1      -9.690   6.079  67.274  1.00  0.00    -0.138 A  
HETATM   20  C   UNL     1      -9.671   5.052  69.480  1.00  0.00    -0.189 A  
HETATM   21  C   UNL     1      -9.771   6.186  68.671  1.00  0.00    -0.145 A  
HETATM   22  F   UNL     1      -9.765   5.187  70.809  1.00  0.00    -0.195 F  
HETATM   23  C   UNL     1      -9.481   3.798  68.913  1.00  0.00    -0.153 A  
HETATM   24  C   UNL     1      -9.489   4.795  66.727  1.00  0.00    -0.163 A  
HETATM   25  F   UNL     1      -9.383   2.715  69.694  1.00  0.00    -0.169 F  
HETATM   26  C   UNL     1      -9.386   3.661  67.537  1.00  0.00    -0.244 A  
ENDBRANCH  17  19
ENDBRANCH  14  16
ENDBRANCH  10  14
BRANCH  13  27
HETATM   27  C   UNL     1     -12.404  14.889  69.030  1.00  0.00    -0.034 C  
HETATM   28  C   UNL     1     -11.446  16.080  68.862  1.00  0.00    -0.362 C  
HETATM   29  C   UNL     1     -10.391  15.876  69.951  1.00  0.00    -0.281 C  
HETATM   30  H   UNL     1     -13.718  15.518  71.904  1.00  0.00     0.000 HD 
HETATM   31  C   UNL     1     -11.214  15.330  71.144  1.00  0.00    -0.330 C  
HETATM   32  H   UNL     1     -12.042  16.017  72.835  1.00  0.00     0.000 HD 
HETATM   33  O   UNL     1     -13.639  15.592  70.960  1.00  0.00    -0.588 OA 
HETATM   34  C   UNL     1     -12.530  14.768  70.548  1.00  0.00    -0.352 C  
HETATM   35  O   UNL     1     -11.538  16.353  72.103  1.00  0.00    -0.442 OA 
BRANCH  29  36
HETATM   36  O   UNL     1      -9.397  14.920  69.562  1.00  0.00    -0.107 OA 
BRANCH  36  37
HETATM   37  C   UNL     1      -8.530  15.384  68.516  1.00  0.00    -0.163 C  
BRANCH  37  38
HETATM   38  C   UNL     1      -7.278  16.009  69.125  1.00  0.00    -0.208 C  
HETATM   39  H   UNL     1      -6.537  17.813  69.358  1.00  0.00     0.000 HD 
HETATM   40  O   UNL     1      -7.316  17.424  68.979  1.00  0.00    -0.250 OA 
ENDBRANCH  37  38
ENDBRANCH  36  37
ENDBRANCH  29  36
ENDBRANCH  13  27
ENDBRANCH   4   5
ENDBRANCH   3   4
ENDBRANCH   2   3
TORSDOF 10
ENDMDL
MODEL       66
REMARK 921   NORMALIZED FREE ENERGY PREDICTED BY IDOCK:   -5.59 KCAL/MOL
REMARK 922        TOTAL FREE ENERGY PREDICTED BY IDOCK:  -10.92 KCAL/MOL
REMARK 923 INTER-LIGAND FREE ENERGY PREDICTED BY IDOCK:   -9.57 KCAL/MOL
REMARK 924 INTRA-LIGAND FREE ENERGY PREDICTED BY IDOCK:   -1.34 KCAL/MOL
REMARK 927      BINDING AFFINITY PREDICTED BY RF-SCORE:    0.00 PKD
ROOT
HETATM    1  C   UNL     1      -7.248   7.511  65.930  1.00  0.00    -0.066 C  
HETATM    2  C   UNL     1      -8.312   6.562  65.397  1.00  0.00    -0.140 C  
ENDROOT
BRANCH   2   3
HETATM    3  C   UNL     1      -8.760   5.537  66.445  1.00  0.00    -0.123 C  
BRANCH   3   4
HETATM    4  S   UNL     1     -10.567   5.688  66.686  1.00  0.00    -0.251 SA 
BRANCH   4   5
HETATM    5  C   UNL     1     -10.623   6.957  67.934  1.00  0.00    -0.231 A  
HETATM    6  N   UNL     1     -10.764   6.523  69.207  1.00  0.00    -0.251 NA 
HETATM    7  C   UNL     1     -10.818   7.541  70.082  1.00  0.00    -0.249 A  
HETATM    8  C   UNL     1     -10.742   8.889  69.785  1.00  0.00    -0.225 A  
HETATM    9  N   UNL     1     -10.799   9.623  70.936  1.00  0.00    -0.319 NA 
HETATM   10  C   UNL     1     -10.563   9.246  68.441  1.00  0.00    -0.190 A  
HETATM   11  N   UNL     1     -10.508   8.238  67.523  1.00  0.00    -0.258 NA 
HETATM   12  N   UNL     1     -10.885   8.779  71.959  1.00  0.00    -0.355 NA 
HETATM   13  N   UNL     1     -10.866   7.517  71.453  1.00  0.00    -0.228 NA 
BRANCH  10  14
HETATM   14  N   UNL     1     -10.393  10.596  68.068  1.00  0.00    -0.170 NA 
HETATM   15  H   UNL     1      -9.534  10.910  67.617  1.00  0.00     0.000 HD 
BRANCH  14  16
HETATM   16  C   UNL     1     -11.483  11.535  68.345  1.00  0.00    -0.298 C  
HETATM   17  C   UNL     1     -11.182  12.977  68.694  1.00  0.00    -0.316 C  
HETATM   18  C   UNL     1     -11.815  12.628  67.373  1.00  0.00    -0.393 C  
BRANCH  17  19
HETATM   19  C   UNL     1     -11.955  13.605  69.827  1.00  0.00    -0.404 A  
HETATM   20  C   UNL     1     -13.298  13.478  71.853  1.00  0.00    -0.443 A  
HETATM   21  C   UNL     1     -12.580  12.851  70.832  1.00  0.00    -0.355 A  
HETATM   22  F   UNL     1     -13.872  12.730  72.804  1.00  0.00    -0.552 F  
HETATM   23  C   UNL     1     -13.411  14.862  71.884  1.00  0.00    -0.380 A  
HETATM   24  C   UNL     1     -12.094  15.007  69.881  1.00  0.00    -0.376 A  
HETATM   25  F   UNL     1     -14.102  15.458  72.863  1.00  0.00    -0.535 F  
HETATM   26  C   UNL     1     -12.814  15.634  70.900  1.00  0.00    -0.498 A  
ENDBRANCH  17  19
ENDBRANCH  14  16
ENDBRANCH  10  14
BRANCH  13  27
HETATM   27  C   UNL     1     -10.845   6.420  72.398  1.00  0.00    -0.236 C  
HETATM   28  C   UNL     1     -10.457   6.856  73.821  1.00  0.00    -0.390 C  
HETATM   29  C   UNL     1      -8.928   6.798  73.833  1.00  0.00    -0.159 C  
HETATM   30  H   UNL     1      -9.908   3.338  72.388  1.00  0.00     0.000 HD 
HETATM   31  C   UNL     1      -8.615   5.543  72.978  1.00  0.00    -0.121 C  
HETATM   32  H   UNL     1      -8.150   3.614  73.260  1.00  0.00     0.000 HD 
HETATM   33  O   UNL     1     -10.509   4.053  72.561  1.00  0.00    -0.173 OA 
HETATM   34  C   UNL     1      -9.877   5.271  72.120  1.00  0.00    -0.171 C  
HETATM   35  O   UNL     1      -8.342   4.383  73.784  1.00  0.00    -0.099 OA 
BRANCH  29  36
HETATM   36  O   UNL     1      -8.343   7.959  73.231  1.00  0.00    -0.155 OA 
BRANCH  36  37
HETATM   37  C   UNL     1      -7.222   7.665  72.383  1.00  0.00    -0.077 C  
BRANCH  37  38
HETATM   38  C   UNL     1      -7.237   8.592  71.171  1.00  0.00    -0.076 C  
HETATM   39  H   UNL     1      -6.655  10.419  70.748  1.00  0.00     0.000 HD 
HETATM   40  O   UNL     1      -6.646   9.842  71.503  1.00  0.00    -0.311 OA 
ENDBRANCH  37  38
ENDBRANCH  36  37
ENDBRANCH  29  36
ENDBRANCH  13  27
ENDBRANCH   4   5
ENDBRANCH   3   4
ENDBRANCH   2   3
TORSDOF 10
ENDMDL
MODEL       67
REMARK 921   NORMALIZED FREE ENERGY PREDICTED BY IDOCK:   -5.56 KCAL/MOL
REMARK 922        TOTAL FREE ENERGY PREDICTED BY IDOCK:  -10.87 KCAL/MOL
REMARK 923 INTER-LIGAND FREE ENERGY PREDICTED BY IDOCK:   -9.59 KCAL/MOL
REMARK 924 INTRA-LIGAND FREE ENERGY PREDICTED BY IDOCK:   -1.28 KCAL/MOL
REMARK 927      BINDING AFFINITY PREDICTED BY RF-SCORE:    0.00 PKD
ROOT
HETATM    1  C   UNL     1      -9.459  10.868  63.224  1.00  0.00    -0.347 C  
HETATM    2  C   UNL     1     -10.803  11.579  63.153  1.00  0.00    -0.243 C  
ENDROOT
BRANCH   2   3
HETATM    3  C   UNL     1     -10.863  12.810  64.065  1.00  0.00    -0.424 C  
BRANCH   3   4
HETATM    4  S   UNL     1     -12.442  12.787  64.987  1.00  0.00    -0.453 SA 
BRANCH   4   5
HETATM    5  C   UNL     1     -11.882  12.220  66.578  1.00  0.00    -0.306 A  
HETATM    6  N   UNL     1     -11.241  11.029  66.585  1.00  0.00    -0.253 NA 
HETATM    7  C   UNL     1     -10.869  10.665  67.824  1.00  0.00    -0.286 A  
HETATM    8  C   UNL     1     -11.084  11.374  68.991  1.00  0.00    -0.243 A  
HETATM    9  N   UNL     1     -10.536  10.705  70.050  1.00  0.00    -0.180 NA 
HETATM   10  C   UNL     1     -11.728  12.615  68.885  1.00  0.00    -0.325 A  
HETATM   11  N   UNL     1     -12.123  13.016  67.642  1.00  0.00    -0.285 NA 
HETATM   12  N   UNL     1      -9.958   9.601  69.584  1.00  0.00    -0.206 NA 
HETATM   13  N   UNL     1     -10.129   9.586  68.236  1.00  0.00    -0.176 NA 
BRANCH  10  14
HETATM   14  N   UNL     1     -11.908  13.435  70.019  1.00  0.00    -0.431 NA 
HETATM   15  H   UNL     1     -12.516  13.143  70.784  1.00  0.00     0.000 HD 
BRANCH  14  16
HETATM   16  C   UNL     1     -11.201  14.716  70.070  1.00  0.00    -0.209 C  
HETATM   17  C   UNL     1     -11.687  15.893  69.253  1.00  0.00    -0.360 C  
HETATM   18  C   UNL     1     -11.814  15.901  70.753  1.00  0.00    -0.423 C  
BRANCH  17  19
HETATM   19  C   UNL     1     -10.658  16.716  68.519  1.00  0.00    -0.338 A  
HETATM   20  C   UNL     1      -8.970  17.018  66.792  1.00  0.00    -0.244 A  
HETATM   21  C   UNL     1      -9.923  16.222  67.430  1.00  0.00    -0.249 A  
HETATM   22  F   UNL     1      -8.295  16.521  65.748  1.00  0.00    -0.323 F  
HETATM   23  C   UNL     1      -8.727  18.313  67.232  1.00  0.00    -0.255 A  
HETATM   24  C   UNL     1     -10.385  18.032  68.948  1.00  0.00    -0.244 A  
HETATM   25  F   UNL     1      -7.810  19.071  66.618  1.00  0.00    -0.231 F  
HETATM   26  C   UNL     1      -9.429  18.827  68.311  1.00  0.00    -0.389 A  
ENDBRANCH  17  19
ENDBRANCH  14  16
ENDBRANCH  10  14
BRANCH  13  27
HETATM   27  C   UNL     1      -9.488   8.519  67.496  1.00  0.00    -0.149 C  
HETATM   28  C   UNL     1     -10.463   7.406  67.074  1.00  0.00    -0.404 C  
HETATM   29  C   UNL     1     -10.496   6.455  68.272  1.00  0.00    -0.223 C  
HETATM   30  H   UNL     1      -6.700   6.912  67.645  1.00  0.00     0.000 HD 
HETATM   31  C   UNL     1      -9.028   6.457  68.766  1.00  0.00    -0.126 C  
HETATM   32  H   UNL     1      -7.388   5.317  68.598  1.00  0.00     0.000 HD 
HETATM   33  O   UNL     1      -7.392   7.393  67.207  1.00  0.00    -0.093 OA 
HETATM   34  C   UNL     1      -8.376   7.745  68.201  1.00  0.00    -0.124 C  
HETATM   35  O   UNL     1      -8.288   5.316  68.295  1.00  0.00    -0.097 OA 
BRANCH  29  36
HETATM   36  O   UNL     1     -11.363   6.931  69.310  1.00  0.00    -0.175 OA 
BRANCH  36  37
HETATM   37  C   UNL     1     -11.407   6.073  70.461  1.00  0.00    -0.240 C  
BRANCH  37  38
HETATM   38  C   UNL     1     -11.168   6.896  71.724  1.00  0.00    -0.252 C  
HETATM   39  H   UNL     1     -12.102   8.305  72.724  1.00  0.00     0.000 HD 
HETATM   40  O   UNL     1     -12.251   7.793  71.937  1.00  0.00    -0.288 OA 
ENDBRANCH  37  38
ENDBRANCH  36  37
ENDBRANCH  29  36
ENDBRANCH  13  27
ENDBRANCH   4   5
ENDBRANCH   3   4
ENDBRANCH   2   3
TORSDOF 10
ENDMDL
MODEL       68
REMARK 921   NORMALIZED FREE ENERGY PREDICTED BY IDOCK:   -5.56 KCAL/MOL
REMARK 922        TOTAL FREE ENERGY PREDICTED BY IDOCK:  -10.87 KCAL/MOL
REMARK 923 INTER-LIGAND FREE ENERGY PREDICTED BY IDOCK:   -9.03 KCAL/MOL
REMARK 924 INTRA-LIGAND FREE ENERGY PREDICTED BY IDOCK:   -1.84 KCAL/MOL
REMARK 927      BINDING AFFINITY PREDICTED BY RF-SCORE:    0.00 PKD
ROOT
HETATM    1  C   UNL     1      -5.275  15.412  69.965  1.00  0.00    -0.106 C  
HETATM    2  C   UNL     1      -6.192  15.829  68.823  1.00  0.00    -0.105 C  
ENDROOT
BRANCH   2   3
HETATM    3  C   UNL     1      -6.758  14.628  68.057  1.00  0.00    -0.143 C  
BRANCH   3   4
HETATM    4  S   UNL     1      -6.609  13.135  69.103  1.00  0.00    -0.086 SA 
BRANCH   4   5
HETATM    5  C   UNL     1      -7.796  12.068  68.317  1.00  0.00    -0.145 A  
HETATM    6  N   UNL     1      -7.946  10.845  68.874  1.00  0.00    -0.141 NA 
HETATM    7  C   UNL     1      -8.843  10.096  68.210  1.00  0.00    -0.124 A  
HETATM    8  C   UNL     1      -9.561  10.470  67.090  1.00  0.00    -0.168 A  
HETATM    9  N   UNL     1     -10.400   9.458  66.716  1.00  0.00    -0.248 NA 
HETATM   10  C   UNL     1      -9.366  11.769  66.600  1.00  0.00    -0.198 A  
HETATM   11  N   UNL     1      -8.458  12.557  67.247  1.00  0.00    -0.178 NA 
HETATM   12  N   UNL     1     -10.253   8.460  67.583  1.00  0.00    -0.220 NA 
HETATM   13  N   UNL     1      -9.336   8.851  68.506  1.00  0.00    -0.140 NA 
BRANCH  10  14
HETATM   14  N   UNL     1     -10.122  12.252  65.511  1.00  0.00    -0.255 NA 
HETATM   15  H   UNL     1     -10.150  11.744  64.627  1.00  0.00     0.000 HD 
BRANCH  14  16
HETATM   16  C   UNL     1     -10.866  13.502  65.682  1.00  0.00    -0.287 C  
HETATM   17  C   UNL     1     -10.328  14.798  65.116  1.00  0.00    -0.439 C  
HETATM   18  C   UNL     1     -11.548  14.151  64.515  1.00  0.00    -0.400 C  
BRANCH  17  19
HETATM   19  C   UNL     1     -10.403  16.032  65.982  1.00  0.00    -0.366 A  
HETATM   20  C   UNL     1     -10.653  18.431  66.299  1.00  0.00    -0.311 A  
HETATM   21  C   UNL     1     -10.606  17.318  65.459  1.00  0.00    -0.136 A  
HETATM   22  F   UNL     1     -10.861  19.643  65.770  1.00  0.00    -0.553 F  
HETATM   23  C   UNL     1     -10.490  18.284  67.671  1.00  0.00    -0.411 A  
HETATM   24  C   UNL     1     -10.233  15.913  67.377  1.00  0.00    -0.270 A  
HETATM   25  F   UNL     1     -10.534  19.355  68.473  1.00  0.00    -0.454 F  
HETATM   26  C   UNL     1     -10.277  17.028  68.218  1.00  0.00    -0.326 A  
ENDBRANCH  17  19
ENDBRANCH  14  16
ENDBRANCH  10  14
BRANCH  13  27
HETATM   27  C   UNL     1      -9.088   7.956  69.618  1.00  0.00    -0.153 C  
HETATM   28  C   UNL     1     -10.340   7.181  70.061  1.00  0.00    -0.219 C  
HETATM   29  C   UNL     1     -11.029   8.111  71.060  1.00  0.00    -0.244 C  
HETATM   30  H   UNL     1      -7.375   8.030  72.346  1.00  0.00     0.000 HD 
HETATM   31  C   UNL     1      -9.843   8.750  71.826  1.00  0.00    -0.321 C  
HETATM   32  H   UNL     1      -8.869   8.500  73.559  1.00  0.00     0.000 HD 
HETATM   33  O   UNL     1      -7.682   7.643  71.534  1.00  0.00    -0.081 OA 
HETATM   34  C   UNL     1      -8.595   8.578  70.924  1.00  0.00    -0.158 C  
HETATM   35  O   UNL     1      -9.595   8.108  73.090  1.00  0.00    -0.271 OA 
BRANCH  29  36
HETATM   36  O   UNL     1     -11.794   9.130  70.404  1.00  0.00    -0.171 OA 
BRANCH  36  37
HETATM   37  C   UNL     1     -11.864  10.361  71.140  1.00  0.00    -0.337 C  
BRANCH  37  38
HETATM   38  C   UNL     1     -11.890  11.540  70.170  1.00  0.00    -0.356 C  
HETATM   39  H   UNL     1     -12.354  11.844  68.287  1.00  0.00     0.000 HD 
HETATM   40  O   UNL     1     -12.338  11.111  68.890  1.00  0.00    -0.512 OA 
ENDBRANCH  37  38
ENDBRANCH  36  37
ENDBRANCH  29  36
ENDBRANCH  13  27
ENDBRANCH   4   5
ENDBRANCH   3   4
ENDBRANCH   2   3
TORSDOF 10
ENDMDL
MODEL       69
REMARK 921   NORMALIZED FREE ENERGY PREDICTED BY IDOCK:   -5.53 KCAL/MOL
REMARK 922        TOTAL FREE ENERGY PREDICTED BY IDOCK:  -10.82 KCAL/MOL
REMARK 923 INTER-LIGAND FREE ENERGY PREDICTED BY IDOCK:   -9.61 KCAL/MOL
REMARK 924 INTRA-LIGAND FREE ENERGY PREDICTED BY IDOCK:   -1.21 KCAL/MOL
REMARK 927      BINDING AFFINITY PREDICTED BY RF-SCORE:    0.00 PKD
ROOT
HETATM    1  C   UNL     1     -11.365   6.130  70.844  1.00  0.00    -0.355 C  
HETATM    2  C   UNL     1     -11.988   6.530  72.174  1.00  0.00    -0.334 C  
ENDROOT
BRANCH   2   3
HETATM    3  C   UNL     1     -11.727   7.999  72.525  1.00  0.00    -0.387 C  
BRANCH   3   4
HETATM    4  S   UNL     1     -13.084   9.021  71.847  1.00  0.00    -0.433 SA 
BRANCH   4   5
HETATM    5  C   UNL     1     -12.164  10.136  70.809  1.00  0.00    -0.338 A  
HETATM    6  N   UNL     1     -11.090   9.605  70.183  1.00  0.00    -0.256 NA 
HETATM    7  C   UNL     1     -10.441  10.515  69.437  1.00  0.00    -0.240 A  
HETATM    8  C   UNL     1     -10.779  11.847  69.283  1.00  0.00    -0.045 A  
HETATM    9  N   UNL     1      -9.906  12.452  68.423  1.00  0.00    -0.217 NA 
HETATM   10  C   UNL     1     -11.929  12.304  69.944  1.00  0.00    -0.306 A  
HETATM   11  N   UNL     1     -12.611  11.407  70.714  1.00  0.00    -0.337 NA 
HETATM   12  N   UNL     1      -9.038  11.536  68.006  1.00  0.00    -0.168 NA 
HETATM   13  N   UNL     1      -9.374  10.356  68.591  1.00  0.00    -0.159 NA 
BRANCH  10  14
HETATM   14  N   UNL     1     -12.384  13.627  69.770  1.00  0.00    -0.276 NA 
HETATM   15  H   UNL     1     -13.303  13.816  69.371  1.00  0.00     0.000 HD 
BRANCH  14  16
HETATM   16  C   UNL     1     -11.503  14.724  70.178  1.00  0.00    -0.266 C  
HETATM   17  C   UNL     1     -11.550  16.054  69.456  1.00  0.00    -0.304 C  
HETATM   18  C   UNL     1     -12.059  15.934  70.868  1.00  0.00    -0.414 C  
BRANCH  17  19
HETATM   19  C   UNL     1     -10.240  16.719  69.116  1.00  0.00    -0.306 A  
HETATM   20  C   UNL     1      -8.908  18.643  68.448  1.00  0.00    -0.339 A  
HETATM   21  C   UNL     1     -10.142  18.076  68.770  1.00  0.00    -0.388 A  
HETATM   22  F   UNL     1      -8.847  19.943  68.135  1.00  0.00    -0.358 F  
HETATM   23  C   UNL     1      -7.755  17.868  68.457  1.00  0.00    -0.297 A  
HETATM   24  C   UNL     1      -9.054  15.956  69.109  1.00  0.00    -0.255 A  
HETATM   25  F   UNL     1      -6.574  18.416  68.145  1.00  0.00    -0.200 F  
HETATM   26  C   UNL     1      -7.819  16.523  68.784  1.00  0.00    -0.235 A  
ENDBRANCH  17  19
ENDBRANCH  14  16
ENDBRANCH  10  14
BRANCH  13  27
HETATM   27  C   UNL     1      -8.621   9.181  68.201  1.00  0.00    -0.129 C  
HETATM   28  C   UNL     1      -7.991   9.304  66.803  1.00  0.00    -0.108 C  
HETATM   29  C   UNL     1      -9.087   8.828  65.849  1.00  0.00    -0.218 C  
HETATM   30  H   UNL     1      -8.952   5.989  68.482  1.00  0.00     0.000 HD 
HETATM   31  C   UNL     1      -9.747   7.659  66.622  1.00  0.00    -0.213 C  
HETATM   32  H   UNL     1      -9.671   5.657  66.666  1.00  0.00     0.000 HD 
HETATM   33  O   UNL     1      -8.480   6.812  68.536  1.00  0.00    -0.122 OA 
HETATM   34  C   UNL     1      -9.380   7.858  68.115  1.00  0.00    -0.142 C  
HETATM   35  O   UNL     1      -9.266   6.373  66.192  1.00  0.00    -0.158 OA 
BRANCH  29  36
HETATM   36  O   UNL     1     -10.055   9.853  65.590  1.00  0.00    -0.289 OA 
BRANCH  36  37
HETATM   37  C   UNL     1      -9.901  10.478  64.306  1.00  0.00    -0.338 C  
BRANCH  37  38
HETATM   38  C   UNL     1     -10.943  11.581  64.144  1.00  0.00    -0.366 C  
HETATM   39  H   UNL     1     -11.070  13.507  64.506  1.00  0.00     0.000 HD 
HETATM   40  O   UNL     1     -10.421  12.821  64.607  1.00  0.00    -0.316 OA 
ENDBRANCH  37  38
ENDBRANCH  36  37
ENDBRANCH  29  36
ENDBRANCH  13  27
ENDBRANCH   4   5
ENDBRANCH   3   4
ENDBRANCH   2   3
TORSDOF 10
ENDMDL
MODEL       70
REMARK 921   NORMALIZED FREE ENERGY PREDICTED BY IDOCK:   -5.53 KCAL/MOL
REMARK 922        TOTAL FREE ENERGY PREDICTED BY IDOCK:  -10.82 KCAL/MOL
REMARK 923 INTER-LIGAND FREE ENERGY PREDICTED BY IDOCK:   -9.21 KCAL/MOL
REMARK 924 INTRA-LIGAND FREE ENERGY PREDICTED BY IDOCK:   -1.61 KCAL/MOL
REMARK 927      BINDING AFFINITY PREDICTED BY RF-SCORE:    0.00 PKD
ROOT
HETATM    1  C   UNL     1      -6.308  10.274  65.993  1.00  0.00    -0.102 C  
HETATM    2  C   UNL     1      -5.843   9.639  67.296  1.00  0.00    -0.051 C  
ENDROOT
BRANCH   2   3
HETATM    3  C   UNL     1      -5.907  10.614  68.478  1.00  0.00    -0.040 C  
BRANCH   3   4
HETATM    4  S   UNL     1      -6.628   9.751  69.919  1.00  0.00    -0.084 SA 
BRANCH   4   5
HETATM    5  C   UNL     1      -8.355  10.110  69.683  1.00  0.00    -0.161 A  
HETATM    6  N   UNL     1      -8.642  10.994  68.700  1.00  0.00    -0.154 NA 
HETATM    7  C   UNL     1      -9.962  11.225  68.601  1.00  0.00    -0.204 A  
HETATM    8  C   UNL     1     -10.958  10.660  69.375  1.00  0.00    -0.255 A  
HETATM    9  N   UNL     1     -12.181  11.110  68.961  1.00  0.00    -0.481 NA 
HETATM   10  C   UNL     1     -10.572   9.729  70.350  1.00  0.00    -0.304 A  
HETATM   11  N   UNL     1      -9.237   9.473  70.482  1.00  0.00    -0.253 NA 
HETATM   12  N   UNL     1     -11.991  11.925  67.928  1.00  0.00    -0.577 NA 
HETATM   13  N   UNL     1     -10.655  11.975  67.685  1.00  0.00    -0.206 NA 
BRANCH  10  14
HETATM   14  N   UNL     1     -11.536   9.050  71.124  1.00  0.00    -0.287 NA 
HETATM   15  H   UNL     1     -12.082   9.543  71.829  1.00  0.00     0.000 HD 
BRANCH  14  16
HETATM   16  C   UNL     1     -11.732   7.618  70.888  1.00  0.00    -0.271 C  
HETATM   17  C   UNL     1     -11.018   6.595  71.746  1.00  0.00    -0.276 C  
HETATM   18  C   UNL     1     -12.508   6.782  71.862  1.00  0.00    -0.355 C  
BRANCH  17  19
HETATM   19  C   UNL     1     -10.398   5.405  71.057  1.00  0.00    -0.307 A  
HETATM   20  C   UNL     1      -9.402   3.185  71.067  1.00  0.00    -0.144 A  
HETATM   21  C   UNL     1      -9.985   4.255  71.748  1.00  0.00    -0.254 A  
HETATM   22  F   UNL     1      -9.030   2.097  71.754  1.00  0.00    -0.089 F  
HETATM   23  C   UNL     1      -9.213   3.245  69.693  1.00  0.00    -0.151 A  
HETATM   24  C   UNL     1     -10.186   5.440  69.663  1.00  0.00    -0.345 A  
HETATM   25  F   UNL     1      -8.651   2.217  69.045  1.00  0.00    -0.075 F  
HETATM   26  C   UNL     1      -9.600   4.371  68.983  1.00  0.00    -0.244 A  
ENDBRANCH  17  19
ENDBRANCH  14  16
ENDBRANCH  10  14
BRANCH  13  27
HETATM   27  C   UNL     1     -10.216  12.729  66.529  1.00  0.00    -0.253 C  
HETATM   28  C   UNL     1      -9.143  13.779  66.864  1.00  0.00    -0.253 C  
HETATM   29  C   UNL     1      -9.939  15.018  67.278  1.00  0.00    -0.233 C  
HETATM   30  H   UNL     1     -11.591  14.021  63.917  1.00  0.00     0.000 HD 
HETATM   31  C   UNL     1     -11.149  15.000  66.310  1.00  0.00    -0.334 C  
HETATM   32  H   UNL     1     -11.714  15.877  64.599  1.00  0.00     0.000 HD 
HETATM   33  O   UNL     1     -10.936  13.512  64.381  1.00  0.00    -0.378 OA 
HETATM   34  C   UNL     1     -11.269  13.547  65.783  1.00  0.00    -0.297 C  
HETATM   35  O   UNL     1     -10.972  15.888  65.191  1.00  0.00    -0.398 OA 
BRANCH  29  36
HETATM   36  O   UNL     1     -10.394  14.934  68.634  1.00  0.00    -0.224 OA 
BRANCH  36  37
HETATM   37  C   UNL     1     -11.751  15.369  68.813  1.00  0.00    -0.351 C  
BRANCH  37  38
HETATM   38  C   UNL     1     -12.268  14.893  70.169  1.00  0.00    -0.336 C  
HETATM   39  H   UNL     1     -13.639  15.446  71.461  1.00  0.00     0.000 HD 
HETATM   40  O   UNL     1     -13.318  15.742  70.617  1.00  0.00    -0.486 OA 
ENDBRANCH  37  38
ENDBRANCH  36  37
ENDBRANCH  29  36
ENDBRANCH  13  27
ENDBRANCH   4   5
ENDBRANCH   3   4
ENDBRANCH   2   3
TORSDOF 10
ENDMDL
MODEL       71
REMARK 921   NORMALIZED FREE ENERGY PREDICTED BY IDOCK:   -5.51 KCAL/MOL
REMARK 922        TOTAL FREE ENERGY PREDICTED BY IDOCK:  -10.80 KCAL/MOL
REMARK 923 INTER-LIGAND FREE ENERGY PREDICTED BY IDOCK:   -9.14 KCAL/MOL
REMARK 924 INTRA-LIGAND FREE ENERGY PREDICTED BY IDOCK:   -1.66 KCAL/MOL
REMARK 927      BINDING AFFINITY PREDICTED BY RF-SCORE:    0.00 PKD
ROOT
HETATM    1  C   UNL     1      -6.375  18.148  69.416  1.00  0.00    -0.249 C  
HETATM    2  C   UNL     1      -7.130  17.036  68.700  1.00  0.00    -0.210 C  
ENDROOT
BRANCH   2   3
HETATM    3  C   UNL     1      -6.194  16.085  67.946  1.00  0.00    -0.131 C  
BRANCH   3   4
HETATM    4  S   UNL     1      -5.534  14.848  69.120  1.00  0.00    -0.097 SA 
BRANCH   4   5
HETATM    5  C   UNL     1      -6.554  13.446  68.723  1.00  0.00    -0.102 A  
HETATM    6  N   UNL     1      -7.545  13.673  67.831  1.00  0.00    -0.138 NA 
HETATM    7  C   UNL     1      -8.279  12.571  67.602  1.00  0.00    -0.172 A  
HETATM    8  C   UNL     1      -8.097  11.326  68.174  1.00  0.00    -0.134 A  
HETATM    9  N   UNL     1      -9.015  10.445  67.674  1.00  0.00    -0.137 NA 
HETATM   10  C   UNL     1      -7.024  11.173  69.065  1.00  0.00    -0.101 A  
HETATM   11  N   UNL     1      -6.259  12.273  69.324  1.00  0.00    -0.089 NA 
HETATM   12  N   UNL     1      -9.760  11.090  66.782  1.00  0.00    -0.190 NA 
HETATM   13  N   UNL     1      -9.301  12.368  66.711  1.00  0.00    -0.216 NA 
BRANCH  10  14
HETATM   14  N   UNL     1      -6.724   9.914  69.625  1.00  0.00    -0.052 NA 
HETATM   15  H   UNL     1      -5.927   9.370  69.293  1.00  0.00     0.000 HD 
BRANCH  14  16
HETATM   16  C   UNL     1      -7.585   9.406  70.695  1.00  0.00    -0.144 C  
HETATM   17  C   UNL     1      -8.680   8.407  70.390  1.00  0.00    -0.142 C  
HETATM   18  C   UNL     1      -7.461   7.989  71.169  1.00  0.00    -0.070 C  
BRANCH  17  19
HETATM   19  C   UNL     1     -10.027   8.615  71.035  1.00  0.00    -0.272 A  
HETATM   20  C   UNL     1     -12.094   9.857  71.358  1.00  0.00    -0.413 A  
HETATM   21  C   UNL     1     -10.862   9.699  70.722  1.00  0.00    -0.400 A  
HETATM   22  F   UNL     1     -12.873  10.895  71.027  1.00  0.00    -0.403 F  
HETATM   23  C   UNL     1     -12.511   8.947  72.321  1.00  0.00    -0.369 A  
HETATM   24  C   UNL     1     -10.473   7.711  72.021  1.00  0.00    -0.258 A  
HETATM   25  F   UNL     1     -13.692   9.105  72.930  1.00  0.00    -0.477 F  
HETATM   26  C   UNL     1     -11.704   7.871  72.660  1.00  0.00    -0.398 A  
ENDBRANCH  17  19
ENDBRANCH  14  16
ENDBRANCH  10  14
BRANCH  13  27
HETATM   27  C   UNL     1      -9.901  13.237  65.719  1.00  0.00    -0.197 C  
HETATM   28  C   UNL     1     -10.028  14.695  66.192  1.00  0.00    -0.323 C  
HETATM   29  C   UNL     1     -11.365  14.740  66.933  1.00  0.00    -0.355 C  
HETATM   30  H   UNL     1     -12.302  13.040  63.580  1.00  0.00     0.000 HD 
HETATM   31  C   UNL     1     -12.271  13.810  66.088  1.00  0.00    -0.459 C  
HETATM   32  H   UNL     1     -13.673  13.972  64.665  1.00  0.00     0.000 HD 
HETATM   33  O   UNL     1     -11.419  13.246  63.865  1.00  0.00    -0.394 OA 
HETATM   34  C   UNL     1     -11.321  12.905  65.262  1.00  0.00    -0.300 C  
HETATM   35  O   UNL     1     -13.118  14.542  65.183  1.00  0.00    -0.538 OA 
BRANCH  29  36
HETATM   36  O   UNL     1     -11.254  14.233  68.269  1.00  0.00    -0.255 OA 
BRANCH  36  37
HETATM   37  C   UNL     1     -10.814  15.214  69.222  1.00  0.00    -0.255 C  
BRANCH  37  38
HETATM   38  C   UNL     1     -11.935  15.502  70.218  1.00  0.00    -0.374 C  
HETATM   39  H   UNL     1     -12.392  14.990  72.058  1.00  0.00     0.000 HD 
HETATM   40  O   UNL     1     -11.694  14.812  71.439  1.00  0.00    -0.327 OA 
ENDBRANCH  37  38
ENDBRANCH  36  37
ENDBRANCH  29  36
ENDBRANCH  13  27
ENDBRANCH   4   5
ENDBRANCH   3   4
ENDBRANCH   2   3
TORSDOF 10
ENDMDL
MODEL       72
REMARK 921   NORMALIZED FREE ENERGY PREDICTED BY IDOCK:   -5.51 KCAL/MOL
REMARK 922        TOTAL FREE ENERGY PREDICTED BY IDOCK:  -10.79 KCAL/MOL
REMARK 923 INTER-LIGAND FREE ENERGY PREDICTED BY IDOCK:   -9.28 KCAL/MOL
REMARK 924 INTRA-LIGAND FREE ENERGY PREDICTED BY IDOCK:   -1.51 KCAL/MOL
REMARK 927      BINDING AFFINITY PREDICTED BY RF-SCORE:    0.00 PKD
ROOT
HETATM    1  C   UNL     1      -6.330   8.582  65.822  1.00  0.00    -0.052 C  
HETATM    2  C   UNL     1      -7.300   9.488  65.077  1.00  0.00    -0.110 C  
ENDROOT
BRANCH   2   3
HETATM    3  C   UNL     1      -8.725   8.924  65.051  1.00  0.00    -0.166 C  
BRANCH   3   4
HETATM    4  S   UNL     1      -9.899  10.295  64.755  1.00  0.00    -0.309 SA 
BRANCH   4   5
HETATM    5  C   UNL     1     -10.403  10.658  66.423  1.00  0.00    -0.231 A  
HETATM    6  N   UNL     1     -10.142   9.697  67.338  1.00  0.00    -0.190 NA 
HETATM    7  C   UNL     1     -10.571  10.040  68.564  1.00  0.00    -0.215 A  
HETATM    8  C   UNL     1     -11.207  11.216  68.916  1.00  0.00    -0.256 A  
HETATM    9  N   UNL     1     -11.463  11.222  70.259  1.00  0.00    -0.256 NA 
HETATM   10  C   UNL     1     -11.408  12.170  67.908  1.00  0.00    -0.300 A  
HETATM   11  N   UNL     1     -10.988  11.854  66.648  1.00  0.00    -0.277 NA 
HETATM   12  N   UNL     1     -10.985  10.094  70.774  1.00  0.00    -0.307 NA 
HETATM   13  N   UNL     1     -10.417   9.388  69.761  1.00  0.00    -0.214 NA 
BRANCH  10  14
HETATM   14  N   UNL     1     -11.974  13.427  68.205  1.00  0.00    -0.346 NA 
HETATM   15  H   UNL     1     -12.968  13.600  68.059  1.00  0.00     0.000 HD 
BRANCH  14  16
HETATM   16  C   UNL     1     -11.098  14.478  68.729  1.00  0.00    -0.251 C  
HETATM   17  C   UNL     1     -11.516  15.931  68.657  1.00  0.00    -0.391 C  
HETATM   18  C   UNL     1     -11.458  15.218  69.982  1.00  0.00    -0.317 C  
BRANCH  17  19
HETATM   19  C   UNL     1     -10.483  16.943  68.230  1.00  0.00    -0.352 A  
HETATM   20  C   UNL     1      -9.788  18.939  67.024  1.00  0.00    -0.324 A  
HETATM   21  C   UNL     1     -10.783  18.037  67.405  1.00  0.00    -0.334 A  
HETATM   22  F   UNL     1     -10.111  19.980  66.246  1.00  0.00    -0.470 F  
HETATM   23  C   UNL     1      -8.478  18.761  67.451  1.00  0.00    -0.272 A  
HETATM   24  C   UNL     1      -9.143  16.784  68.641  1.00  0.00    -0.254 A  
HETATM   25  F   UNL     1      -7.527  19.627  67.081  1.00  0.00    -0.235 F  
HETATM   26  C   UNL     1      -8.146  17.684  68.258  1.00  0.00    -0.278 A  
ENDBRANCH  17  19
ENDBRANCH  14  16
ENDBRANCH  10  14
BRANCH  13  27
HETATM   27  C   UNL     1      -9.735   8.158  70.107  1.00  0.00    -0.175 C  
HETATM   28  C   UNL     1     -10.399   6.909  69.504  1.00  0.00    -0.224 C  
HETATM   29  C   UNL     1     -11.468   6.516  70.525  1.00  0.00    -0.387 C  
HETATM   30  H   UNL     1      -8.301   6.931  72.718  1.00  0.00     0.000 HD 
HETATM   31  C   UNL     1     -10.785   6.811  71.884  1.00  0.00    -0.223 C  
HETATM   32  H   UNL     1      -9.816   5.808  73.324  1.00  0.00     0.000 HD 
HETATM   33  O   UNL     1      -8.365   7.151  71.796  1.00  0.00    -0.106 OA 
HETATM   34  C   UNL     1      -9.633   7.805  71.590  1.00  0.00    -0.155 C  
HETATM   35  O   UNL     1     -10.235   5.627  72.491  1.00  0.00    -0.182 OA 
BRANCH  29  36
HETATM   36  O   UNL     1     -12.655   7.309  70.390  1.00  0.00     0.015 OA 
BRANCH  36  37
HETATM   37  C   UNL     1     -13.442   7.374  71.589  1.00  0.00    -0.366 C  
BRANCH  37  38
HETATM   38  C   UNL     1     -14.230   8.682  71.617  1.00  0.00    -0.387 C  
HETATM   39  H   UNL     1     -14.222  10.345  72.660  1.00  0.00     0.000 HD 
HETATM   40  O   UNL     1     -13.731   9.532  72.643  1.00  0.00    -0.382 OA 
ENDBRANCH  37  38
ENDBRANCH  36  37
ENDBRANCH  29  36
ENDBRANCH  13  27
ENDBRANCH   4   5
ENDBRANCH   3   4
ENDBRANCH   2   3
TORSDOF 10
ENDMDL
MODEL       73
REMARK 921   NORMALIZED FREE ENERGY PREDICTED BY IDOCK:   -5.51 KCAL/MOL
REMARK 922        TOTAL FREE ENERGY PREDICTED BY IDOCK:  -10.79 KCAL/MOL
REMARK 923 INTER-LIGAND FREE ENERGY PREDICTED BY IDOCK:   -9.16 KCAL/MOL
REMARK 924 INTRA-LIGAND FREE ENERGY PREDICTED BY IDOCK:   -1.63 KCAL/MOL
REMARK 927      BINDING AFFINITY PREDICTED BY RF-SCORE:    0.00 PKD
ROOT
HETATM    1  C   UNL     1     -10.007  18.968  68.283  1.00  0.00    -0.459 C  
HETATM    2  C   UNL     1     -10.508  17.569  67.948  1.00  0.00    -0.384 C  
ENDROOT
BRANCH   2   3
HETATM    3  C   UNL     1      -9.665  16.890  66.863  1.00  0.00    -0.259 C  
BRANCH   3   4
HETATM    4  S   UNL     1      -8.134  16.240  67.622  1.00  0.00    -0.151 SA 
BRANCH   4   5
HETATM    5  C   UNL     1      -8.482  14.495  67.613  1.00  0.00    -0.182 A  
HETATM    6  N   UNL     1      -9.668  14.135  67.072  1.00  0.00    -0.250 NA 
HETATM    7  C   UNL     1      -9.861  12.806  67.122  1.00  0.00    -0.216 A  
HETATM    8  C   UNL     1      -8.994  11.866  67.646  1.00  0.00    -0.169 A  
HETATM    9  N   UNL     1      -9.517  10.612  67.490  1.00  0.00    -0.153 NA 
HETATM   10  C   UNL     1      -7.771  12.326  68.157  1.00  0.00    -0.138 A  
HETATM   11  N   UNL     1      -7.543  13.671  68.126  1.00  0.00    -0.122 NA 
HETATM   12  N   UNL     1     -10.681  10.728  66.859  1.00  0.00    -0.262 NA 
HETATM   13  N   UNL     1     -10.881  12.048  66.606  1.00  0.00    -0.260 NA 
BRANCH  10  14
HETATM   14  N   UNL     1      -6.800  11.421  68.633  1.00  0.00    -0.072 NA 
HETATM   15  H   UNL     1      -5.969  11.208  68.082  1.00  0.00     0.000 HD 
BRANCH  14  16
HETATM   16  C   UNL     1      -7.016  10.794  69.939  1.00  0.00    -0.123 C  
HETATM   17  C   UNL     1      -7.296   9.310  70.041  1.00  0.00    -0.083 C  
HETATM   18  C   UNL     1      -5.986   9.875  70.524  1.00  0.00    -0.078 C  
BRANCH  17  19
HETATM   19  C   UNL     1      -8.386   8.860  70.981  1.00  0.00    -0.233 A  
HETATM   20  C   UNL     1     -10.663   8.933  71.835  1.00  0.00    -0.356 A  
HETATM   21  C   UNL     1      -9.692   9.370  70.933  1.00  0.00    -0.320 A  
HETATM   22  F   UNL     1     -11.904   9.430  71.754  1.00  0.00    -0.393 F  
HETATM   23  C   UNL     1     -10.348   7.989  72.805  1.00  0.00    -0.339 A  
HETATM   24  C   UNL     1      -8.093   7.910  71.981  1.00  0.00    -0.141 A  
HETATM   25  F   UNL     1     -11.282   7.575  73.670  1.00  0.00    -0.360 F  
HETATM   26  C   UNL     1      -9.063   7.474  72.886  1.00  0.00    -0.211 A  
ENDBRANCH  17  19
ENDBRANCH  14  16
ENDBRANCH  10  14
BRANCH  13  27
HETATM   27  C   UNL     1     -12.049  12.407  65.828  1.00  0.00    -0.311 C  
HETATM   28  C   UNL     1     -12.081  11.740  64.442  1.00  0.00    -0.199 C  
HETATM   29  C   UNL     1     -11.283  12.687  63.545  1.00  0.00    -0.429 C  
HETATM   30  H   UNL     1     -13.783  15.071  65.301  1.00  0.00     0.000 HD 
HETATM   31  C   UNL     1     -11.688  14.090  64.063  1.00  0.00    -0.248 C  
HETATM   32  H   UNL     1     -12.955  15.563  63.569  1.00  0.00     0.000 HD 
HETATM   33  O   UNL     1     -13.661  14.152  65.507  1.00  0.00    -0.568 OA 
HETATM   34  C   UNL     1     -12.244  13.886  65.495  1.00  0.00    -0.444 C  
HETATM   35  O   UNL     1     -12.707  14.703  63.252  1.00  0.00    -0.330 OA 
BRANCH  29  36
HETATM   36  O   UNL     1      -9.870  12.500  63.691  1.00  0.00    -0.323 OA 
BRANCH  36  37
HETATM   37  C   UNL     1      -9.385  11.287  63.095  1.00  0.00    -0.311 C  
BRANCH  37  38
HETATM   38  C   UNL     1      -8.521  10.530  64.100  1.00  0.00    -0.122 C  
HETATM   39  H   UNL     1      -8.470   8.733  64.891  1.00  0.00     0.000 HD 
HETATM   40  O   UNL     1      -9.008   9.204  64.265  1.00  0.00    -0.163 OA 
ENDBRANCH  37  38
ENDBRANCH  36  37
ENDBRANCH  29  36
ENDBRANCH  13  27
ENDBRANCH   4   5
ENDBRANCH   3   4
ENDBRANCH   2   3
TORSDOF 10
ENDMDL
MODEL       74
REMARK 921   NORMALIZED FREE ENERGY PREDICTED BY IDOCK:   -5.50 KCAL/MOL
REMARK 922        TOTAL FREE ENERGY PREDICTED BY IDOCK:  -10.78 KCAL/MOL
REMARK 923 INTER-LIGAND FREE ENERGY PREDICTED BY IDOCK:   -9.33 KCAL/MOL
REMARK 924 INTRA-LIGAND FREE ENERGY PREDICTED BY IDOCK:   -1.45 KCAL/MOL
REMARK 927      BINDING AFFINITY PREDICTED BY RF-SCORE:    0.00 PKD
ROOT
HETATM    1  C   UNL     1     -11.927  12.157  62.869  1.00  0.00     0.167 C  
HETATM    2  C   UNL     1     -10.562  11.632  63.293  1.00  0.00    -0.420 C  
ENDROOT
BRANCH   2   3
HETATM    3  C   UNL     1     -10.336  11.743  64.804  1.00  0.00    -0.288 C  
BRANCH   3   4
HETATM    4  S   UNL     1     -11.788  12.555  65.563  1.00  0.00    -0.432 SA 
BRANCH   4   5
HETATM    5  C   UNL     1     -11.658  11.959  67.235  1.00  0.00    -0.293 A  
HETATM    6  N   UNL     1     -11.379  10.642  67.369  1.00  0.00    -0.416 NA 
HETATM    7  C   UNL     1     -11.318  10.271  68.659  1.00  0.00    -0.166 A  
HETATM    8  C   UNL     1     -11.505  11.084  69.761  1.00  0.00    -0.311 A  
HETATM    9  N   UNL     1     -11.332  10.360  70.908  1.00  0.00    -0.305 NA 
HETATM   10  C   UNL     1     -11.758  12.443  69.528  1.00  0.00    -0.322 A  
HETATM   11  N   UNL     1     -11.831  12.856  68.229  1.00  0.00    -0.342 NA 
HETATM   12  N   UNL     1     -11.017   9.115  70.565  1.00  0.00    -0.245 NA 
HETATM   13  N   UNL     1     -10.976   9.061  69.207  1.00  0.00    -0.104 NA 
BRANCH  10  14
HETATM   14  N   UNL     1     -11.877  13.351  70.601  1.00  0.00    -0.528 NA 
HETATM   15  H   UNL     1     -12.365  13.087  71.457  1.00  0.00     0.000 HD 
BRANCH  14  16
HETATM   16  C   UNL     1     -11.284  14.682  70.454  1.00  0.00    -0.124 C  
HETATM   17  C   UNL     1     -11.892  15.692  69.505  1.00  0.00    -0.387 C  
HETATM   18  C   UNL     1     -11.984  15.893  70.994  1.00  0.00    -0.453 C  
BRANCH  17  19
HETATM   19  C   UNL     1     -10.958  16.490  68.630  1.00  0.00    -0.344 A  
HETATM   20  C   UNL     1      -9.468  18.369  68.219  1.00  0.00    -0.324 A  
HETATM   21  C   UNL     1     -10.313  17.656  69.071  1.00  0.00    -0.272 A  
HETATM   22  F   UNL     1      -8.858  19.471  68.674  1.00  0.00    -0.378 F  
HETATM   23  C   UNL     1      -9.259  17.940  66.914  1.00  0.00    -0.264 A  
HETATM   24  C   UNL     1     -10.732  16.082  67.299  1.00  0.00    -0.295 A  
HETATM   25  F   UNL     1      -8.450  18.629  66.100  1.00  0.00    -0.289 F  
HETATM   26  C   UNL     1      -9.890  16.798  66.445  1.00  0.00    -0.312 A  
ENDBRANCH  17  19
ENDBRANCH  14  16
ENDBRANCH  10  14
BRANCH  13  27
HETATM   27  C   UNL     1     -10.548   7.816  68.603  1.00  0.00    -0.120 C  
HETATM   28  C   UNL     1      -9.093   7.450  68.940  1.00  0.00    -0.136 C  
HETATM   29  C   UNL     1      -8.263   8.166  67.874  1.00  0.00    -0.129 C  
HETATM   30  H   UNL     1     -10.951   6.327  65.774  1.00  0.00     0.000 HD 
HETATM   31  C   UNL     1      -9.130   8.027  66.597  1.00  0.00    -0.163 C  
HETATM   32  H   UNL     1      -9.223   6.865  64.967  1.00  0.00     0.000 HD 
HETATM   33  O   UNL     1     -10.934   6.381  66.723  1.00  0.00    -0.353 OA 
HETATM   34  C   UNL     1     -10.574   7.731  67.078  1.00  0.00    -0.326 C  
HETATM   35  O   UNL     1      -8.692   6.950  65.749  1.00  0.00    -0.152 OA 
BRANCH  29  36
HETATM   36  O   UNL     1      -8.070   9.552  68.187  1.00  0.00    -0.101 OA 
BRANCH  36  37
HETATM   37  C   UNL     1      -7.344  10.273  67.180  1.00  0.00    -0.091 C  
BRANCH  37  38
HETATM   38  C   UNL     1      -7.708  11.754  67.246  1.00  0.00    -0.158 C  
HETATM   39  H   UNL     1      -8.490  12.988  68.559  1.00  0.00     0.000 HD 
HETATM   40  O   UNL     1      -8.263  12.066  68.518  1.00  0.00    -0.153 OA 
ENDBRANCH  37  38
ENDBRANCH  36  37
ENDBRANCH  29  36
ENDBRANCH  13  27
ENDBRANCH   4   5
ENDBRANCH   3   4
ENDBRANCH   2   3
TORSDOF 10
ENDMDL
MODEL       75
REMARK 921   NORMALIZED FREE ENERGY PREDICTED BY IDOCK:   -5.49 KCAL/MOL
REMARK 922        TOTAL FREE ENERGY PREDICTED BY IDOCK:  -10.77 KCAL/MOL
REMARK 923 INTER-LIGAND FREE ENERGY PREDICTED BY IDOCK:   -9.12 KCAL/MOL
REMARK 924 INTRA-LIGAND FREE ENERGY PREDICTED BY IDOCK:   -1.66 KCAL/MOL
REMARK 927      BINDING AFFINITY PREDICTED BY RF-SCORE:    0.00 PKD
ROOT
HETATM    1  C   UNL     1      -7.929   8.373  72.912  1.00  0.00    -0.153 C  
HETATM    2  C   UNL     1      -9.035   7.722  73.731  1.00  0.00    -0.335 C  
ENDROOT
BRANCH   2   3
HETATM    3  C   UNL     1     -10.073   7.014  72.854  1.00  0.00    -0.196 C  
BRANCH   3   4
HETATM    4  S   UNL     1     -11.400   8.200  72.433  1.00  0.00    -0.399 SA 
BRANCH   4   5
HETATM    5  C   UNL     1     -10.933   8.634  70.771  1.00  0.00    -0.245 A  
HETATM    6  N   UNL     1     -10.746   7.597  69.923  1.00  0.00    -0.249 NA 
HETATM    7  C   UNL     1     -10.377   8.009  68.699  1.00  0.00    -0.200 A  
HETATM    8  C   UNL     1     -10.194   9.317  68.289  1.00  0.00    -0.201 A  
HETATM    9  N   UNL     1      -9.851   9.346  66.966  1.00  0.00    -0.187 NA 
HETATM   10  C   UNL     1     -10.442  10.330  69.227  1.00  0.00    -0.228 A  
HETATM   11  N   UNL     1     -10.815   9.948  70.483  1.00  0.00    -0.308 NA 
HETATM   12  N   UNL     1      -9.835   8.095  66.517  1.00  0.00    -0.249 NA 
HETATM   13  N   UNL     1     -10.182   7.284  67.551  1.00  0.00    -0.200 NA 
BRANCH  10  14
HETATM   14  N   UNL     1     -10.357  11.689  68.861  1.00  0.00    -0.340 NA 
HETATM   15  H   UNL     1      -9.536  12.051  68.376  1.00  0.00     0.000 HD 
BRANCH  14  16
HETATM   16  C   UNL     1     -11.479  12.570  69.195  1.00  0.00    -0.305 C  
HETATM   17  C   UNL     1     -11.252  14.049  69.420  1.00  0.00    -0.283 C  
HETATM   18  C   UNL     1     -11.990  13.568  68.199  1.00  0.00    -0.376 C  
BRANCH  17  19
HETATM   19  C   UNL     1     -11.949  14.700  70.589  1.00  0.00    -0.380 A  
HETATM   20  C   UNL     1     -12.060  16.314  72.407  1.00  0.00    -0.513 A  
HETATM   21  C   UNL     1     -11.382  15.753  71.323  1.00  0.00    -0.437 A  
HETATM   22  F   UNL     1     -11.497  17.325  73.079  1.00  0.00    -0.331 F  
HETATM   23  C   UNL     1     -13.307  15.830  72.783  1.00  0.00    -0.547 A  
HETATM   24  C   UNL     1     -13.212  14.226  70.997  1.00  0.00    -0.367 A  
HETATM   25  F   UNL     1     -13.952  16.370  73.824  1.00  0.00    -0.311 F  
HETATM   26  C   UNL     1     -13.890  14.784  72.084  1.00  0.00    -0.578 A  
ENDBRANCH  17  19
ENDBRANCH  14  16
ENDBRANCH  10  14
BRANCH  13  27
HETATM   27  C   UNL     1     -10.332   5.871  67.268  1.00  0.00    -0.226 C  
HETATM   28  C   UNL     1      -9.532   4.975  68.229  1.00  0.00    -0.173 C  
HETATM   29  C   UNL     1      -8.144   4.879  67.594  1.00  0.00    -0.094 C  
HETATM   30  H   UNL     1     -10.498   4.015  64.640  1.00  0.00     0.000 HD 
HETATM   31  C   UNL     1      -8.452   4.809  66.077  1.00  0.00    -0.116 C  
HETATM   32  H   UNL     1      -8.608   3.421  64.640  1.00  0.00     0.000 HD 
HETATM   33  O   UNL     1     -10.777   4.321  65.495  1.00  0.00    -0.198 OA 
HETATM   34  C   UNL     1      -9.882   5.379  65.893  1.00  0.00    -0.043 C  
HETATM   35  O   UNL     1      -8.420   3.463  65.570  1.00  0.00    -0.104 OA 
BRANCH  29  36
HETATM   36  O   UNL     1      -7.344   6.034  67.879  1.00  0.00    -0.080 OA 
BRANCH  36  37
HETATM   37  C   UNL     1      -7.083   6.221  69.278  1.00  0.00    -0.073 C  
BRANCH  37  38
HETATM   38  C   UNL     1      -6.757   7.688  69.549  1.00  0.00    -0.036 C  
HETATM   39  H   UNL     1      -6.199   9.255  68.505  1.00  0.00     0.000 HD 
HETATM   40  O   UNL     1      -6.402   8.342  68.336  1.00  0.00    -0.051 OA 
ENDBRANCH  37  38
ENDBRANCH  36  37
ENDBRANCH  29  36
ENDBRANCH  13  27
ENDBRANCH   4   5
ENDBRANCH   3   4
ENDBRANCH   2   3
TORSDOF 10
ENDMDL
MODEL       76
REMARK 921   NORMALIZED FREE ENERGY PREDICTED BY IDOCK:   -5.48 KCAL/MOL
REMARK 922        TOTAL FREE ENERGY PREDICTED BY IDOCK:  -10.75 KCAL/MOL
REMARK 923 INTER-LIGAND FREE ENERGY PREDICTED BY IDOCK:   -9.63 KCAL/MOL
REMARK 924 INTRA-LIGAND FREE ENERGY PREDICTED BY IDOCK:   -1.12 KCAL/MOL
REMARK 927      BINDING AFFINITY PREDICTED BY RF-SCORE:    0.00 PKD
ROOT
HETATM    1  C   UNL     1      -9.293  17.732  66.252  1.00  0.00    -0.219 C  
HETATM    2  C   UNL     1      -9.548  16.264  65.936  1.00  0.00    -0.336 C  
ENDROOT
BRANCH   2   3
HETATM    3  C   UNL     1     -10.985  15.838  66.258  1.00  0.00    -0.163 C  
BRANCH   3   4
HETATM    4  S   UNL     1     -11.324  14.237  65.442  1.00  0.00    -0.342 SA 
BRANCH   4   5
HETATM    5  C   UNL     1     -11.502  13.180  66.863  1.00  0.00    -0.341 A  
HETATM    6  N   UNL     1     -11.973  13.774  67.983  1.00  0.00    -0.371 NA 
HETATM    7  C   UNL     1     -12.058  12.913  69.012  1.00  0.00    -0.154 A  
HETATM    8  C   UNL     1     -11.724  11.572  68.994  1.00  0.00    -0.335 A  
HETATM    9  N   UNL     1     -11.976  11.014  70.216  1.00  0.00    -0.334 NA 
HETATM   10  C   UNL     1     -11.276  11.032  67.780  1.00  0.00    -0.308 A  
HETATM   11  N   UNL     1     -11.173  11.878  66.714  1.00  0.00    -0.311 NA 
HETATM   12  N   UNL     1     -12.483  11.958  71.003  1.00  0.00    -0.348 NA 
HETATM   13  N   UNL     1     -12.564  13.101  70.272  1.00  0.00    -0.133 NA 
BRANCH  10  14
HETATM   14  N   UNL     1     -10.995   9.655  67.661  1.00  0.00    -0.459 NA 
HETATM   15  H   UNL     1     -11.507   9.072  66.999  1.00  0.00     0.000 HD 
BRANCH  14  16
HETATM   16  C   UNL     1      -9.950   9.083  68.512  1.00  0.00    -0.176 C  
HETATM   17  C   UNL     1     -10.000   7.624  68.912  1.00  0.00    -0.178 C  
HETATM   18  C   UNL     1      -8.951   8.117  67.950  1.00  0.00    -0.133 C  
BRANCH  17  19
HETATM   19  C   UNL     1      -9.690   7.273  70.346  1.00  0.00    -0.172 A  
HETATM   20  C   UNL     1     -10.124   7.394  72.737  1.00  0.00    -0.224 A  
HETATM   21  C   UNL     1     -10.460   7.733  71.425  1.00  0.00    -0.237 A  
HETATM   22  F   UNL     1     -10.886   7.839  73.744  1.00  0.00    -0.340 F  
HETATM   23  C   UNL     1      -9.014   6.599  72.996  1.00  0.00    -0.127 A  
HETATM   24  C   UNL     1      -8.566   6.475  70.639  1.00  0.00    -0.139 A  
HETATM   25  F   UNL     1      -8.695   6.278  74.255  1.00  0.00    -0.117 F  
HETATM   26  C   UNL     1      -8.227   6.137  71.952  1.00  0.00    -0.114 A  
ENDBRANCH  17  19
ENDBRANCH  14  16
ENDBRANCH  10  14
BRANCH  13  27
HETATM   27  C   UNL     1     -13.188  14.249  70.898  1.00  0.00    -0.259 C  
HETATM   28  C   UNL     1     -12.749  15.587  70.280  1.00  0.00    -0.310 C  
HETATM   29  C   UNL     1     -11.475  15.958  71.042  1.00  0.00    -0.418 C  
HETATM   30  H   UNL     1     -13.971  15.145  73.892  1.00  0.00     0.000 HD 
HETATM   31  C   UNL     1     -11.782  15.501  72.490  1.00  0.00    -0.468 C  
HETATM   32  H   UNL     1     -12.400  16.307  74.218  1.00  0.00     0.000 HD 
HETATM   33  O   UNL     1     -14.132  15.012  72.965  1.00  0.00    -0.360 OA 
HETATM   34  C   UNL     1     -12.929  14.463  72.389  1.00  0.00    -0.395 C  
HETATM   35  O   UNL     1     -12.212  16.588  73.330  1.00  0.00    -0.494 OA 
BRANCH  29  36
HETATM   36  O   UNL     1     -10.329  15.259  70.540  1.00  0.00    -0.199 OA 
BRANCH  36  37
HETATM   37  C   UNL     1      -9.607  15.985  69.533  1.00  0.00    -0.200 C  
BRANCH  37  38
HETATM   38  C   UNL     1      -8.262  15.311  69.277  1.00  0.00    -0.244 C  
HETATM   39  H   UNL     1      -6.454  15.860  68.744  1.00  0.00     0.000 HD 
HETATM   40  O   UNL     1      -7.291  16.281  68.903  1.00  0.00    -0.172 OA 
ENDBRANCH  37  38
ENDBRANCH  36  37
ENDBRANCH  29  36
ENDBRANCH  13  27
ENDBRANCH   4   5
ENDBRANCH   3   4
ENDBRANCH   2   3
TORSDOF 10
ENDMDL
MODEL       77
REMARK 921   NORMALIZED FREE ENERGY PREDICTED BY IDOCK:   -5.46 KCAL/MOL
REMARK 922        TOTAL FREE ENERGY PREDICTED BY IDOCK:  -10.71 KCAL/MOL
REMARK 923 INTER-LIGAND FREE ENERGY PREDICTED BY IDOCK:   -9.18 KCAL/MOL
REMARK 924 INTRA-LIGAND FREE ENERGY PREDICTED BY IDOCK:   -1.54 KCAL/MOL
REMARK 927      BINDING AFFINITY PREDICTED BY RF-SCORE:    0.00 PKD
ROOT
HETATM    1  C   UNL     1     -11.951  12.199  63.626  1.00  0.00    -0.628 C  
HETATM    2  C   UNL     1     -12.509  12.661  64.965  1.00  0.00    -0.556 C  
ENDROOT
BRANCH   2   3
HETATM    3  C   UNL     1     -11.581  12.318  66.136  1.00  0.00    -0.390 C  
BRANCH   3   4
HETATM    4  S   UNL     1     -10.654  10.795  65.731  1.00  0.00    -0.075 SA 
BRANCH   4   5
HETATM    5  C   UNL     1      -9.789  10.524  67.263  1.00  0.00    -0.177 A  
HETATM    6  N   UNL     1     -10.111   9.391  67.927  1.00  0.00    -0.183 NA 
HETATM    7  C   UNL     1      -9.430   9.273  69.080  1.00  0.00    -0.155 A  
HETATM    8  C   UNL     1      -8.499  10.163  69.582  1.00  0.00    -0.157 A  
HETATM    9  N   UNL     1      -7.993   9.690  70.761  1.00  0.00    -0.296 NA 
HETATM   10  C   UNL     1      -8.203  11.295  68.810  1.00  0.00    -0.122 A  
HETATM   11  N   UNL     1      -8.879  11.451  67.635  1.00  0.00    -0.137 NA 
HETATM   12  N   UNL     1      -8.558   8.512  71.009  1.00  0.00    -0.143 NA 
HETATM   13  N   UNL     1      -9.405   8.240  69.981  1.00  0.00    -0.161 NA 
BRANCH  10  14
HETATM   14  N   UNL     1      -7.206  12.206  69.216  1.00  0.00    -0.320 NA 
HETATM   15  H   UNL     1      -6.499  11.937  69.900  1.00  0.00     0.000 HD 
BRANCH  14  16
HETATM   16  C   UNL     1      -7.211  13.548  68.630  1.00  0.00    -0.107 C  
HETATM   17  C   UNL     1      -7.533  14.756  69.483  1.00  0.00    -0.120 C  
HETATM   18  C   UNL     1      -6.135  14.535  68.971  1.00  0.00    -0.090 C  
BRANCH  17  19
HETATM   19  C   UNL     1      -8.456  15.801  68.908  1.00  0.00    -0.218 A  
HETATM   20  C   UNL     1      -8.990  18.085  68.260  1.00  0.00    -0.282 A  
HETATM   21  C   UNL     1      -8.095  17.152  68.786  1.00  0.00    -0.252 A  
HETATM   22  F   UNL     1      -8.610  19.364  68.146  1.00  0.00    -0.328 F  
HETATM   23  C   UNL     1     -10.259  17.692  67.856  1.00  0.00    -0.357 A  
HETATM   24  C   UNL     1      -9.753  15.433  68.496  1.00  0.00    -0.204 A  
HETATM   25  F   UNL     1     -11.115  18.592  67.355  1.00  0.00    -0.436 F  
HETATM   26  C   UNL     1     -10.650  16.367  67.973  1.00  0.00    -0.314 A  
ENDBRANCH  17  19
ENDBRANCH  14  16
ENDBRANCH  10  14
BRANCH  13  27
HETATM   27  C   UNL     1     -10.062   6.949  69.985  1.00  0.00    -0.182 C  
HETATM   28  C   UNL     1     -11.594   7.051  70.069  1.00  0.00    -0.226 C  
HETATM   29  C   UNL     1     -11.889   7.123  71.568  1.00  0.00    -0.313 C  
HETATM   30  H   UNL     1      -9.534   4.057  71.304  1.00  0.00     0.000 HD 
HETATM   31  C   UNL     1     -10.849   6.150  72.181  1.00  0.00    -0.247 C  
HETATM   32  H   UNL     1     -10.770   4.259  72.839  1.00  0.00     0.000 HD 
HETATM   33  O   UNL     1      -9.744   4.652  70.594  1.00  0.00    -0.174 OA 
HETATM   34  C   UNL     1      -9.723   5.992  71.127  1.00  0.00    -0.177 C  
HETATM   35  O   UNL     1     -11.407   4.854  72.463  1.00  0.00    -0.125 OA 
BRANCH  29  36
HETATM   36  O   UNL     1     -11.692   8.443  72.091  1.00  0.00    -0.324 OA 
BRANCH  36  37
HETATM   37  C   UNL     1     -12.916   9.125  72.406  1.00  0.00    -0.398 C  
BRANCH  37  38
HETATM   38  C   UNL     1     -12.911  10.511  71.768  1.00  0.00    -0.476 C  
HETATM   39  H   UNL     1     -11.767  11.526  70.537  1.00  0.00     0.000 HD 
HETATM   40  O   UNL     1     -11.770  10.662  70.933  1.00  0.00    -0.328 OA 
ENDBRANCH  37  38
ENDBRANCH  36  37
ENDBRANCH  29  36
ENDBRANCH  13  27
ENDBRANCH   4   5
ENDBRANCH   3   4
ENDBRANCH   2   3
TORSDOF 10
ENDMDL
MODEL       78
REMARK 921   NORMALIZED FREE ENERGY PREDICTED BY IDOCK:   -5.41 KCAL/MOL
REMARK 922        TOTAL FREE ENERGY PREDICTED BY IDOCK:  -10.64 KCAL/MOL
REMARK 923 INTER-LIGAND FREE ENERGY PREDICTED BY IDOCK:   -8.92 KCAL/MOL
REMARK 924 INTRA-LIGAND FREE ENERGY PREDICTED BY IDOCK:   -1.72 KCAL/MOL
REMARK 927      BINDING AFFINITY PREDICTED BY RF-SCORE:    0.00 PKD
ROOT
HETATM    1  C   UNL     1      -9.244   6.815  74.390  1.00  0.00    -0.248 C  
HETATM    2  C   UNL     1      -8.957   5.320  74.411  1.00  0.00    -0.117 C  
ENDROOT
BRANCH   2   3
HETATM    3  C   UNL     1     -10.022   4.508  73.666  1.00  0.00    -0.149 C  
BRANCH   3   4
HETATM    4  S   UNL     1      -9.228   3.626  72.274  1.00  0.00    -0.122 SA 
BRANCH   4   5
HETATM    5  C   UNL     1      -9.901   4.525  70.893  1.00  0.00    -0.199 A  
HETATM    6  N   UNL     1      -9.487   4.121  69.671  1.00  0.00    -0.173 NA 
HETATM    7  C   UNL     1     -10.024   4.862  68.687  1.00  0.00    -0.125 A  
HETATM    8  C   UNL     1     -10.900   5.920  68.837  1.00  0.00    -0.303 A  
HETATM    9  N   UNL     1     -11.256   6.407  67.610  1.00  0.00    -0.280 NA 
HETATM   10  C   UNL     1     -11.301   6.250  70.140  1.00  0.00    -0.406 A  
HETATM   11  N   UNL     1     -10.772   5.520  71.165  1.00  0.00    -0.236 NA 
HETATM   12  N   UNL     1     -10.649   5.672  66.684  1.00  0.00    -0.297 NA 
HETATM   13  N   UNL     1      -9.927   4.716  67.327  1.00  0.00    -0.181 NA 
BRANCH  10  14
HETATM   14  N   UNL     1     -12.256   7.263  70.368  1.00  0.00    -0.567 NA 
HETATM   15  H   UNL     1     -13.242   7.109  70.160  1.00  0.00     0.000 HD 
BRANCH  14  16
HETATM   16  C   UNL     1     -11.795   8.542  70.912  1.00  0.00    -0.217 C  
HETATM   17  C   UNL     1     -12.765   9.476  71.603  1.00  0.00    -0.478 C  
HETATM   18  C   UNL     1     -11.706   8.755  72.394  1.00  0.00    -0.337 C  
BRANCH  17  19
HETATM   19  C   UNL     1     -12.681  10.947  71.280  1.00  0.00    -0.542 A  
HETATM   20  C   UNL     1     -13.188  13.285  71.725  1.00  0.00    -0.405 A  
HETATM   21  C   UNL     1     -13.281  11.936  72.074  1.00  0.00    -0.461 A  
HETATM   22  F   UNL     1     -13.761  14.205  72.511  1.00  0.00    -0.476 F  
HETATM   23  C   UNL     1     -12.505  13.669  70.578  1.00  0.00    -0.324 A  
HETATM   24  C   UNL     1     -12.001  11.366  70.118  1.00  0.00    -0.460 A  
HETATM   25  F   UNL     1     -12.421  14.963  70.247  1.00  0.00    -0.332 F  
HETATM   26  C   UNL     1     -11.911  12.715  69.767  1.00  0.00    -0.379 A  
ENDBRANCH  17  19
ENDBRANCH  14  16
ENDBRANCH  10  14
BRANCH  13  27
HETATM   27  C   UNL     1      -9.256   3.726  66.510  1.00  0.00    -0.167 C  
HETATM   28  C   UNL     1      -7.733   3.701  66.719  1.00  0.00    -0.081 C  
HETATM   29  C   UNL     1      -7.198   4.755  65.749  1.00  0.00    -0.076 C  
HETATM   30  H   UNL     1      -9.513   2.614  63.497  1.00  0.00     0.000 HD 
HETATM   31  C   UNL     1      -8.107   4.586  64.505  1.00  0.00    -0.102 C  
HETATM   32  H   UNL     1      -8.046   3.691  62.713  1.00  0.00     0.000 HD 
HETATM   33  O   UNL     1      -9.431   2.530  64.440  1.00  0.00    -0.138 OA 
HETATM   34  C   UNL     1      -9.388   3.861  64.993  1.00  0.00    -0.158 C  
HETATM   35  O   UNL     1      -7.489   3.794  63.475  1.00  0.00    -0.056 OA 
BRANCH  29  36
HETATM   36  O   UNL     1      -7.329   6.082  66.274  1.00  0.00    -0.078 OA 
BRANCH  36  37
HETATM   37  C   UNL     1      -6.630   6.282  67.513  1.00  0.00    -0.052 C  
BRANCH  37  38
HETATM   38  C   UNL     1      -6.847   7.712  68.001  1.00  0.00    -0.067 C  
HETATM   39  H   UNL     1      -8.338   8.986  68.107  1.00  0.00     0.000 HD 
HETATM   40  O   UNL     1      -8.203   8.096  67.803  1.00  0.00    -0.125 OA 
ENDBRANCH  37  38
ENDBRANCH  36  37
ENDBRANCH  29  36
ENDBRANCH  13  27
ENDBRANCH   4   5
ENDBRANCH   3   4
ENDBRANCH   2   3
TORSDOF 10
ENDMDL
MODEL       79
REMARK 921   NORMALIZED FREE ENERGY PREDICTED BY IDOCK:   -5.41 KCAL/MOL
REMARK 922        TOTAL FREE ENERGY PREDICTED BY IDOCK:  -10.63 KCAL/MOL
REMARK 923 INTER-LIGAND FREE ENERGY PREDICTED BY IDOCK:   -9.30 KCAL/MOL
REMARK 924 INTRA-LIGAND FREE ENERGY PREDICTED BY IDOCK:   -1.33 KCAL/MOL
REMARK 927      BINDING AFFINITY PREDICTED BY RF-SCORE:    0.00 PKD
ROOT
HETATM    1  C   UNL     1      -7.227   4.927  67.129  1.00  0.00    -0.077 C  
HETATM    2  C   UNL     1      -6.989   5.334  65.681  1.00  0.00    -0.066 C  
ENDROOT
BRANCH   2   3
HETATM    3  C   UNL     1      -8.023   6.348  65.180  1.00  0.00    -0.116 C  
BRANCH   3   4
HETATM    4  S   UNL     1      -7.152   7.859  64.629  1.00  0.00    -0.079 SA 
BRANCH   4   5
HETATM    5  C   UNL     1      -7.778   9.041  65.803  1.00  0.00    -0.091 A  
HETATM    6  N   UNL     1      -8.704   9.905  65.329  1.00  0.00    -0.150 NA 
HETATM    7  C   UNL     1      -9.108  10.775  66.271  1.00  0.00    -0.175 A  
HETATM    8  C   UNL     1      -8.673  10.833  67.581  1.00  0.00    -0.126 A  
HETATM    9  N   UNL     1      -9.334  11.827  68.248  1.00  0.00    -0.189 NA 
HETATM   10  C   UNL     1      -7.735   9.876  67.995  1.00  0.00    -0.086 A  
HETATM   11  N   UNL     1      -7.298   8.979  67.064  1.00  0.00    -0.086 NA 
HETATM   12  N   UNL     1     -10.195  12.387  67.403  1.00  0.00    -0.207 NA 
HETATM   13  N   UNL     1     -10.086  11.736  66.215  1.00  0.00    -0.211 NA 
BRANCH  10  14
HETATM   14  N   UNL     1      -7.305   9.818  69.337  1.00  0.00    -0.079 NA 
HETATM   15  H   UNL     1      -6.395  10.187  69.611  1.00  0.00     0.000 HD 
BRANCH  14  16
HETATM   16  C   UNL     1      -8.200   9.214  70.327  1.00  0.00    -0.159 C  
HETATM   17  C   UNL     1      -9.376   8.371  69.885  1.00  0.00    -0.155 C  
HETATM   18  C   UNL     1      -8.191   7.733  70.562  1.00  0.00    -0.120 C  
BRANCH  17  19
HETATM   19  C   UNL     1     -10.697   8.580  70.582  1.00  0.00    -0.251 A  
HETATM   20  C   UNL     1     -12.351   9.976  71.694  1.00  0.00    -0.394 A  
HETATM   21  C   UNL     1     -11.125   9.835  71.041  1.00  0.00    -0.431 A  
HETATM   22  F   UNL     1     -12.736  11.190  72.109  1.00  0.00    -0.435 F  
HETATM   23  C   UNL     1     -13.165   8.871  71.908  1.00  0.00    -0.393 A  
HETATM   24  C   UNL     1     -11.541   7.475  70.820  1.00  0.00    -0.300 A  
HETATM   25  F   UNL     1     -14.338   9.011  72.538  1.00  0.00    -0.486 F  
HETATM   26  C   UNL     1     -12.766   7.616  71.476  1.00  0.00    -0.373 A  
ENDBRANCH  17  19
ENDBRANCH  14  16
ENDBRANCH  10  14
BRANCH  13  27
HETATM   27  C   UNL     1     -11.009  12.111  65.163  1.00  0.00    -0.310 C  
HETATM   28  C   UNL     1     -10.389  13.063  64.127  1.00  0.00    -0.345 C  
HETATM   29  C   UNL     1     -10.607  14.459  64.714  1.00  0.00    -0.393 C  
HETATM   30  H   UNL     1     -14.132  12.869  64.950  1.00  0.00     0.000 HD 
HETATM   31  C   UNL     1     -12.010  14.355  65.363  1.00  0.00    -0.369 C  
HETATM   32  H   UNL     1     -13.905  14.837  64.923  1.00  0.00     0.000 HD 
HETATM   33  O   UNL     1     -13.339  12.414  64.694  1.00  0.00    -0.778 OA 
HETATM   34  C   UNL     1     -12.284  12.844  65.577  1.00  0.00    -0.474 C  
HETATM   35  O   UNL     1     -13.045  14.901  64.525  1.00  0.00    -0.220 OA 
BRANCH  29  36
HETATM   36  O   UNL     1      -9.628  14.779  65.712  1.00  0.00    -0.316 OA 
BRANCH  36  37
HETATM   37  C   UNL     1     -10.067  15.775  66.648  1.00  0.00    -0.279 C  
BRANCH  37  38
HETATM   38  C   UNL     1      -9.455  17.126  66.286  1.00  0.00    -0.243 C  
HETATM   39  H   UNL     1      -9.908  19.022  66.521  1.00  0.00     0.000 HD 
HETATM   40  O   UNL     1     -10.289  18.182  66.747  1.00  0.00    -0.344 OA 
ENDBRANCH  37  38
ENDBRANCH  36  37
ENDBRANCH  29  36
ENDBRANCH  13  27
ENDBRANCH   4   5
ENDBRANCH   3   4
ENDBRANCH   2   3
TORSDOF 10
ENDMDL
MODEL       80
REMARK 921   NORMALIZED FREE ENERGY PREDICTED BY IDOCK:   -5.38 KCAL/MOL
REMARK 922        TOTAL FREE ENERGY PREDICTED BY IDOCK:  -10.59 KCAL/MOL
REMARK 923 INTER-LIGAND FREE ENERGY PREDICTED BY IDOCK:   -8.91 KCAL/MOL
REMARK 924 INTRA-LIGAND FREE ENERGY PREDICTED BY IDOCK:   -1.68 KCAL/MOL
REMARK 927      BINDING AFFINITY PREDICTED BY RF-SCORE:    0.00 PKD
ROOT
HETATM    1  C   UNL     1      -7.040  10.792  68.842  1.00  0.00    -0.082 C  
HETATM    2  C   UNL     1      -5.684  10.137  68.612  1.00  0.00    -0.038 C  
ENDROOT
BRANCH   2   3
HETATM    3  C   UNL     1      -5.468   8.910  69.504  1.00  0.00    -0.034 C  
BRANCH   3   4
HETATM    4  S   UNL     1      -5.361   7.421  68.447  1.00  0.00    -0.023 SA 
BRANCH   4   5
HETATM    5  C   UNL     1      -7.042   7.307  67.876  1.00  0.00    -0.085 A  
HETATM    6  N   UNL     1      -7.948   6.896  68.793  1.00  0.00    -0.118 NA 
HETATM    7  C   UNL     1      -9.186   6.817  68.277  1.00  0.00    -0.122 A  
HETATM    8  C   UNL     1      -9.558   7.107  66.977  1.00  0.00    -0.159 A  
HETATM    9  N   UNL     1     -10.907   6.943  66.832  1.00  0.00    -0.354 NA 
HETATM   10  C   UNL     1      -8.558   7.558  66.103  1.00  0.00    -0.149 A  
HETATM   11  N   UNL     1      -7.287   7.647  66.592  1.00  0.00    -0.086 NA 
HETATM   12  N   UNL     1     -11.407   6.580  68.009  1.00  0.00    -0.144 NA 
HETATM   13  N   UNL     1     -10.377   6.531  68.894  1.00  0.00    -0.181 NA 
BRANCH  10  14
HETATM   14  N   UNL     1      -8.874   7.953  64.786  1.00  0.00    -0.359 NA 
HETATM   15  H   UNL     1      -9.092   7.260  64.071  1.00  0.00     0.000 HD 
BRANCH  14  16
HETATM   16  C   UNL     1      -8.879   9.383  64.472  1.00  0.00    -0.198 C  
HETATM   17  C   UNL     1      -9.314  10.395  65.511  1.00  0.00    -0.244 C  
HETATM   18  C   UNL     1      -7.871  10.305  65.090  1.00  0.00    -0.138 C  
BRANCH  17  19
HETATM   19  C   UNL     1     -10.224  11.514  65.070  1.00  0.00    -0.328 A  
HETATM   20  C   UNL     1     -12.047  12.410  63.732  1.00  0.00    -0.529 A  
HETATM   21  C   UNL     1     -11.240  11.339  64.119  1.00  0.00    -0.222 A  
HETATM   22  F   UNL     1     -13.017  12.207  62.831  1.00  0.00    -0.492 F  
HETATM   23  C   UNL     1     -11.850  13.673  64.277  1.00  0.00    -0.425 A  
HETATM   24  C   UNL     1     -10.042  12.808  65.601  1.00  0.00    -0.281 A  
HETATM   25  F   UNL     1     -12.625  14.697  63.900  1.00  0.00    -0.463 F  
HETATM   26  C   UNL     1     -10.847  13.881  65.211  1.00  0.00    -0.337 A  
ENDBRANCH  17  19
ENDBRANCH  14  16
ENDBRANCH  10  14
BRANCH  13  27
HETATM   27  C   UNL     1     -10.701   6.254  70.279  1.00  0.00    -0.280 C  
HETATM   28  C   UNL     1     -11.997   6.940  70.744  1.00  0.00    -0.424 C  
HETATM   29  C   UNL     1     -11.549   8.328  71.204  1.00  0.00    -0.279 C  
HETATM   30  H   UNL     1      -9.085   5.976  73.052  1.00  0.00     0.000 HD 
HETATM   31  C   UNL     1     -10.184   8.052  71.884  1.00  0.00    -0.214 C  
HETATM   32  H   UNL     1      -9.454   7.800  73.733  1.00  0.00     0.000 HD 
HETATM   33  O   UNL     1      -9.715   5.706  72.393  1.00  0.00    -0.156 OA 
HETATM   34  C   UNL     1      -9.689   6.689  71.338  1.00  0.00    -0.172 C  
HETATM   35  O   UNL     1     -10.290   7.968  73.317  1.00  0.00    -0.301 OA 
BRANCH  29  36
HETATM   36  O   UNL     1     -11.375   9.227  70.102  1.00  0.00    -0.240 OA 
BRANCH  36  37
HETATM   37  C   UNL     1     -11.776  10.576  70.391  1.00  0.00    -0.344 C  
BRANCH  37  38
HETATM   38  C   UNL     1     -11.350  11.495  69.249  1.00  0.00    -0.288 C  
HETATM   39  H   UNL     1     -11.697  11.653  67.323  1.00  0.00     0.000 HD 
HETATM   40  O   UNL     1     -11.962  11.081  68.034  1.00  0.00    -0.623 OA 
ENDBRANCH  37  38
ENDBRANCH  36  37
ENDBRANCH  29  36
ENDBRANCH  13  27
ENDBRANCH   4   5
ENDBRANCH   3   4
ENDBRANCH   2   3
TORSDOF 10
ENDMDL
MODEL       81
REMARK 921   NORMALIZED FREE ENERGY PREDICTED BY IDOCK:   -5.36 KCAL/MOL
REMARK 922        TOTAL FREE ENERGY PREDICTED BY IDOCK:  -10.55 KCAL/MOL
REMARK 923 INTER-LIGAND FREE ENERGY PREDICTED BY IDOCK:   -9.17 KCAL/MOL
REMARK 924 INTRA-LIGAND FREE ENERGY PREDICTED BY IDOCK:   -1.39 KCAL/MOL
REMARK 927      BINDING AFFINITY PREDICTED BY RF-SCORE:    0.00 PKD
ROOT
HETATM    1  C   UNL     1     -14.357   7.437  71.711  1.00  0.00    -0.586 C  
HETATM    2  C   UNL     1     -14.117   8.916  71.977  1.00  0.00    -0.477 C  
ENDROOT
BRANCH   2   3
HETATM    3  C   UNL     1     -12.747   9.387  71.478  1.00  0.00    -0.361 C  
BRANCH   3   4
HETATM    4  S   UNL     1     -12.985  10.799  70.340  1.00  0.00     0.011 SA 
BRANCH   4   5
HETATM    5  C   UNL     1     -11.536  10.640  69.318  1.00  0.00    -0.275 A  
HETATM    6  N   UNL     1     -11.691  10.990  68.021  1.00  0.00    -0.582 NA 
HETATM    7  C   UNL     1     -10.560  10.822  67.316  1.00  0.00    -0.257 A  
HETATM    8  C   UNL     1      -9.351  10.356  67.797  1.00  0.00    -0.145 A  
HETATM    9  N   UNL     1      -8.421  10.353  66.794  1.00  0.00    -0.124 NA 
HETATM   10  C   UNL     1      -9.272  10.048  69.163  1.00  0.00    -0.190 A  
HETATM   11  N   UNL     1     -10.404  10.203  69.909  1.00  0.00    -0.263 NA 
HETATM   12  N   UNL     1      -9.000  10.828  65.696  1.00  0.00    -0.184 NA 
HETATM   13  N   UNL     1     -10.284  11.142  66.011  1.00  0.00    -0.242 NA 
BRANCH  10  14
HETATM   14  N   UNL     1      -8.051   9.646  69.744  1.00  0.00    -0.136 NA 
HETATM   15  H   UNL     1      -7.349  10.334  70.015  1.00  0.00     0.000 HD 
BRANCH  14  16
HETATM   16  C   UNL     1      -7.817   8.215  69.949  1.00  0.00    -0.104 C  
HETATM   17  C   UNL     1      -7.388   7.335  68.794  1.00  0.00    -0.096 C  
HETATM   18  C   UNL     1      -6.427   7.654  69.909  1.00  0.00    -0.034 C  
BRANCH  17  19
HETATM   19  C   UNL     1      -8.049   5.987  68.649  1.00  0.00    -0.107 A  
HETATM   20  C   UNL     1      -9.493   4.407  67.492  1.00  0.00    -0.166 A  
HETATM   21  C   UNL     1      -8.892   5.664  67.574  1.00  0.00    -0.105 A  
HETATM   22  F   UNL     1     -10.282   4.126  66.447  1.00  0.00    -0.236 F  
HETATM   23  C   UNL     1      -9.272   3.456  68.480  1.00  0.00    -0.171 A  
HETATM   24  C   UNL     1      -7.849   5.005  69.640  1.00  0.00    -0.067 A  
HETATM   25  F   UNL     1      -9.853   2.253  68.397  1.00  0.00    -0.247 F  
HETATM   26  C   UNL     1      -8.454   3.748  69.560  1.00  0.00    -0.095 A  
ENDBRANCH  17  19
ENDBRANCH  14  16
ENDBRANCH  10  14
BRANCH  13  27
HETATM   27  C   UNL     1     -11.085  11.778  64.986  1.00  0.00    -0.284 C  
HETATM   28  C   UNL     1     -10.354  12.932  64.278  1.00  0.00    -0.396 C  
HETATM   29  C   UNL     1     -10.636  14.155  65.152  1.00  0.00    -0.398 C  
HETATM   30  H   UNL     1     -14.166  12.647  64.625  1.00  0.00     0.000 HD 
HETATM   31  C   UNL     1     -12.103  13.938  65.603  1.00  0.00    -0.421 C  
HETATM   32  H   UNL     1     -13.937  14.559  65.089  1.00  0.00     0.000 HD 
HETATM   33  O   UNL     1     -13.349  12.244  64.354  1.00  0.00    -0.786 OA 
HETATM   34  C   UNL     1     -12.398  12.426  65.422  1.00  0.00    -0.237 C  
HETATM   35  O   UNL     1     -13.039  14.692  64.812  1.00  0.00    -0.405 OA 
BRANCH  29  36
HETATM   36  O   UNL     1      -9.774  14.205  66.296  1.00  0.00    -0.284 OA 
BRANCH  36  37
HETATM   37  C   UNL     1     -10.475  14.385  67.537  1.00  0.00    -0.252 C  
BRANCH  37  38
HETATM   38  C   UNL     1      -9.472  14.615  68.665  1.00  0.00    -0.211 C  
HETATM   39  H   UNL     1      -9.492  15.367  70.478  1.00  0.00     0.000 HD 
HETATM   40  O   UNL     1     -10.116  15.224  69.777  1.00  0.00    -0.255 OA 
ENDBRANCH  37  38
ENDBRANCH  36  37
ENDBRANCH  29  36
ENDBRANCH  13  27
ENDBRANCH   4   5
ENDBRANCH   3   4
ENDBRANCH   2   3
TORSDOF 10
ENDMDL
MODEL       82
REMARK 921   NORMALIZED FREE ENERGY PREDICTED BY IDOCK:   -5.36 KCAL/MOL
REMARK 922        TOTAL FREE ENERGY PREDICTED BY IDOCK:  -10.55 KCAL/MOL
REMARK 923 INTER-LIGAND FREE ENERGY PREDICTED BY IDOCK:   -9.97 KCAL/MOL
REMARK 924 INTRA-LIGAND FREE ENERGY PREDICTED BY IDOCK:   -0.58 KCAL/MOL
REMARK 927      BINDING AFFINITY PREDICTED BY RF-SCORE:    0.00 PKD
ROOT
HETATM    1  C   UNL     1      -7.327   4.767  68.271  1.00  0.00    -0.066 C  
HETATM    2  C   UNL     1      -8.353   5.634  67.553  1.00  0.00    -0.100 C  
ENDROOT
BRANCH   2   3
HETATM    3  C   UNL     1      -9.794   5.231  67.884  1.00  0.00    -0.149 C  
BRANCH   3   4
HETATM    4  S   UNL     1     -10.938   6.265  66.902  1.00  0.00    -0.224 SA 
BRANCH   4   5
HETATM    5  C   UNL     1     -10.505   7.885  67.497  1.00  0.00    -0.262 A  
HETATM    6  N   UNL     1     -10.305   8.826  66.546  1.00  0.00    -0.250 NA 
HETATM    7  C   UNL     1      -9.962  10.012  67.077  1.00  0.00    -0.205 A  
HETATM    8  C   UNL     1      -9.817  10.303  68.420  1.00  0.00    -0.156 A  
HETATM    9  N   UNL     1      -9.494  11.622  68.579  1.00  0.00    -0.193 NA 
HETATM   10  C   UNL     1     -10.077   9.275  69.338  1.00  0.00    -0.197 A  
HETATM   11  N   UNL     1     -10.424   8.054  68.834  1.00  0.00    -0.213 NA 
HETATM   12  N   UNL     1      -9.454  12.183  67.374  1.00  0.00    -0.176 NA 
HETATM   13  N   UNL     1      -9.766  11.223  66.464  1.00  0.00    -0.198 NA 
BRANCH  10  14
HETATM   14  N   UNL     1     -10.031   9.516  70.726  1.00  0.00    -0.283 NA 
HETATM   15  H   UNL     1      -9.227   9.225  71.282  1.00  0.00     0.000 HD 
BRANCH  14  16
HETATM   16  C   UNL     1     -11.168  10.195  71.352  1.00  0.00     0.064 C  
HETATM   17  C   UNL     1     -12.208  10.891  70.500  1.00  0.00    -0.459 C  
HETATM   18  C   UNL     1     -12.551   9.627  71.244  1.00  0.00    -0.443 C  
BRANCH  17  19
HETATM   19  C   UNL     1     -12.688  12.251  70.942  1.00  0.00    -0.277 A  
HETATM   20  C   UNL     1     -12.818  14.670  70.714  1.00  0.00    -0.358 A  
HETATM   21  C   UNL     1     -12.363  13.432  70.257  1.00  0.00    -0.354 A  
HETATM   22  F   UNL     1     -12.501  15.777  70.031  1.00  0.00    -0.387 F  
HETATM   23  C   UNL     1     -13.596  14.754  71.862  1.00  0.00    -0.398 A  
HETATM   24  C   UNL     1     -13.472  12.367  72.108  1.00  0.00    -0.481 A  
HETATM   25  F   UNL     1     -14.028  15.944  72.297  1.00  0.00    -0.546 F  
HETATM   26  C   UNL     1     -13.925  13.606  72.567  1.00  0.00    -0.572 A  
ENDBRANCH  17  19
ENDBRANCH  14  16
ENDBRANCH  10  14
BRANCH  13  27
HETATM   27  C   UNL     1      -9.885  11.632  65.079  1.00  0.00    -0.248 C  
HETATM   28  C   UNL     1      -9.663  13.140  64.874  1.00  0.00     0.091 C  
HETATM   29  C   UNL     1     -11.042  13.762  65.098  1.00  0.00    -0.328 C  
HETATM   30  H   UNL     1     -11.787  10.912  62.580  1.00  0.00     0.000 HD 
HETATM   31  C   UNL     1     -12.005  12.728  64.461  1.00  0.00    -0.393 C  
HETATM   32  H   UNL     1     -13.002  12.469  62.742  1.00  0.00     0.000 HD 
HETATM   33  O   UNL     1     -10.953  11.063  63.011  1.00  0.00     0.034 OA 
HETATM   34  C   UNL     1     -11.226  11.390  64.388  1.00  0.00    -0.207 C  
HETATM   35  O   UNL     1     -12.412  13.102  63.132  1.00  0.00    -0.686 OA 
BRANCH  29  36
HETATM   36  O   UNL     1     -11.340  13.915  66.492  1.00  0.00    -0.314 OA 
BRANCH  36  37
HETATM   37  C   UNL     1     -10.816  15.124  67.063  1.00  0.00    -0.314 C  
BRANCH  37  38
HETATM   38  C   UNL     1     -10.768  16.217  65.998  1.00  0.00    -0.241 C  
HETATM   39  H   UNL     1      -9.391  17.271  65.077  1.00  0.00     0.000 HD 
HETATM   40  O   UNL     1      -9.420  16.591  65.740  1.00  0.00    -0.484 OA 
ENDBRANCH  37  38
ENDBRANCH  36  37
ENDBRANCH  29  36
ENDBRANCH  13  27
ENDBRANCH   4   5
ENDBRANCH   3   4
ENDBRANCH   2   3
TORSDOF 10
ENDMDL
MODEL       83
REMARK 921   NORMALIZED FREE ENERGY PREDICTED BY IDOCK:   -5.32 KCAL/MOL
REMARK 922        TOTAL FREE ENERGY PREDICTED BY IDOCK:  -10.49 KCAL/MOL
REMARK 923 INTER-LIGAND FREE ENERGY PREDICTED BY IDOCK:   -8.78 KCAL/MOL
REMARK 924 INTRA-LIGAND FREE ENERGY PREDICTED BY IDOCK:   -1.71 KCAL/MOL
REMARK 927      BINDING AFFINITY PREDICTED BY RF-SCORE:    0.00 PKD
ROOT
HETATM    1  C   UNL     1     -12.086  12.200  63.396  1.00  0.00    -0.608 C  
HETATM    2  C   UNL     1     -12.659  12.607  64.747  1.00  0.00    -0.530 C  
ENDROOT
BRANCH   2   3
HETATM    3  C   UNL     1     -11.742  13.571  65.506  1.00  0.00    -0.340 C  
BRANCH   3   4
HETATM    4  S   UNL     1     -11.977  13.323  67.302  1.00  0.00    -0.301 SA 
BRANCH   4   5
HETATM    5  C   UNL     1     -10.354  12.763  67.769  1.00  0.00    -0.221 A  
HETATM    6  N   UNL     1     -10.314  11.654  68.542  1.00  0.00    -0.207 NA 
HETATM    7  C   UNL     1      -9.055  11.311  68.865  1.00  0.00    -0.053 A  
HETATM    8  C   UNL     1      -7.899  11.966  68.486  1.00  0.00    -0.136 A  
HETATM    9  N   UNL     1      -6.808  11.306  68.978  1.00  0.00    -0.089 NA 
HETATM   10  C   UNL     1      -8.033  13.089  67.656  1.00  0.00    -0.169 A  
HETATM   11  N   UNL     1      -9.298  13.469  67.311  1.00  0.00    -0.224 NA 
HETATM   12  N   UNL     1      -7.237  10.235  69.638  1.00  0.00    -0.123 NA 
HETATM   13  N   UNL     1      -8.594  10.215  69.549  1.00  0.00    -0.171 NA 
BRANCH  10  14
HETATM   14  N   UNL     1      -6.897  13.761  67.160  1.00  0.00    -0.412 NA 
HETATM   15  H   UNL     1      -6.190  13.264  66.619  1.00  0.00     0.000 HD 
BRANCH  14  16
HETATM   16  C   UNL     1      -6.757  15.191  67.442  1.00  0.00    -0.100 C  
HETATM   17  C   UNL     1      -7.514  15.824  68.590  1.00  0.00    -0.151 C  
HETATM   18  C   UNL     1      -6.019  15.662  68.659  1.00  0.00    -0.101 C  
BRANCH  17  19
HETATM   19  C   UNL     1      -8.179  17.156  68.349  1.00  0.00    -0.253 A  
HETATM   20  C   UNL     1     -10.090  18.534  67.741  1.00  0.00    -0.364 A  
HETATM   21  C   UNL     1      -9.524  17.278  67.967  1.00  0.00    -0.271 A  
HETATM   22  F   UNL     1     -11.380  18.616  67.390  1.00  0.00    -0.332 F  
HETATM   23  C   UNL     1      -9.326  19.686  67.882  1.00  0.00    -0.337 A  
HETATM   24  C   UNL     1      -7.426  18.342  68.477  1.00  0.00    -0.300 A  
HETATM   25  F   UNL     1      -9.874  20.887  67.661  1.00  0.00    -0.575 F  
HETATM   26  C   UNL     1      -7.992  19.598  68.247  1.00  0.00    -0.356 A  
ENDBRANCH  17  19
ENDBRANCH  14  16
ENDBRANCH  10  14
BRANCH  13  27
HETATM   27  C   UNL     1      -9.281   9.072  70.113  1.00  0.00    -0.192 C  
HETATM   28  C   UNL     1      -8.504   7.756  69.944  1.00  0.00    -0.132 C  
HETATM   29  C   UNL     1      -8.927   7.238  68.569  1.00  0.00    -0.130 C  
HETATM   30  H   UNL     1     -12.319   8.012  70.274  1.00  0.00     0.000 HD 
HETATM   31  C   UNL     1     -10.431   7.605  68.499  1.00  0.00    -0.174 C  
HETATM   32  H   UNL     1     -12.206   6.718  68.778  1.00  0.00     0.000 HD 
HETATM   33  O   UNL     1     -11.464   8.226  70.628  1.00  0.00    -0.274 OA 
HETATM   34  C   UNL     1     -10.657   8.729  69.544  1.00  0.00    -0.219 C  
HETATM   35  O   UNL     1     -11.285   6.493  68.821  1.00  0.00    -0.293 OA 
BRANCH  29  36
HETATM   36  O   UNL     1      -8.214   7.887  67.509  1.00  0.00    -0.121 OA 
BRANCH  36  37
HETATM   37  C   UNL     1      -9.050   8.275  66.407  1.00  0.00    -0.182 C  
BRANCH  37  38
HETATM   38  C   UNL     1      -8.464   9.509  65.726  1.00  0.00    -0.134 C  
HETATM   39  H   UNL     1      -9.144  11.120  64.832  1.00  0.00     0.000 HD 
HETATM   40  O   UNL     1      -9.509  10.352  65.256  1.00  0.00    -0.199 OA 
ENDBRANCH  37  38
ENDBRANCH  36  37
ENDBRANCH  29  36
ENDBRANCH  13  27
ENDBRANCH   4   5
ENDBRANCH   3   4
ENDBRANCH   2   3
TORSDOF 10
ENDMDL
MODEL       84
REMARK 921   NORMALIZED FREE ENERGY PREDICTED BY IDOCK:   -5.31 KCAL/MOL
REMARK 922        TOTAL FREE ENERGY PREDICTED BY IDOCK:  -10.48 KCAL/MOL
REMARK 923 INTER-LIGAND FREE ENERGY PREDICTED BY IDOCK:   -8.87 KCAL/MOL
REMARK 924 INTRA-LIGAND FREE ENERGY PREDICTED BY IDOCK:   -1.61 KCAL/MOL
REMARK 927      BINDING AFFINITY PREDICTED BY RF-SCORE:    0.00 PKD
ROOT
HETATM    1  C   UNL     1     -11.228   8.907  72.031  1.00  0.00    -0.422 C  
HETATM    2  C   UNL     1     -10.217   9.400  71.006  1.00  0.00    -0.369 C  
ENDROOT
BRANCH   2   3
HETATM    3  C   UNL     1      -8.848   8.728  71.163  1.00  0.00    -0.219 C  
BRANCH   3   4
HETATM    4  S   UNL     1      -7.586   9.753  70.326  1.00  0.00    -0.149 SA 
BRANCH   4   5
HETATM    5  C   UNL     1      -8.394  10.056  68.769  1.00  0.00    -0.121 A  
HETATM    6  N   UNL     1      -8.505  11.354  68.408  1.00  0.00    -0.150 NA 
HETATM    7  C   UNL     1      -9.143  11.496  67.234  1.00  0.00    -0.164 A  
HETATM    8  C   UNL     1      -9.646  10.482  66.441  1.00  0.00    -0.177 A  
HETATM    9  N   UNL     1     -10.198  11.009  65.306  1.00  0.00    -0.270 NA 
HETATM   10  C   UNL     1      -9.456   9.163  66.877  1.00  0.00    -0.171 A  
HETATM   11  N   UNL     1      -8.816   8.981  68.069  1.00  0.00    -0.129 NA 
HETATM   12  N   UNL     1     -10.038  12.328  65.345  1.00  0.00    -0.269 NA 
HETATM   13  N   UNL     1      -9.373  12.627  66.493  1.00  0.00    -0.239 NA 
BRANCH  10  14
HETATM   14  N   UNL     1      -9.868   8.073  66.084  1.00  0.00    -0.467 NA 
HETATM   15  H   UNL     1     -10.198   8.215  65.129  1.00  0.00     0.000 HD 
BRANCH  14  16
HETATM   16  C   UNL     1      -9.808   6.729  66.664  1.00  0.00    -0.152 C  
HETATM   17  C   UNL     1     -10.921   6.233  67.563  1.00  0.00    -0.444 C  
HETATM   18  C   UNL     1     -10.732   5.649  66.187  1.00  0.00    -0.033 C  
BRANCH  17  19
HETATM   19  C   UNL     1     -10.536   5.494  68.820  1.00  0.00    -0.236 A  
HETATM   20  C   UNL     1     -10.558   5.190  71.235  1.00  0.00    -0.133 A  
HETATM   21  C   UNL     1     -10.953   5.898  70.098  1.00  0.00    -0.412 A  
HETATM   22  F   UNL     1     -10.983   5.594  72.438  1.00  0.00    -0.251 F  
HETATM   23  C   UNL     1      -9.737   4.076  71.119  1.00  0.00    -0.187 A  
HETATM   24  C   UNL     1      -9.697   4.364  68.734  1.00  0.00    -0.200 A  
HETATM   25  F   UNL     1      -9.359   3.402  72.212  1.00  0.00    -0.128 F  
HETATM   26  C   UNL     1      -9.299   3.657  69.871  1.00  0.00    -0.246 A  
ENDBRANCH  17  19
ENDBRANCH  14  16
ENDBRANCH  10  14
BRANCH  13  27
HETATM   27  C   UNL     1      -8.994  14.009  66.701  1.00  0.00    -0.154 C  
HETATM   28  C   UNL     1      -9.075  14.442  68.175  1.00  0.00    -0.194 C  
HETATM   29  C   UNL     1     -10.526  14.890  68.361  1.00  0.00    -0.243 C  
HETATM   30  H   UNL     1      -9.436  16.814  65.179  1.00  0.00     0.000 HD 
HETATM   31  C   UNL     1     -10.852  15.597  67.021  1.00  0.00    -0.294 C  
HETATM   32  H   UNL     1     -10.940  17.462  66.293  1.00  0.00     0.000 HD 
HETATM   33  O   UNL     1      -8.923  16.148  65.622  1.00  0.00    -0.370 OA 
HETATM   34  C   UNL     1      -9.819  15.080  65.988  1.00  0.00    -0.319 C  
HETATM   35  O   UNL     1     -10.740  17.029  67.114  1.00  0.00    -0.282 OA 
BRANCH  29  36
HETATM   36  O   UNL     1     -11.409  13.778  68.555  1.00  0.00    -0.251 OA 
BRANCH  36  37
HETATM   37  C   UNL     1     -12.008  13.741  69.860  1.00  0.00    -0.347 C  
BRANCH  37  38
HETATM   38  C   UNL     1     -11.867  15.106  70.530  1.00  0.00    -0.318 C  
HETATM   39  H   UNL     1     -11.756  15.807  72.361  1.00  0.00     0.000 HD 
HETATM   40  O   UNL     1     -11.844  14.957  71.944  1.00  0.00    -0.360 OA 
ENDBRANCH  37  38
ENDBRANCH  36  37
ENDBRANCH  29  36
ENDBRANCH  13  27
ENDBRANCH   4   5
ENDBRANCH   3   4
ENDBRANCH   2   3
TORSDOF 10
ENDMDL
MODEL       85
REMARK 921   NORMALIZED FREE ENERGY PREDICTED BY IDOCK:   -5.27 KCAL/MOL
REMARK 922        TOTAL FREE ENERGY PREDICTED BY IDOCK:  -10.41 KCAL/MOL
REMARK 923 INTER-LIGAND FREE ENERGY PREDICTED BY IDOCK:   -8.99 KCAL/MOL
REMARK 924 INTRA-LIGAND FREE ENERGY PREDICTED BY IDOCK:   -1.43 KCAL/MOL
REMARK 927      BINDING AFFINITY PREDICTED BY RF-SCORE:    0.00 PKD
ROOT
HETATM    1  C   UNL     1      -6.560   7.603  65.620  1.00  0.00    -0.045 C  
HETATM    2  C   UNL     1      -6.710   7.976  64.152  1.00  0.00    -0.065 C  
ENDROOT
BRANCH   2   3
HETATM    3  C   UNL     1      -8.111   8.502  63.822  1.00  0.00    -0.154 C  
BRANCH   3   4
HETATM    4  S   UNL     1      -8.075  10.330  63.828  1.00  0.00    -0.111 SA 
BRANCH   4   5
HETATM    5  C   UNL     1      -9.321  10.676  65.050  1.00  0.00    -0.217 A  
HETATM    6  N   UNL     1      -9.083  10.184  66.287  1.00  0.00    -0.151 NA 
HETATM    7  C   UNL     1     -10.079  10.471  67.143  1.00  0.00    -0.209 A  
HETATM    8  C   UNL     1     -11.231  11.180  66.859  1.00  0.00    -0.186 A  
HETATM    9  N   UNL     1     -11.993  11.301  67.987  1.00  0.00    -0.641 NA 
HETATM   10  C   UNL     1     -11.379  11.682  65.558  1.00  0.00    -0.160 A  
HETATM   11  N   UNL     1     -10.388  11.406  64.660  1.00  0.00    -0.286 NA 
HETATM   12  N   UNL     1     -11.345  10.709  68.986  1.00  0.00    -0.263 NA 
HETATM   13  N   UNL     1     -10.173  10.232  68.490  1.00  0.00    -0.165 NA 
BRANCH  10  14
HETATM   14  N   UNL     1     -12.486  12.485  65.214  1.00  0.00    -0.647 NA 
HETATM   15  H   UNL     1     -13.349  12.065  64.869  1.00  0.00     0.000 HD 
BRANCH  14  16
HETATM   16  C   UNL     1     -12.365  13.937  65.365  1.00  0.00    -0.470 C  
HETATM   17  C   UNL     1     -11.004  14.598  65.352  1.00  0.00    -0.358 C  
HETATM   18  C   UNL     1     -11.959  14.794  64.204  1.00  0.00    -0.282 C  
BRANCH  17  19
HETATM   19  C   UNL     1     -10.731  15.671  66.377  1.00  0.00    -0.291 A  
HETATM   20  C   UNL     1      -9.753  17.787  67.075  1.00  0.00    -0.290 A  
HETATM   21  C   UNL     1      -9.993  16.829  66.088  1.00  0.00    -0.345 A  
HETATM   22  F   UNL     1      -9.056  18.887  66.764  1.00  0.00    -0.275 F  
HETATM   23  C   UNL     1     -10.236  17.604  68.365  1.00  0.00    -0.381 A  
HETATM   24  C   UNL     1     -11.202  15.509  67.696  1.00  0.00    -0.291 A  
HETATM   25  F   UNL     1     -10.001  18.524  69.308  1.00  0.00    -0.351 F  
HETATM   26  C   UNL     1     -10.959  16.465  68.684  1.00  0.00    -0.345 A  
ENDBRANCH  17  19
ENDBRANCH  14  16
ENDBRANCH  10  14
BRANCH  13  27
HETATM   27  C   UNL     1      -9.248   9.631  69.429  1.00  0.00    -0.189 C  
HETATM   28  C   UNL     1      -8.341   8.568  68.787  1.00  0.00    -0.122 C  
HETATM   29  C   UNL     1      -9.152   7.274  68.872  1.00  0.00    -0.132 C  
HETATM   30  H   UNL     1      -9.335   8.641  72.493  1.00  0.00     0.000 HD 
HETATM   31  C   UNL     1      -9.855   7.387  70.248  1.00  0.00    -0.187 C  
HETATM   32  H   UNL     1      -9.605   6.714  72.120  1.00  0.00     0.000 HD 
HETATM   33  O   UNL     1      -8.965   9.101  71.749  1.00  0.00    -0.345 OA 
HETATM   34  C   UNL     1      -9.844   8.890  70.625  1.00  0.00    -0.212 C  
HETATM   35  O   UNL     1      -9.173   6.645  71.276  1.00  0.00    -0.154 OA 
BRANCH  29  36
HETATM   36  O   UNL     1     -10.130   7.185  67.828  1.00  0.00    -0.154 OA 
BRANCH  36  37
HETATM   37  C   UNL     1     -10.875   5.957  67.841  1.00  0.00    -0.233 C  
BRANCH  37  38
HETATM   38  C   UNL     1     -10.819   5.307  66.462  1.00  0.00    -0.121 C  
HETATM   39  H   UNL     1      -9.487   5.060  65.039  1.00  0.00     0.000 HD 
HETATM   40  O   UNL     1      -9.522   5.465  65.898  1.00  0.00    -0.160 OA 
ENDBRANCH  37  38
ENDBRANCH  36  37
ENDBRANCH  29  36
ENDBRANCH  13  27
ENDBRANCH   4   5
ENDBRANCH   3   4
ENDBRANCH   2   3
TORSDOF 10
ENDMDL
MODEL       86
REMARK 921   NORMALIZED FREE ENERGY PREDICTED BY IDOCK:   -5.27 KCAL/MOL
REMARK 922        TOTAL FREE ENERGY PREDICTED BY IDOCK:  -10.41 KCAL/MOL
REMARK 923 INTER-LIGAND FREE ENERGY PREDICTED BY IDOCK:   -8.77 KCAL/MOL
REMARK 924 INTRA-LIGAND FREE ENERGY PREDICTED BY IDOCK:   -1.64 KCAL/MOL
REMARK 927      BINDING AFFINITY PREDICTED BY RF-SCORE:    0.00 PKD
ROOT
HETATM    1  C   UNL     1      -9.424   3.261  67.690  1.00  0.00    -0.214 C  
HETATM    2  C   UNL     1      -8.944   4.029  66.465  1.00  0.00    -0.131 C  
ENDROOT
BRANCH   2   3
HETATM    3  C   UNL     1      -9.658   5.375  66.301  1.00  0.00    -0.160 C  
BRANCH   3   4
HETATM    4  S   UNL     1      -8.421   6.656  65.888  1.00  0.00    -0.144 SA 
BRANCH   4   5
HETATM    5  C   UNL     1      -8.358   7.554  67.423  1.00  0.00    -0.112 A  
HETATM    6  N   UNL     1      -8.691   6.851  68.529  1.00  0.00    -0.125 NA 
HETATM    7  C   UNL     1      -8.638   7.606  69.640  1.00  0.00    -0.136 A  
HETATM    8  C   UNL     1      -8.290   8.941  69.712  1.00  0.00    -0.125 A  
HETATM    9  N   UNL     1      -8.317   9.359  71.014  1.00  0.00    -0.307 NA 
HETATM   10  C   UNL     1      -7.926   9.583  68.519  1.00  0.00    -0.093 A  
HETATM   11  N   UNL     1      -7.973   8.848  67.370  1.00  0.00    -0.101 NA 
HETATM   12  N   UNL     1      -8.648   8.319  71.773  1.00  0.00    -0.146 NA 
HETATM   13  N   UNL     1      -8.813   7.248  70.952  1.00  0.00    -0.148 NA 
BRANCH  10  14
HETATM   14  N   UNL     1      -7.480  10.920  68.524  1.00  0.00    -0.096 NA 
HETATM   15  H   UNL     1      -6.703  11.210  69.117  1.00  0.00     0.000 HD 
BRANCH  14  16
HETATM   16  C   UNL     1      -8.161  11.883  67.656  1.00  0.00    -0.148 C  
HETATM   17  C   UNL     1      -9.626  12.202  67.865  1.00  0.00    -0.198 C  
HETATM   18  C   UNL     1      -8.569  13.228  68.178  1.00  0.00    -0.177 C  
BRANCH  17  19
HETATM   19  C   UNL     1     -10.511  12.289  66.646  1.00  0.00    -0.247 A  
HETATM   20  C   UNL     1     -12.401  13.202  65.414  1.00  0.00    -0.481 A  
HETATM   21  C   UNL     1     -11.601  13.168  66.559  1.00  0.00    -0.402 A  
HETATM   22  F   UNL     1     -13.426  14.061  65.357  1.00  0.00    -0.416 F  
HETATM   23  C   UNL     1     -12.133  12.356  64.345  1.00  0.00    -0.426 A  
HETATM   24  C   UNL     1     -10.268  11.438  65.549  1.00  0.00    -0.312 A  
HETATM   25  F   UNL     1     -12.904  12.391  63.251  1.00  0.00    -0.540 F  
HETATM   26  C   UNL     1     -11.070  11.469  64.405  1.00  0.00    -0.359 A  
ENDBRANCH  17  19
ENDBRANCH  14  16
ENDBRANCH  10  14
BRANCH  13  27
HETATM   27  C   UNL     1      -9.080   5.967  71.574  1.00  0.00    -0.143 C  
HETATM   28  C   UNL     1     -10.446   5.378  71.182  1.00  0.00    -0.295 C  
HETATM   29  C   UNL     1     -11.425   5.987  72.187  1.00  0.00    -0.302 C  
HETATM   30  H   UNL     1      -8.600   4.621  74.461  1.00  0.00     0.000 HD 
HETATM   31  C   UNL     1     -10.611   6.009  73.506  1.00  0.00    -0.268 C  
HETATM   32  H   UNL     1     -10.426   4.912  75.173  1.00  0.00     0.000 HD 
HETATM   33  O   UNL     1      -8.577   4.650  73.512  1.00  0.00    -0.101 OA 
HETATM   34  C   UNL     1      -9.117   5.922  73.101  1.00  0.00    -0.130 C  
HETATM   35  O   UNL     1     -10.925   4.898  74.365  1.00  0.00    -0.311 OA 
BRANCH  29  36
HETATM   36  O   UNL     1     -11.806   7.320  71.824  1.00  0.00    -0.273 OA 
BRANCH  36  37
HETATM   37  C   UNL     1     -13.209   7.462  71.550  1.00  0.00    -0.372 C  
BRANCH  37  38
HETATM   38  C   UNL     1     -13.708   8.794  72.105  1.00  0.00    -0.447 C  
HETATM   39  H   UNL     1     -13.066  10.647  72.198  1.00  0.00     0.000 HD 
HETATM   40  O   UNL     1     -12.755   9.819  71.852  1.00  0.00    -0.384 OA 
ENDBRANCH  37  38
ENDBRANCH  36  37
ENDBRANCH  29  36
ENDBRANCH  13  27
ENDBRANCH   4   5
ENDBRANCH   3   4
ENDBRANCH   2   3
TORSDOF 10
ENDMDL
MODEL       87
REMARK 921   NORMALIZED FREE ENERGY PREDICTED BY IDOCK:   -5.23 KCAL/MOL
REMARK 922        TOTAL FREE ENERGY PREDICTED BY IDOCK:  -10.35 KCAL/MOL
REMARK 923 INTER-LIGAND FREE ENERGY PREDICTED BY IDOCK:   -9.32 KCAL/MOL
REMARK 924 INTRA-LIGAND FREE ENERGY PREDICTED BY IDOCK:   -1.04 KCAL/MOL
REMARK 927      BINDING AFFINITY PREDICTED BY RF-SCORE:    0.00 PKD
ROOT
HETATM    1  C   UNL     1      -5.716   8.394  65.014  1.00  0.00    -0.044 C  
HETATM    2  C   UNL     1      -6.926   7.901  64.232  1.00  0.00    -0.068 C  
ENDROOT
BRANCH   2   3
HETATM    3  C   UNL     1      -8.198   8.690  64.561  1.00  0.00    -0.164 C  
BRANCH   3   4
HETATM    4  S   UNL     1      -7.725  10.294  65.301  1.00  0.00    -0.128 SA 
BRANCH   4   5
HETATM    5  C   UNL     1      -9.112  10.577  66.378  1.00  0.00    -0.162 A  
HETATM    6  N   UNL     1      -9.024  10.022  67.609  1.00  0.00    -0.131 NA 
HETATM    7  C   UNL     1     -10.118  10.265  68.350  1.00  0.00    -0.159 A  
HETATM    8  C   UNL     1     -11.231  10.988  67.964  1.00  0.00    -0.309 A  
HETATM    9  N   UNL     1     -12.126  11.051  68.996  1.00  0.00    -0.474 NA 
HETATM   10  C   UNL     1     -11.223  11.556  66.682  1.00  0.00    -0.271 A  
HETATM   11  N   UNL     1     -10.129  11.326  65.899  1.00  0.00    -0.235 NA 
HETATM   12  N   UNL     1     -11.601  10.408  70.035  1.00  0.00    -0.280 NA 
HETATM   13  N   UNL     1     -10.374   9.957  69.662  1.00  0.00    -0.224 NA 
BRANCH  10  14
HETATM   14  N   UNL     1     -12.285  12.375  66.247  1.00  0.00    -0.583 NA 
HETATM   15  H   UNL     1     -13.194  11.974  66.015  1.00  0.00     0.000 HD 
BRANCH  14  16
HETATM   16  C   UNL     1     -12.051  13.817  66.137  1.00  0.00    -0.441 C  
HETATM   17  C   UNL     1     -10.700  14.343  65.702  1.00  0.00    -0.326 C  
HETATM   18  C   UNL     1     -11.896  14.466  64.795  1.00  0.00    -0.439 C  
BRANCH  17  19
HETATM   19  C   UNL     1     -10.124  15.517  66.453  1.00  0.00    -0.301 A  
HETATM   20  C   UNL     1      -8.484  17.289  66.756  1.00  0.00    -0.247 A  
HETATM   21  C   UNL     1      -8.989  16.217  66.018  1.00  0.00    -0.325 A  
HETATM   22  F   UNL     1      -7.406  17.944  66.306  1.00  0.00    -0.238 F  
HETATM   23  C   UNL     1      -9.094  17.675  67.943  1.00  0.00    -0.260 A  
HETATM   24  C   UNL     1     -10.718  15.926  67.665  1.00  0.00    -0.312 A  
HETATM   25  F   UNL     1      -8.605  18.701  68.649  1.00  0.00    -0.327 F  
HETATM   26  C   UNL     1     -10.211  16.996  68.406  1.00  0.00    -0.331 A  
ENDBRANCH  17  19
ENDBRANCH  14  16
ENDBRANCH  10  14
BRANCH  13  27
HETATM   27  C   UNL     1      -9.567   9.309  70.674  1.00  0.00    -0.273 C  
HETATM   28  C   UNL     1      -8.838   8.058  70.156  1.00  0.00    -0.143 C  
HETATM   29  C   UNL     1      -9.849   6.925  70.343  1.00  0.00    -0.179 C  
HETATM   30  H   UNL     1      -9.839   8.645  73.815  1.00  0.00     0.000 HD 
HETATM   31  C   UNL     1     -10.536   7.280  71.686  1.00  0.00    -0.198 C  
HETATM   32  H   UNL     1     -10.414   6.760  73.617  1.00  0.00     0.000 HD 
HETATM   33  O   UNL     1      -9.393   8.967  73.040  1.00  0.00    -0.107 OA 
HETATM   34  C   UNL     1     -10.284   8.792  71.920  1.00  0.00    -0.345 C  
HETATM   35  O   UNL     1      -9.992   6.541  72.795  1.00  0.00    -0.169 OA 
BRANCH  29  36
HETATM   36  O   UNL     1     -10.819   6.893  69.289  1.00  0.00    -0.233 OA 
BRANCH  36  37
HETATM   37  C   UNL     1     -10.724   5.730  68.453  1.00  0.00    -0.209 C  
BRANCH  37  38
HETATM   38  C   UNL     1     -10.931   6.127  66.994  1.00  0.00    -0.330 C  
HETATM   39  H   UNL     1     -10.875   7.775  65.928  1.00  0.00     0.000 HD 
HETATM   40  O   UNL     1     -10.745   7.528  66.836  1.00  0.00    -0.352 OA 
ENDBRANCH  37  38
ENDBRANCH  36  37
ENDBRANCH  29  36
ENDBRANCH  13  27
ENDBRANCH   4   5
ENDBRANCH   3   4
ENDBRANCH   2   3
TORSDOF 10
ENDMDL
MODEL       88
REMARK 921   NORMALIZED FREE ENERGY PREDICTED BY IDOCK:   -5.22 KCAL/MOL
REMARK 922        TOTAL FREE ENERGY PREDICTED BY IDOCK:  -10.33 KCAL/MOL
REMARK 923 INTER-LIGAND FREE ENERGY PREDICTED BY IDOCK:   -8.90 KCAL/MOL
REMARK 924 INTRA-LIGAND FREE ENERGY PREDICTED BY IDOCK:   -1.44 KCAL/MOL
REMARK 927      BINDING AFFINITY PREDICTED BY RF-SCORE:    0.00 PKD
ROOT
HETATM    1  C   UNL     1      -8.547   9.671  62.953  1.00  0.00    -0.202 C  
HETATM    2  C   UNL     1      -7.488  10.136  63.944  1.00  0.00    -0.121 C  
ENDROOT
BRANCH   2   3
HETATM    3  C   UNL     1      -7.478   9.298  65.227  1.00  0.00    -0.098 C  
BRANCH   3   4
HETATM    4  S   UNL     1      -7.016  10.373  66.632  1.00  0.00    -0.118 SA 
BRANCH   4   5
HETATM    5  C   UNL     1      -8.548  10.401  67.538  1.00  0.00    -0.125 A  
HETATM    6  N   UNL     1      -8.527   9.793  68.746  1.00  0.00    -0.117 NA 
HETATM    7  C   UNL     1      -9.725   9.841  69.354  1.00  0.00    -0.202 A  
HETATM    8  C   UNL     1     -10.876  10.426  68.861  1.00  0.00    -0.236 A  
HETATM    9  N   UNL     1     -11.886  10.305  69.775  1.00  0.00    -0.190 NA 
HETATM   10  C   UNL     1     -10.797  11.062  67.614  1.00  0.00    -0.256 A  
HETATM   11  N   UNL     1      -9.597  11.030  66.966  1.00  0.00    -0.176 NA 
HETATM   12  N   UNL     1     -11.402   9.681  70.844  1.00  0.00    -0.329 NA 
HETATM   13  N   UNL     1     -10.088   9.425  70.609  1.00  0.00    -0.271 NA 
BRANCH  10  14
HETATM   14  N   UNL     1     -11.907  11.752  67.083  1.00  0.00    -0.620 NA 
HETATM   15  H   UNL     1     -12.405  11.393  66.269  1.00  0.00     0.000 HD 
BRANCH  14  16
HETATM   16  C   UNL     1     -12.325  12.997  67.730  1.00  0.00     0.184 C  
HETATM   17  C   UNL     1     -11.311  13.877  68.429  1.00  0.00    -0.316 C  
HETATM   18  C   UNL     1     -11.953  14.326  67.143  1.00  0.00    -0.449 C  
BRANCH  17  19
HETATM   19  C   UNL     1     -11.683  14.456  69.771  1.00  0.00    -0.361 A  
HETATM   20  C   UNL     1     -12.952  14.445  71.847  1.00  0.00    -0.349 A  
HETATM   21  C   UNL     1     -12.630  13.863  70.620  1.00  0.00    -0.405 A  
HETATM   22  F   UNL     1     -13.852  13.847  72.639  1.00  0.00    -0.547 F  
HETATM   23  C   UNL     1     -12.344  15.629  72.245  1.00  0.00    -0.428 A  
HETATM   24  C   UNL     1     -11.087  15.660  70.198  1.00  0.00    -0.347 A  
HETATM   25  F   UNL     1     -12.658  16.184  73.422  1.00  0.00    -0.468 F  
HETATM   26  C   UNL     1     -11.412  16.245  71.425  1.00  0.00    -0.361 A  
ENDBRANCH  17  19
ENDBRANCH  14  16
ENDBRANCH  10  14
BRANCH  13  27
HETATM   27  C   UNL     1      -9.321   8.836  71.688  1.00  0.00    -0.275 C  
HETATM   28  C   UNL     1      -8.068   8.089  71.201  1.00  0.00    -0.098 C  
HETATM   29  C   UNL     1      -8.566   6.678  70.884  1.00  0.00    -0.134 C  
HETATM   30  H   UNL     1      -9.960   7.298  74.446  1.00  0.00     0.000 HD 
HETATM   31  C   UNL     1      -9.602   6.407  72.004  1.00  0.00    -0.150 C  
HETATM   32  H   UNL     1      -9.691   5.456  73.766  1.00  0.00     0.000 HD 
HETATM   33  O   UNL     1      -9.526   7.946  73.904  1.00  0.00    -0.218 OA 
HETATM   34  C   UNL     1     -10.021   7.793  72.559  1.00  0.00    -0.225 C  
HETATM   35  O   UNL     1      -9.056   5.622  73.080  1.00  0.00    -0.123 OA 
BRANCH  29  36
HETATM   36  O   UNL     1      -9.202   6.610  69.602  1.00  0.00    -0.145 OA 
BRANCH  36  37
HETATM   37  C   UNL     1     -10.298   5.683  69.551  1.00  0.00    -0.275 C  
BRANCH  37  38
HETATM   38  C   UNL     1     -11.513   6.356  68.919  1.00  0.00    -0.060 C  
HETATM   39  H   UNL     1     -12.066   6.940  67.128  1.00  0.00     0.000 HD 
HETATM   40  O   UNL     1     -11.310   6.521  67.521  1.00  0.00    -0.284 OA 
ENDBRANCH  37  38
ENDBRANCH  36  37
ENDBRANCH  29  36
ENDBRANCH  13  27
ENDBRANCH   4   5
ENDBRANCH   3   4
ENDBRANCH   2   3
TORSDOF 10
ENDMDL
MODEL       89
REMARK 921   NORMALIZED FREE ENERGY PREDICTED BY IDOCK:   -5.22 KCAL/MOL
REMARK 922        TOTAL FREE ENERGY PREDICTED BY IDOCK:  -10.33 KCAL/MOL
REMARK 923 INTER-LIGAND FREE ENERGY PREDICTED BY IDOCK:   -8.79 KCAL/MOL
REMARK 924 INTRA-LIGAND FREE ENERGY PREDICTED BY IDOCK:   -1.54 KCAL/MOL
REMARK 927      BINDING AFFINITY PREDICTED BY RF-SCORE:    0.00 PKD
ROOT
HETATM    1  C   UNL     1     -12.682  12.920  66.183  1.00  0.00     0.395 C  
HETATM    2  C   UNL     1     -12.071  12.441  64.874  1.00  0.00    -0.470 C  
ENDROOT
BRANCH   2   3
HETATM    3  C   UNL     1     -11.294  13.547  64.151  1.00  0.00    -0.340 C  
BRANCH   3   4
HETATM    4  S   UNL     1     -11.311  15.055  65.185  1.00  0.00    -0.355 SA 
BRANCH   4   5
HETATM    5  C   UNL     1      -9.743  14.900  66.013  1.00  0.00    -0.328 A  
HETATM    6  N   UNL     1      -9.023  16.039  66.127  1.00  0.00    -0.342 NA 
HETATM    7  C   UNL     1      -7.848  15.831  66.745  1.00  0.00    -0.213 A  
HETATM    8  C   UNL     1      -7.373  14.627  67.230  1.00  0.00    -0.090 A  
HETATM    9  N   UNL     1      -6.156  14.812  67.824  1.00  0.00    -0.243 NA 
HETATM   10  C   UNL     1      -8.202  13.503  67.098  1.00  0.00    -0.112 A  
HETATM   11  N   UNL     1      -9.402  13.676  66.472  1.00  0.00    -0.257 NA 
HETATM   12  N   UNL     1      -5.855  16.105  67.751  1.00  0.00    -0.127 NA 
HETATM   13  N   UNL     1      -6.887  16.732  67.127  1.00  0.00    -0.175 NA 
BRANCH  10  14
HETATM   14  N   UNL     1      -7.823  12.258  67.642  1.00  0.00    -0.144 NA 
HETATM   15  H   UNL     1      -7.027  11.744  67.266  1.00  0.00     0.000 HD 
BRANCH  14  16
HETATM   16  C   UNL     1      -8.603  11.722  68.760  1.00  0.00     0.017 C  
HETATM   17  C   UNL     1      -9.984  11.150  68.526  1.00  0.00    -0.204 C  
HETATM   18  C   UNL     1      -8.835  10.247  68.892  1.00  0.00    -0.157 C  
BRANCH  17  19
HETATM   19  C   UNL     1     -11.075  11.516  69.502  1.00  0.00    -0.256 A  
HETATM   20  C   UNL     1     -12.455  13.132  70.687  1.00  0.00    -0.286 A  
HETATM   21  C   UNL     1     -11.449  12.843  69.763  1.00  0.00    -0.203 A  
HETATM   22  F   UNL     1     -12.797  14.408  70.904  1.00  0.00    -0.355 F  
HETATM   23  C   UNL     1     -13.097  12.107  71.371  1.00  0.00    -0.187 A  
HETATM   24  C   UNL     1     -11.739  10.497  70.216  1.00  0.00    -0.420 A  
HETATM   25  F   UNL     1     -14.059  12.390  72.258  1.00  0.00    -0.366 F  
HETATM   26  C   UNL     1     -12.743  10.786  71.144  1.00  0.00    -0.532 A  
ENDBRANCH  17  19
ENDBRANCH  14  16
ENDBRANCH  10  14
BRANCH  13  27
HETATM   27  C   UNL     1      -6.826  18.176  67.025  1.00  0.00    -0.185 C  
HETATM   28  C   UNL     1      -6.959  18.883  68.385  1.00  0.00    -0.279 C  
HETATM   29  C   UNL     1      -8.467  19.035  68.588  1.00  0.00    -0.359 C  
HETATM   30  H   UNL     1      -7.940  20.430  65.012  1.00  0.00     0.000 HD 
HETATM   31  C   UNL     1      -8.986  19.355  67.163  1.00  0.00    -0.297 C  
HETATM   32  H   UNL     1      -9.519  20.959  66.086  1.00  0.00     0.000 HD 
HETATM   33  O   UNL     1      -7.276  20.001  65.538  1.00  0.00    -0.317 OA 
HETATM   34  C   UNL     1      -7.894  18.866  66.178  1.00  0.00    -0.250 C  
HETATM   35  O   UNL     1      -9.200  20.763  66.959  1.00  0.00    -0.296 OA 
BRANCH  29  36
HETATM   36  O   UNL     1      -9.068  17.826  69.069  1.00  0.00    -0.173 OA 
BRANCH  36  37
HETATM   37  C   UNL     1     -10.440  17.670  68.676  1.00  0.00    -0.317 C  
BRANCH  37  38
HETATM   38  C   UNL     1     -10.989  16.359  69.235  1.00  0.00    -0.322 C  
HETATM   39  H   UNL     1     -10.266  14.632  69.826  1.00  0.00     0.000 HD 
HETATM   40  O   UNL     1      -9.925  15.447  69.479  1.00  0.00    -0.239 OA 
ENDBRANCH  37  38
ENDBRANCH  36  37
ENDBRANCH  29  36
ENDBRANCH  13  27
ENDBRANCH   4   5
ENDBRANCH   3   4
ENDBRANCH   2   3
TORSDOF 10
ENDMDL
MODEL       90
REMARK 921   NORMALIZED FREE ENERGY PREDICTED BY IDOCK:   -5.21 KCAL/MOL
REMARK 922        TOTAL FREE ENERGY PREDICTED BY IDOCK:  -10.32 KCAL/MOL
REMARK 923 INTER-LIGAND FREE ENERGY PREDICTED BY IDOCK:   -9.23 KCAL/MOL
REMARK 924 INTRA-LIGAND FREE ENERGY PREDICTED BY IDOCK:   -1.09 KCAL/MOL
REMARK 927      BINDING AFFINITY PREDICTED BY RF-SCORE:    0.00 PKD
ROOT
HETATM    1  C   UNL     1      -8.248   6.631  65.541  1.00  0.00    -0.138 C  
HETATM    2  C   UNL     1      -7.176   7.493  66.194  1.00  0.00    -0.074 C  
ENDROOT
BRANCH   2   3
HETATM    3  C   UNL     1      -7.079   8.886  65.561  1.00  0.00    -0.080 C  
BRANCH   3   4
HETATM    4  S   UNL     1      -8.526   9.144  64.473  1.00  0.00    -0.173 SA 
BRANCH   4   5
HETATM    5  C   UNL     1      -9.547  10.154  65.524  1.00  0.00    -0.250 A  
HETATM    6  N   UNL     1      -9.876   9.613  66.719  1.00  0.00    -0.198 NA 
HETATM    7  C   UNL     1     -10.663  10.429  67.441  1.00  0.00    -0.283 A  
HETATM    8  C   UNL     1     -11.116  11.680  67.068  1.00  0.00    -0.302 A  
HETATM    9  N   UNL     1     -11.865  12.223  68.074  1.00  0.00    -0.430 NA 
HETATM   10  C   UNL     1     -10.698  12.176  65.824  1.00  0.00    -0.267 A  
HETATM   11  N   UNL     1      -9.901  11.372  65.061  1.00  0.00    -0.252 NA 
HETATM   12  N   UNL     1     -11.881  11.361  69.086  1.00  0.00    -0.325 NA 
HETATM   13  N   UNL     1     -11.131  10.288  68.722  1.00  0.00    -0.237 NA 
BRANCH  10  14
HETATM   14  N   UNL     1     -11.050  13.477  65.409  1.00  0.00    -0.289 NA 
HETATM   15  H   UNL     1     -11.891  13.640  64.856  1.00  0.00     0.000 HD 
BRANCH  14  16
HETATM   16  C   UNL     1     -10.178  14.589  65.794  1.00  0.00    -0.335 C  
HETATM   17  C   UNL     1     -10.291  15.212  67.168  1.00  0.00    -0.263 C  
HETATM   18  C   UNL     1      -9.085  14.390  66.801  1.00  0.00    -0.278 C  
BRANCH  17  19
HETATM   19  C   UNL     1     -10.252  16.717  67.266  1.00  0.00    -0.292 A  
HETATM   20  C   UNL     1     -10.343  18.945  66.292  1.00  0.00    -0.453 A  
HETATM   21  C   UNL     1     -10.403  17.557  66.153  1.00  0.00    -0.330 A  
HETATM   22  F   UNL     1     -10.504  19.719  65.211  1.00  0.00    -0.422 F  
HETATM   23  C   UNL     1     -10.125  19.518  67.539  1.00  0.00    -0.406 A  
HETATM   24  C   UNL     1     -10.024  17.326  68.518  1.00  0.00    -0.320 A  
HETATM   25  F   UNL     1     -10.066  20.849  67.667  1.00  0.00    -0.542 F  
HETATM   26  C   UNL     1      -9.961  18.715  68.657  1.00  0.00    -0.431 A  
ENDBRANCH  17  19
ENDBRANCH  14  16
ENDBRANCH  10  14
BRANCH  13  27
HETATM   27  C   UNL     1     -10.920   9.256  69.717  1.00  0.00    -0.196 C  
HETATM   28  C   UNL     1      -9.923   9.669  70.813  1.00  0.00    -0.260 C  
HETATM   29  C   UNL     1      -8.554   9.296  70.243  1.00  0.00    -0.210 C  
HETATM   30  H   UNL     1     -10.606   6.049  69.733  1.00  0.00     0.000 HD 
HETATM   31  C   UNL     1      -8.830   7.966  69.499  1.00  0.00    -0.142 C  
HETATM   32  H   UNL     1      -8.627   5.998  69.819  1.00  0.00     0.000 HD 
HETATM   33  O   UNL     1     -10.956   6.880  70.033  1.00  0.00    -0.250 OA 
HETATM   34  C   UNL     1     -10.357   7.920  69.234  1.00  0.00    -0.220 C  
HETATM   35  O   UNL     1      -8.458   6.813  70.276  1.00  0.00    -0.132 OA 
BRANCH  29  36
HETATM   36  O   UNL     1      -8.071  10.282  69.322  1.00  0.00    -0.131 OA 
BRANCH  36  37
HETATM   37  C   UNL     1      -6.822  10.873  69.714  1.00  0.00    -0.134 C  
BRANCH  37  38
HETATM   38  C   UNL     1      -6.582  12.148  68.910  1.00  0.00    -0.090 C  
HETATM   39  H   UNL     1      -6.675  12.703  67.028  1.00  0.00     0.000 HD 
HETATM   40  O   UNL     1      -6.825  11.910  67.529  1.00  0.00    -0.100 OA 
ENDBRANCH  37  38
ENDBRANCH  36  37
ENDBRANCH  29  36
ENDBRANCH  13  27
ENDBRANCH   4   5
ENDBRANCH   3   4
ENDBRANCH   2   3
TORSDOF 10
ENDMDL
MODEL       91
REMARK 921   NORMALIZED FREE ENERGY PREDICTED BY IDOCK:   -5.19 KCAL/MOL
REMARK 922        TOTAL FREE ENERGY PREDICTED BY IDOCK:  -10.29 KCAL/MOL
REMARK 923 INTER-LIGAND FREE ENERGY PREDICTED BY IDOCK:   -8.59 KCAL/MOL
REMARK 924 INTRA-LIGAND FREE ENERGY PREDICTED BY IDOCK:   -1.71 KCAL/MOL
REMARK 927      BINDING AFFINITY PREDICTED BY RF-SCORE:    0.00 PKD
ROOT
HETATM    1  C   UNL     1     -11.585   5.606  72.674  1.00  0.00    -0.307 C  
HETATM    2  C   UNL     1     -10.280   6.148  73.241  1.00  0.00    -0.222 C  
ENDROOT
BRANCH   2   3
HETATM    3  C   UNL     1     -10.241   7.680  73.259  1.00  0.00    -0.339 C  
BRANCH   3   4
HETATM    4  S   UNL     1     -11.655   8.320  72.291  1.00  0.00    -0.393 SA 
BRANCH   4   5
HETATM    5  C   UNL     1     -10.834   8.773  70.778  1.00  0.00    -0.234 A  
HETATM    6  N   UNL     1      -9.591   8.270  70.610  1.00  0.00    -0.169 NA 
HETATM    7  C   UNL     1      -9.035   8.676  69.456  1.00  0.00    -0.145 A  
HETATM    8  C   UNL     1      -9.611   9.504  68.511  1.00  0.00    -0.142 A  
HETATM    9  N   UNL     1      -8.759   9.667  67.454  1.00  0.00    -0.128 NA 
HETATM   10  C   UNL     1     -10.918   9.953  68.752  1.00  0.00    -0.179 A  
HETATM   11  N   UNL     1     -11.512   9.564  69.918  1.00  0.00    -0.131 NA 
HETATM   12  N   UNL     1      -7.668   8.945  67.691  1.00  0.00    -0.100 NA 
HETATM   13  N   UNL     1      -7.841   8.319  68.884  1.00  0.00    -0.109 NA 
BRANCH  10  14
HETATM   14  N   UNL     1     -11.602  10.733  67.797  1.00  0.00    -0.637 NA 
HETATM   15  H   UNL     1     -11.830  10.353  66.879  1.00  0.00     0.000 HD 
BRANCH  14  16
HETATM   16  C   UNL     1     -11.977  12.102  68.158  1.00  0.00    -0.178 C  
HETATM   17  C   UNL     1     -11.143  12.890  69.144  1.00  0.00    -0.245 C  
HETATM   18  C   UNL     1     -11.160  13.267  67.686  1.00  0.00    -0.292 C  
BRANCH  17  19
HETATM   19  C   UNL     1     -11.866  13.689  70.201  1.00  0.00    -0.351 A  
HETATM   20  C   UNL     1     -13.488  13.914  72.000  1.00  0.00    -0.455 A  
HETATM   21  C   UNL     1     -12.836  13.130  71.047  1.00  0.00    -0.295 A  
HETATM   22  F   UNL     1     -14.400  13.347  72.800  1.00  0.00    -0.535 F  
HETATM   23  C   UNL     1     -13.193  15.266  72.120  1.00  0.00    -0.395 A  
HETATM   24  C   UNL     1     -11.592  15.065  70.340  1.00  0.00    -0.330 A  
HETATM   25  F   UNL     1     -13.824  16.014  73.033  1.00  0.00    -0.636 F  
HETATM   26  C   UNL     1     -12.247  15.851  71.291  1.00  0.00    -0.473 A  
ENDBRANCH  17  19
ENDBRANCH  14  16
ENDBRANCH  10  14
BRANCH  13  27
HETATM   27  C   UNL     1      -6.813   7.388  69.303  1.00  0.00    -0.053 C  
HETATM   28  C   UNL     1      -6.718   6.146  68.401  1.00  0.00    -0.064 C  
HETATM   29  C   UNL     1      -7.738   5.170  68.990  1.00  0.00    -0.081 C  
HETATM   30  H   UNL     1      -5.688   6.244  72.097  1.00  0.00     0.000 HD 
HETATM   31  C   UNL     1      -7.601   5.392  70.517  1.00  0.00    -0.080 C  
HETATM   32  H   UNL     1      -6.688   4.534  72.081  1.00  0.00     0.000 HD 
HETATM   33  O   UNL     1      -5.609   6.621  71.229  1.00  0.00    -0.026 OA 
HETATM   34  C   UNL     1      -6.941   6.783  70.701  1.00  0.00    -0.063 C  
HETATM   35  O   UNL     1      -6.771   4.398  71.145  1.00  0.00    -0.029 OA 
BRANCH  29  36
HETATM   36  O   UNL     1      -9.074   5.472  68.568  1.00  0.00    -0.113 OA 
BRANCH  36  37
HETATM   37  C   UNL     1      -9.213   5.604  67.145  1.00  0.00    -0.114 C  
BRANCH  37  38
HETATM   38  C   UNL     1     -10.614   6.109  66.810  1.00  0.00    -0.283 C  
HETATM   39  H   UNL     1     -12.226   6.642  67.795  1.00  0.00     0.000 HD 
HETATM   40  O   UNL     1     -11.354   6.329  68.004  1.00  0.00    -0.260 OA 
ENDBRANCH  37  38
ENDBRANCH  36  37
ENDBRANCH  29  36
ENDBRANCH  13  27
ENDBRANCH   4   5
ENDBRANCH   3   4
ENDBRANCH   2   3
TORSDOF 10
ENDMDL
MODEL       92
REMARK 921   NORMALIZED FREE ENERGY PREDICTED BY IDOCK:   -5.19 KCAL/MOL
REMARK 922        TOTAL FREE ENERGY PREDICTED BY IDOCK:  -10.29 KCAL/MOL
REMARK 923 INTER-LIGAND FREE ENERGY PREDICTED BY IDOCK:   -8.44 KCAL/MOL
REMARK 924 INTRA-LIGAND FREE ENERGY PREDICTED BY IDOCK:   -1.85 KCAL/MOL
REMARK 927      BINDING AFFINITY PREDICTED BY RF-SCORE:    0.00 PKD
ROOT
HETATM    1  C   UNL     1      -5.151   9.224  72.579  1.00  0.00    -0.075 C  
HETATM    2  C   UNL     1      -6.372   8.921  71.721  1.00  0.00    -0.070 C  
ENDROOT
BRANCH   2   3
HETATM    3  C   UNL     1      -6.660  10.028  70.701  1.00  0.00    -0.086 C  
BRANCH   3   4
HETATM    4  S   UNL     1      -6.079   9.483  69.055  1.00  0.00    -0.042 SA 
BRANCH   4   5
HETATM    5  C   UNL     1      -7.569   8.755  68.409  1.00  0.00    -0.095 A  
HETATM    6  N   UNL     1      -8.214   7.902  69.238  1.00  0.00    -0.126 NA 
HETATM    7  C   UNL     1      -9.314   7.382  68.669  1.00  0.00    -0.139 A  
HETATM    8  C   UNL     1      -9.787   7.646  67.397  1.00  0.00    -0.173 A  
HETATM    9  N   UNL     1     -10.949   6.959  67.181  1.00  0.00    -0.375 NA 
HETATM   10  C   UNL     1      -9.073   8.568  66.618  1.00  0.00    -0.165 A  
HETATM   11  N   UNL     1      -7.947   9.113  67.163  1.00  0.00    -0.105 NA 
HETATM   12  N   UNL     1     -11.241   6.286  68.290  1.00  0.00    -0.275 NA 
HETATM   13  N   UNL     1     -10.274   6.561  69.204  1.00  0.00    -0.170 NA 
BRANCH  10  14
HETATM   14  N   UNL     1      -9.538   8.950  65.343  1.00  0.00    -0.448 NA 
HETATM   15  H   UNL     1      -9.309   8.399  64.516  1.00  0.00     0.000 HD 
BRANCH  14  16
HETATM   16  C   UNL     1     -10.357  10.159  65.236  1.00  0.00    -0.084 C  
HETATM   17  C   UNL     1      -9.706  11.524  65.167  1.00  0.00    -0.268 C  
HETATM   18  C   UNL     1     -10.396  10.946  63.960  1.00  0.00    -0.417 C  
BRANCH  17  19
HETATM   19  C   UNL     1     -10.304  12.635  65.994  1.00  0.00    -0.287 A  
HETATM   20  C   UNL     1     -10.267  14.191  67.864  1.00  0.00    -0.235 A  
HETATM   21  C   UNL     1      -9.666  13.174  67.121  1.00  0.00    -0.235 A  
HETATM   22  F   UNL     1      -9.626  14.693  68.927  1.00  0.00    -0.201 F  
HETATM   23  C   UNL     1     -11.515  14.683  67.502  1.00  0.00    -0.361 A  
HETATM   24  C   UNL     1     -11.573  13.148  65.654  1.00  0.00    -0.371 A  
HETATM   25  F   UNL     1     -12.089  15.657  68.218  1.00  0.00    -0.319 F  
HETATM   26  C   UNL     1     -12.177  14.164  66.399  1.00  0.00    -0.473 A  
ENDBRANCH  17  19
ENDBRANCH  14  16
ENDBRANCH  10  14
BRANCH  13  27
HETATM   27  C   UNL     1     -10.439   6.013  70.534  1.00  0.00    -0.242 C  
HETATM   28  C   UNL     1     -11.854   6.220  71.101  1.00  0.00    -0.234 C  
HETATM   29  C   UNL     1     -11.804   7.601  71.756  1.00  0.00    -0.290 C  
HETATM   30  H   UNL     1      -8.684   5.839  73.230  1.00  0.00     0.000 HD 
HETATM   31  C   UNL     1     -10.388   7.645  72.382  1.00  0.00    -0.238 C  
HETATM   32  H   UNL     1      -9.529   7.364  74.171  1.00  0.00     0.000 HD 
HETATM   33  O   UNL     1      -9.239   5.491  72.542  1.00  0.00    -0.142 OA 
HETATM   34  C   UNL     1      -9.547   6.574  71.641  1.00  0.00    -0.160 C  
HETATM   35  O   UNL     1     -10.398   7.337  73.788  1.00  0.00    -0.360 OA 
BRANCH  29  36
HETATM   36  O   UNL     1     -11.949   8.655  70.796  1.00  0.00    -0.240 OA 
BRANCH  36  37
HETATM   37  C   UNL     1     -11.130   9.801  71.072  1.00  0.00    -0.361 C  
BRANCH  37  38
HETATM   38  C   UNL     1     -10.868  10.570  69.780  1.00  0.00    -0.281 C  
HETATM   39  H   UNL     1     -11.573  12.171  68.889  1.00  0.00     0.000 HD 
HETATM   40  O   UNL     1     -11.736  11.693  69.693  1.00  0.00    -0.297 OA 
ENDBRANCH  37  38
ENDBRANCH  36  37
ENDBRANCH  29  36
ENDBRANCH  13  27
ENDBRANCH   4   5
ENDBRANCH   3   4
ENDBRANCH   2   3
TORSDOF 10
ENDMDL
MODEL       93
REMARK 921   NORMALIZED FREE ENERGY PREDICTED BY IDOCK:   -5.19 KCAL/MOL
REMARK 922        TOTAL FREE ENERGY PREDICTED BY IDOCK:  -10.28 KCAL/MOL
REMARK 923 INTER-LIGAND FREE ENERGY PREDICTED BY IDOCK:   -8.88 KCAL/MOL
REMARK 924 INTRA-LIGAND FREE ENERGY PREDICTED BY IDOCK:   -1.40 KCAL/MOL
REMARK 927      BINDING AFFINITY PREDICTED BY RF-SCORE:    0.00 PKD
ROOT
HETATM    1  C   UNL     1     -12.642  12.126  63.263  1.00  0.00    -0.492 C  
HETATM    2  C   UNL     1     -12.014  13.454  63.664  1.00  0.00    -0.504 C  
ENDROOT
BRANCH   2   3
HETATM    3  C   UNL     1     -10.721  13.271  64.466  1.00  0.00    -0.411 C  
BRANCH   3   4
HETATM    4  S   UNL     1     -10.959  11.918  65.672  1.00  0.00    -0.298 SA 
BRANCH   4   5
HETATM    5  C   UNL     1      -9.705  12.325  66.868  1.00  0.00    -0.212 A  
HETATM    6  N   UNL     1      -9.236  13.592  66.819  1.00  0.00    -0.251 NA 
HETATM    7  C   UNL     1      -8.281  13.811  67.740  1.00  0.00    -0.174 A  
HETATM    8  C   UNL     1      -7.794  12.897  68.655  1.00  0.00    -0.044 A  
HETATM    9  N   UNL     1      -6.853  13.491  69.450  1.00  0.00    -0.060 NA 
HETATM   10  C   UNL     1      -8.363  11.615  68.657  1.00  0.00    -0.100 A  
HETATM   11  N   UNL     1      -9.333  11.356  67.732  1.00  0.00    -0.159 NA 
HETATM   12  N   UNL     1      -6.747  14.763  69.080  1.00  0.00    -0.114 NA 
HETATM   13  N   UNL     1      -7.629  14.972  68.067  1.00  0.00    -0.110 NA 
BRANCH  10  14
HETATM   14  N   UNL     1      -7.978  10.654  69.614  1.00  0.00    -0.365 NA 
HETATM   15  H   UNL     1      -7.223  10.845  70.273  1.00  0.00     0.000 HD 
BRANCH  14  16
HETATM   16  C   UNL     1      -8.689   9.374  69.640  1.00  0.00    -0.167 C  
HETATM   17  C   UNL     1      -8.023   8.116  69.126  1.00  0.00    -0.113 C  
HETATM   18  C   UNL     1      -8.286   8.294  70.598  1.00  0.00    -0.112 C  
BRANCH  17  19
HETATM   19  C   UNL     1      -8.837   7.188  68.260  1.00  0.00    -0.127 A  
HETATM   20  C   UNL     1      -9.158   5.115  67.027  1.00  0.00    -0.112 A  
HETATM   21  C   UNL     1      -8.372   5.932  67.841  1.00  0.00    -0.111 A  
HETATM   22  F   UNL     1      -8.689   3.917  66.655  1.00  0.00    -0.106 F  
HETATM   23  C   UNL     1     -10.413   5.538  66.609  1.00  0.00    -0.294 A  
HETATM   24  C   UNL     1     -10.112   7.594  67.814  1.00  0.00    -0.237 A  
HETATM   25  F   UNL     1     -11.161   4.752  65.825  1.00  0.00    -0.310 F  
HETATM   26  C   UNL     1     -10.897   6.778  66.996  1.00  0.00    -0.453 A  
ENDBRANCH  17  19
ENDBRANCH  14  16
ENDBRANCH  10  14
BRANCH  13  27
HETATM   27  C   UNL     1      -7.762  16.325  67.568  1.00  0.00    -0.146 C  
HETATM   28  C   UNL     1      -8.221  17.323  68.645  1.00  0.00    -0.262 C  
HETATM   29  C   UNL     1      -9.748  17.240  68.614  1.00  0.00    -0.301 C  
HETATM   30  H   UNL     1      -8.842  17.733  64.879  1.00  0.00     0.000 HD 
HETATM   31  C   UNL     1     -10.064  17.078  67.106  1.00  0.00    -0.292 C  
HETATM   32  H   UNL     1     -10.637  18.220  65.562  1.00  0.00     0.000 HD 
HETATM   33  O   UNL     1      -8.219  17.586  65.582  1.00  0.00    -0.505 OA 
HETATM   34  C   UNL     1      -8.763  16.561  66.439  1.00  0.00    -0.322 C  
HETATM   35  O   UNL     1     -10.443  18.320  66.486  1.00  0.00    -0.372 OA 
BRANCH  29  36
HETATM   36  O   UNL     1     -10.237  16.107  69.343  1.00  0.00    -0.237 OA 
BRANCH  36  37
HETATM   37  C   UNL     1     -11.647  15.886  69.182  1.00  0.00    -0.379 C  
BRANCH  37  38
HETATM   38  C   UNL     1     -11.965  14.410  69.410  1.00  0.00    -0.328 C  
HETATM   39  H   UNL     1     -12.070  13.179  70.936  1.00  0.00     0.000 HD 
HETATM   40  O   UNL     1     -11.873  14.097  70.795  1.00  0.00    -0.303 OA 
ENDBRANCH  37  38
ENDBRANCH  36  37
ENDBRANCH  29  36
ENDBRANCH  13  27
ENDBRANCH   4   5
ENDBRANCH   3   4
ENDBRANCH   2   3
TORSDOF 10
ENDMDL
MODEL       94
REMARK 921   NORMALIZED FREE ENERGY PREDICTED BY IDOCK:   -5.17 KCAL/MOL
REMARK 922        TOTAL FREE ENERGY PREDICTED BY IDOCK:  -10.25 KCAL/MOL
REMARK 923 INTER-LIGAND FREE ENERGY PREDICTED BY IDOCK:   -8.86 KCAL/MOL
REMARK 924 INTRA-LIGAND FREE ENERGY PREDICTED BY IDOCK:   -1.39 KCAL/MOL
REMARK 927      BINDING AFFINITY PREDICTED BY RF-SCORE:    0.00 PKD
ROOT
HETATM    1  C   UNL     1     -12.196  14.524  64.333  1.00  0.00    -0.480 C  
HETATM    2  C   UNL     1     -12.275  13.499  63.210  1.00  0.00    -0.214 C  
ENDROOT
BRANCH   2   3
HETATM    3  C   UNL     1     -12.401  12.065  63.735  1.00  0.00    -0.496 C  
BRANCH   3   4
HETATM    4  S   UNL     1     -10.789  11.223  63.550  1.00  0.00    -0.173 SA 
BRANCH   4   5
HETATM    5  C   UNL     1     -10.378  10.929  65.257  1.00  0.00    -0.268 A  
HETATM    6  N   UNL     1     -11.002  11.723  66.156  1.00  0.00    -0.299 NA 
HETATM    7  C   UNL     1     -10.622  11.450  67.416  1.00  0.00    -0.218 A  
HETATM    8  C   UNL     1      -9.712  10.489  67.813  1.00  0.00    -0.160 A  
HETATM    9  N   UNL     1      -9.607  10.482  69.176  1.00  0.00    -0.205 NA 
HETATM   10  C   UNL     1      -9.138   9.689  66.815  1.00  0.00    -0.146 A  
HETATM   11  N   UNL     1      -9.497   9.940  65.522  1.00  0.00    -0.231 NA 
HETATM   12  N   UNL     1     -10.443  11.396  69.658  1.00  0.00     0.079 NA 
HETATM   13  N   UNL     1     -11.083  11.964  68.601  1.00  0.00    -0.228 NA 
BRANCH  10  14
HETATM   14  N   UNL     1      -8.264   8.633  67.148  1.00  0.00    -0.107 NA 
HETATM   15  H   UNL     1      -7.273   8.680  66.912  1.00  0.00     0.000 HD 
BRANCH  14  16
HETATM   16  C   UNL     1      -8.816   7.466  67.840  1.00  0.00    -0.132 C  
HETATM   17  C   UNL     1     -10.277   7.430  68.236  1.00  0.00    -0.213 C  
HETATM   18  C   UNL     1      -9.761   6.538  67.138  1.00  0.00    -0.176 C  
BRANCH  17  19
HETATM   19  C   UNL     1     -10.623   6.914  69.611  1.00  0.00    -0.258 A  
HETATM   20  C   UNL     1     -11.432   7.213  71.886  1.00  0.00    -0.270 A  
HETATM   21  C   UNL     1     -11.141   7.734  70.624  1.00  0.00    -0.264 A  
HETATM   22  F   UNL     1     -11.938   8.020  72.827  1.00  0.00    -0.398 F  
HETATM   23  C   UNL     1     -11.204   5.871  72.161  1.00  0.00    -0.287 A  
HETATM   24  C   UNL     1     -10.395   5.557  69.921  1.00  0.00    -0.368 A  
HETATM   25  F   UNL     1     -11.482   5.376  73.374  1.00  0.00    -0.325 F  
HETATM   26  C   UNL     1     -10.683   5.036  71.185  1.00  0.00    -0.072 A  
ENDBRANCH  17  19
ENDBRANCH  14  16
ENDBRANCH  10  14
BRANCH  13  27
HETATM   27  C   UNL     1     -12.126  12.926  68.893  1.00  0.00    -0.142 C  
HETATM   28  C   UNL     1     -12.082  14.161  67.977  1.00  0.00    -0.303 C  
HETATM   29  C   UNL     1     -11.110  15.115  68.672  1.00  0.00    -0.271 C  
HETATM   30  H   UNL     1     -13.531  14.128  71.532  1.00  0.00     0.000 HD 
HETATM   31  C   UNL     1     -11.427  14.913  70.175  1.00  0.00    -0.279 C  
HETATM   32  H   UNL     1     -12.489  15.810  71.618  1.00  0.00     0.000 HD 
HETATM   33  O   UNL     1     -13.520  13.744  70.662  1.00  0.00     0.025 OA 
HETATM   34  C   UNL     1     -12.142  13.542  70.291  1.00  0.00    -0.355 C  
HETATM   35  O   UNL     1     -12.295  15.935  70.697  1.00  0.00    -0.395 OA 
BRANCH  29  36
HETATM   36  O   UNL     1      -9.744  14.773  68.409  1.00  0.00    -0.202 OA 
BRANCH  36  37
HETATM   37  C   UNL     1      -9.343  15.009  67.050  1.00  0.00    -0.224 C  
BRANCH  37  38
HETATM   38  C   UNL     1      -9.304  16.511  66.779  1.00  0.00    -0.243 C  
HETATM   39  H   UNL     1      -9.887  17.733  65.357  1.00  0.00     0.000 HD 
HETATM   40  O   UNL     1      -9.912  16.798  65.525  1.00  0.00    -0.567 OA 
ENDBRANCH  37  38
ENDBRANCH  36  37
ENDBRANCH  29  36
ENDBRANCH  13  27
ENDBRANCH   4   5
ENDBRANCH   3   4
ENDBRANCH   2   3
TORSDOF 10
ENDMDL
MODEL       95
REMARK 921   NORMALIZED FREE ENERGY PREDICTED BY IDOCK:   -5.14 KCAL/MOL
REMARK 922        TOTAL FREE ENERGY PREDICTED BY IDOCK:  -10.20 KCAL/MOL
REMARK 923 INTER-LIGAND FREE ENERGY PREDICTED BY IDOCK:   -8.74 KCAL/MOL
REMARK 924 INTRA-LIGAND FREE ENERGY PREDICTED BY IDOCK:   -1.47 KCAL/MOL
REMARK 927      BINDING AFFINITY PREDICTED BY RF-SCORE:    0.00 PKD
ROOT
HETATM    1  C   UNL     1     -12.100  12.911  68.527  1.00  0.00    -0.158 C  
HETATM    2  C   UNL     1     -11.606  11.558  68.033  1.00  0.00    -0.370 C  
ENDROOT
BRANCH   2   3
HETATM    3  C   UNL     1     -11.162  11.597  66.567  1.00  0.00    -0.294 C  
BRANCH   3   4
HETATM    4  S   UNL     1     -11.145  13.335  65.999  1.00  0.00    -0.286 SA 
BRANCH   4   5
HETATM    5  C   UNL     1      -9.540  13.849  66.572  1.00  0.00    -0.287 A  
HETATM    6  N   UNL     1      -9.316  15.183  66.572  1.00  0.00    -0.261 NA 
HETATM    7  C   UNL     1      -8.077  15.485  66.998  1.00  0.00    -0.237 A  
HETATM    8  C   UNL     1      -7.105  14.590  67.403  1.00  0.00    -0.110 A  
HETATM    9  N   UNL     1      -5.986  15.268  67.800  1.00  0.00    -0.198 NA 
HETATM   10  C   UNL     1      -7.436  13.228  67.403  1.00  0.00    -0.124 A  
HETATM   11  N   UNL     1      -8.685  12.884  66.972  1.00  0.00    -0.209 NA 
HETATM   12  N   UNL     1      -6.229  16.570  67.680  1.00  0.00    -0.131 NA 
HETATM   13  N   UNL     1      -7.502  16.709  67.225  1.00  0.00    -0.153 NA 
BRANCH  10  14
HETATM   14  N   UNL     1      -6.527  12.262  67.881  1.00  0.00    -0.077 NA 
HETATM   15  H   UNL     1      -5.568  12.231  67.535  1.00  0.00     0.000 HD 
BRANCH  14  16
HETATM   16  C   UNL     1      -6.994  11.305  68.886  1.00  0.00    -0.099 C  
HETATM   17  C   UNL     1      -7.285   9.870  68.501  1.00  0.00    -0.076 C  
HETATM   18  C   UNL     1      -6.098  10.202  69.366  1.00  0.00    -0.041 C  
BRANCH  17  19
HETATM   19  C   UNL     1      -8.538   9.233  69.048  1.00  0.00    -0.134 A  
HETATM   20  C   UNL     1     -10.219   8.918  70.779  1.00  0.00    -0.226 A  
HETATM   21  C   UNL     1      -9.064   9.547  70.310  1.00  0.00    -0.296 A  
HETATM   22  F   UNL     1     -10.702   9.250  71.983  1.00  0.00    -0.421 F  
HETATM   23  C   UNL     1     -10.863   7.963  70.004  1.00  0.00    -0.238 A  
HETATM   24  C   UNL     1      -9.209   8.254  68.286  1.00  0.00    -0.135 A  
HETATM   25  F   UNL     1     -11.969   7.361  70.459  1.00  0.00    -0.304 F  
HETATM   26  C   UNL     1     -10.363   7.622  68.757  1.00  0.00    -0.218 A  
ENDBRANCH  17  19
ENDBRANCH  14  16
ENDBRANCH  10  14
BRANCH  13  27
HETATM   27  C   UNL     1      -8.027  18.054  67.115  1.00  0.00    -0.212 C  
HETATM   28  C   UNL     1      -8.351  18.690  68.477  1.00  0.00    -0.369 C  
HETATM   29  C   UNL     1      -9.780  18.237  68.779  1.00  0.00    -0.330 C  
HETATM   30  H   UNL     1     -10.063  19.622  65.171  1.00  0.00     0.000 HD 
HETATM   31  C   UNL     1     -10.466  18.283  67.390  1.00  0.00    -0.409 C  
HETATM   32  H   UNL     1     -11.655  19.511  66.344  1.00  0.00     0.000 HD 
HETATM   33  O   UNL     1      -9.253  19.506  65.654  1.00  0.00    -0.305 OA 
HETATM   34  C   UNL     1      -9.329  18.239  66.337  1.00  0.00    -0.273 C  
HETATM   35  O   UNL     1     -11.234  19.484  67.195  1.00  0.00    -0.353 OA 
BRANCH  29  36
HETATM   36  O   UNL     1      -9.820  16.903  69.302  1.00  0.00    -0.237 OA 
BRANCH  36  37
HETATM   37  C   UNL     1     -11.149  16.370  69.415  1.00  0.00    -0.300 C  
BRANCH  37  38
HETATM   38  C   UNL     1     -11.407  15.934  70.855  1.00  0.00    -0.391 C  
HETATM   39  H   UNL     1     -12.961  15.473  71.963  1.00  0.00     0.000 HD 
HETATM   40  O   UNL     1     -12.801  15.743  71.066  1.00  0.00    -0.475 OA 
ENDBRANCH  37  38
ENDBRANCH  36  37
ENDBRANCH  29  36
ENDBRANCH  13  27
ENDBRANCH   4   5
ENDBRANCH   3   4
ENDBRANCH   2   3
TORSDOF 10
ENDMDL
MODEL       96
REMARK 921   NORMALIZED FREE ENERGY PREDICTED BY IDOCK:   -5.14 KCAL/MOL
REMARK 922        TOTAL FREE ENERGY PREDICTED BY IDOCK:  -10.20 KCAL/MOL
REMARK 923 INTER-LIGAND FREE ENERGY PREDICTED BY IDOCK:   -8.78 KCAL/MOL
REMARK 924 INTRA-LIGAND FREE ENERGY PREDICTED BY IDOCK:   -1.42 KCAL/MOL
REMARK 927      BINDING AFFINITY PREDICTED BY RF-SCORE:    0.00 PKD
ROOT
HETATM    1  C   UNL     1      -5.502  11.041  65.807  1.00  0.00    -0.119 C  
HETATM    2  C   UNL     1      -5.696   9.821  64.917  1.00  0.00    -0.079 C  
ENDROOT
BRANCH   2   3
HETATM    3  C   UNL     1      -7.072   9.173  65.104  1.00  0.00    -0.088 C  
BRANCH   3   4
HETATM    4  S   UNL     1      -7.224   8.593  66.832  1.00  0.00    -0.075 SA 
BRANCH   4   5
HETATM    5  C   UNL     1      -8.747   9.380  67.307  1.00  0.00    -0.128 A  
HETATM    6  N   UNL     1      -9.205  10.331  66.462  1.00  0.00    -0.151 NA 
HETATM    7  C   UNL     1     -10.346  10.889  66.903  1.00  0.00    -0.238 A  
HETATM    8  C   UNL     1     -11.021  10.574  68.067  1.00  0.00    -0.290 A  
HETATM    9  N   UNL     1     -12.158  11.326  68.164  1.00  0.00    -0.631 NA 
HETATM   10  C   UNL     1     -10.491   9.551  68.867  1.00  0.00    -0.216 A  
HETATM   11  N   UNL     1      -9.330   8.965  68.452  1.00  0.00    -0.136 NA 
HETATM   12  N   UNL     1     -12.237  12.093  67.081  1.00  0.00    -0.401 NA 
HETATM   13  N   UNL     1     -11.161  11.812  66.300  1.00  0.00    -0.323 NA 
BRANCH  10  14
HETATM   14  N   UNL     1     -11.166   9.116  70.027  1.00  0.00    -0.383 NA 
HETATM   15  H   UNL     1     -11.813   9.733  70.518  1.00  0.00     0.000 HD 
BRANCH  14  16
HETATM   16  C   UNL     1     -10.915   7.756  70.508  1.00  0.00    -0.245 C  
HETATM   17  C   UNL     1      -9.862   7.498  71.564  1.00  0.00    -0.185 C  
HETATM   18  C   UNL     1     -11.324   7.347  71.891  1.00  0.00    -0.294 C  
BRANCH  17  19
HETATM   19  C   UNL     1      -8.944   6.317  71.373  1.00  0.00    -0.139 A  
HETATM   20  C   UNL     1      -7.464   4.932  70.026  1.00  0.00    -0.055 A  
HETATM   21  C   UNL     1      -8.294   6.047  70.159  1.00  0.00    -0.120 A  
HETATM   22  F   UNL     1      -6.849   4.709  68.858  1.00  0.00    -0.045 F  
HETATM   23  C   UNL     1      -7.276   4.065  71.095  1.00  0.00    -0.033 A  
HETATM   24  C   UNL     1      -8.739   5.416  72.438  1.00  0.00    -0.125 A  
HETATM   25  F   UNL     1      -6.482   2.995  70.962  1.00  0.00    -0.021 F  
HETATM   26  C   UNL     1      -7.912   4.298  72.304  1.00  0.00    -0.091 A  
ENDBRANCH  17  19
ENDBRANCH  14  16
ENDBRANCH  10  14
BRANCH  13  27
HETATM   27  C   UNL     1     -11.090  12.461  65.007  1.00  0.00    -0.304 C  
HETATM   28  C   UNL     1      -9.948  13.486  64.908  1.00  0.00    -0.176 C  
HETATM   29  C   UNL     1     -10.555  14.784  65.443  1.00  0.00    -0.378 C  
HETATM   30  H   UNL     1     -13.184  13.615  62.847  1.00  0.00     0.000 HD 
HETATM   31  C   UNL     1     -12.006  14.747  64.900  1.00  0.00    -0.358 C  
HETATM   32  H   UNL     1     -13.058  15.519  63.379  1.00  0.00     0.000 HD 
HETATM   33  O   UNL     1     -12.426  13.114  63.128  1.00  0.00    -0.686 OA 
HETATM   34  C   UNL     1     -12.308  13.266  64.557  1.00  0.00    -0.368 C  
HETATM   35  O   UNL     1     -12.169  15.542  63.711  1.00  0.00    -0.559 OA 
BRANCH  29  36
HETATM   36  O   UNL     1     -10.569  14.819  66.875  1.00  0.00    -0.284 OA 
BRANCH  36  37
HETATM   37  C   UNL     1     -10.560  16.148  67.419  1.00  0.00    -0.311 C  
BRANCH  37  38
HETATM   38  C   UNL     1      -9.607  17.027  66.613  1.00  0.00    -0.266 C  
HETATM   39  H   UNL     1      -9.729  18.644  65.505  1.00  0.00     0.000 HD 
HETATM   40  O   UNL     1     -10.323  18.097  66.007  1.00  0.00    -0.478 OA 
ENDBRANCH  37  38
ENDBRANCH  36  37
ENDBRANCH  29  36
ENDBRANCH  13  27
ENDBRANCH   4   5
ENDBRANCH   3   4
ENDBRANCH   2   3
TORSDOF 10
ENDMDL
MODEL       97
REMARK 921   NORMALIZED FREE ENERGY PREDICTED BY IDOCK:   -5.12 KCAL/MOL
REMARK 922        TOTAL FREE ENERGY PREDICTED BY IDOCK:  -10.18 KCAL/MOL
REMARK 923 INTER-LIGAND FREE ENERGY PREDICTED BY IDOCK:   -8.73 KCAL/MOL
REMARK 924 INTRA-LIGAND FREE ENERGY PREDICTED BY IDOCK:   -1.46 KCAL/MOL
REMARK 927      BINDING AFFINITY PREDICTED BY RF-SCORE:    0.00 PKD
ROOT
HETATM    1  C   UNL     1      -7.077  14.425  67.482  1.00  0.00    -0.197 C  
HETATM    2  C   UNL     1      -7.941  13.577  68.405  1.00  0.00    -0.142 C  
ENDROOT
BRANCH   2   3
HETATM    3  C   UNL     1      -7.747  12.074  68.171  1.00  0.00    -0.135 C  
BRANCH   3   4
HETATM    4  S   UNL     1      -9.196  11.424  67.265  1.00  0.00    -0.167 SA 
BRANCH   4   5
HETATM    5  C   UNL     1     -10.315  11.122  68.615  1.00  0.00    -0.203 A  
HETATM    6  N   UNL     1     -10.549   9.822  68.905  1.00  0.00    -0.213 NA 
HETATM    7  C   UNL     1     -11.418   9.681  69.920  1.00  0.00    -0.100 A  
HETATM    8  C   UNL     1     -12.032  10.698  70.626  1.00  0.00    -0.367 A  
HETATM    9  N   UNL     1     -12.824  10.170  71.608  1.00  0.00    -0.417 NA 
HETATM   10  C   UNL     1     -11.705  12.017  70.279  1.00  0.00    -0.179 A  
HETATM   11  N   UNL     1     -10.829  12.198  69.249  1.00  0.00    -0.117 NA 
HETATM   12  N   UNL     1     -12.711   8.847  71.561  1.00  0.00    -0.328 NA 
HETATM   13  N   UNL     1     -11.839   8.545  70.563  1.00  0.00    -0.101 NA 
BRANCH  10  14
HETATM   14  N   UNL     1     -12.227  13.106  71.007  1.00  0.00    -0.430 NA 
HETATM   15  H   UNL     1     -12.894  12.958  71.764  1.00  0.00     0.000 HD 
BRANCH  14  16
HETATM   16  C   UNL     1     -11.787  14.456  70.648  1.00  0.00    -0.295 C  
HETATM   17  C   UNL     1     -12.277  15.108  69.373  1.00  0.00    -0.237 C  
HETATM   18  C   UNL     1     -12.739  15.613  70.714  1.00  0.00    -0.483 C  
BRANCH  17  19
HETATM   19  C   UNL     1     -11.271  15.848  68.526  1.00  0.00    -0.362 A  
HETATM   20  C   UNL     1      -9.565  17.552  68.200  1.00  0.00    -0.294 A  
HETATM   21  C   UNL     1     -10.472  16.887  69.027  1.00  0.00    -0.341 A  
HETATM   22  F   UNL     1      -8.809  18.532  68.712  1.00  0.00    -0.329 F  
HETATM   23  C   UNL     1      -9.445  17.200  66.861  1.00  0.00    -0.259 A  
HETATM   24  C   UNL     1     -11.132  15.517  67.162  1.00  0.00    -0.256 A  
HETATM   25  F   UNL     1      -8.576  17.843  66.072  1.00  0.00    -0.247 F  
HETATM   26  C   UNL     1     -10.227  16.185  66.334  1.00  0.00    -0.315 A  
ENDBRANCH  17  19
ENDBRANCH  14  16
ENDBRANCH  10  14
BRANCH  13  27
HETATM   27  C   UNL     1     -11.479   7.152  70.392  1.00  0.00    -0.278 C  
HETATM   28  C   UNL     1     -11.516   6.353  71.705  1.00  0.00    -0.349 C  
HETATM   29  C   UNL     1     -10.129   6.560  72.316  1.00  0.00    -0.175 C  
HETATM   30  H   UNL     1      -9.315   5.486  68.683  1.00  0.00     0.000 HD 
HETATM   31  C   UNL     1      -9.192   6.541  71.082  1.00  0.00    -0.156 C  
HETATM   32  H   UNL     1      -7.986   5.251  70.134  1.00  0.00     0.000 HD 
HETATM   33  O   UNL     1     -10.183   5.675  69.020  1.00  0.00    -0.182 OA 
HETATM   34  C   UNL     1     -10.082   6.849  69.850  1.00  0.00    -0.188 C  
HETATM   35  O   UNL     1      -8.560   5.262  70.890  1.00  0.00    -0.123 OA 
BRANCH  29  36
HETATM   36  O   UNL     1     -10.023   7.819  72.992  1.00  0.00    -0.243 OA 
BRANCH  36  37
HETATM   37  C   UNL     1      -8.684   8.145  73.395  1.00  0.00    -0.251 C  
BRANCH  37  38
HETATM   38  C   UNL     1      -8.268   7.258  74.565  1.00  0.00    -0.183 C  
HETATM   39  H   UNL     1      -7.207   5.627  74.829  1.00  0.00     0.000 HD 
HETATM   40  O   UNL     1      -7.465   6.179  74.100  1.00  0.00    -0.087 OA 
ENDBRANCH  37  38
ENDBRANCH  36  37
ENDBRANCH  29  36
ENDBRANCH  13  27
ENDBRANCH   4   5
ENDBRANCH   3   4
ENDBRANCH   2   3
TORSDOF 10
ENDMDL
MODEL       98
REMARK 921   NORMALIZED FREE ENERGY PREDICTED BY IDOCK:   -5.11 KCAL/MOL
REMARK 922        TOTAL FREE ENERGY PREDICTED BY IDOCK:  -10.17 KCAL/MOL
REMARK 923 INTER-LIGAND FREE ENERGY PREDICTED BY IDOCK:   -8.77 KCAL/MOL
REMARK 924 INTRA-LIGAND FREE ENERGY PREDICTED BY IDOCK:   -1.40 KCAL/MOL
REMARK 927      BINDING AFFINITY PREDICTED BY RF-SCORE:    0.00 PKD
ROOT
HETATM    1  C   UNL     1     -13.249  13.727  65.443  1.00  0.00    -0.028 C  
HETATM    2  C   UNL     1     -12.465  13.024  64.344  1.00  0.00    -0.406 C  
ENDROOT
BRANCH   2   3
HETATM    3  C   UNL     1     -11.130  13.713  64.044  1.00  0.00    -0.102 C  
BRANCH   3   4
HETATM    4  S   UNL     1     -11.080  15.316  64.924  1.00  0.00    -0.399 SA 
BRANCH   4   5
HETATM    5  C   UNL     1      -9.805  14.990  66.121  1.00  0.00    -0.301 A  
HETATM    6  N   UNL     1      -8.742  15.825  66.090  1.00  0.00    -0.319 NA 
HETATM    7  C   UNL     1      -7.818  15.499  67.010  1.00  0.00    -0.225 A  
HETATM    8  C   UNL     1      -7.885  14.452  67.910  1.00  0.00    -0.150 A  
HETATM    9  N   UNL     1      -6.776  14.454  68.709  1.00  0.00    -0.087 NA 
HETATM   10  C   UNL     1      -9.040  13.656  67.894  1.00  0.00    -0.198 A  
HETATM   11  N   UNL     1      -9.998  13.956  66.969  1.00  0.00    -0.253 NA 
HETATM   12  N   UNL     1      -6.018  15.488  68.359  1.00  0.00    -0.101 NA 
HETATM   13  N   UNL     1      -6.656  16.142  67.352  1.00  0.00    -0.171 NA 
BRANCH  10  14
HETATM   14  N   UNL     1      -9.219  12.622  68.835  1.00  0.00    -0.374 NA 
HETATM   15  H   UNL     1      -9.532  12.827  69.784  1.00  0.00     0.000 HD 
BRANCH  14  16
HETATM   16  C   UNL     1      -8.943  11.246  68.416  1.00  0.00    -0.167 C  
HETATM   17  C   UNL     1      -9.931  10.496  67.549  1.00  0.00    -0.204 C  
HETATM   18  C   UNL     1      -8.604  10.935  66.990  1.00  0.00    -0.136 C  
BRANCH  17  19
HETATM   19  C   UNL     1     -10.232   9.060  67.901  1.00  0.00    -0.272 A  
HETATM   20  C   UNL     1     -10.754   6.759  67.309  1.00  0.00    -0.353 A  
HETATM   21  C   UNL     1     -10.464   8.071  66.933  1.00  0.00    -0.387 A  
HETATM   22  F   UNL     1     -10.958   5.836  66.360  1.00  0.00    -0.333 F  
HETATM   23  C   UNL     1     -10.826   6.411  68.652  1.00  0.00    -0.314 A  
HETATM   24  C   UNL     1     -10.319   8.680  69.257  1.00  0.00    -0.228 A  
HETATM   25  F   UNL     1     -11.107   5.152  69.007  1.00  0.00    -0.119 F  
HETATM   26  C   UNL     1     -10.612   7.367  69.633  1.00  0.00    -0.243 A  
ENDBRANCH  17  19
ENDBRANCH  14  16
ENDBRANCH  10  14
BRANCH  13  27
HETATM   27  C   UNL     1      -6.060  17.373  66.874  1.00  0.00    -0.177 C  
HETATM   28  C   UNL     1      -5.979  18.464  67.955  1.00  0.00    -0.179 C  
HETATM   29  C   UNL     1      -7.330  19.176  67.879  1.00  0.00    -0.250 C  
HETATM   30  H   UNL     1      -6.173  19.137  64.181  1.00  0.00     0.000 HD 
HETATM   31  C   UNL     1      -7.633  19.200  66.360  1.00  0.00    -0.264 C  
HETATM   32  H   UNL     1      -7.487  20.475  64.821  1.00  0.00     0.000 HD 
HETATM   33  O   UNL     1      -5.739  18.691  64.899  1.00  0.00    -0.225 OA 
HETATM   34  C   UNL     1      -6.760  18.090  65.721  1.00  0.00    -0.257 C  
HETATM   35  O   UNL     1      -7.301  20.461  65.752  1.00  0.00    -0.236 OA 
BRANCH  29  36
HETATM   36  O   UNL     1      -8.356  18.454  68.572  1.00  0.00    -0.317 OA 
BRANCH  36  37
HETATM   37  C   UNL     1      -9.642  19.091  68.522  1.00  0.00    -0.386 C  
BRANCH  37  38
HETATM   38  C   UNL     1     -10.691  18.094  68.036  1.00  0.00    -0.277 C  
HETATM   39  H   UNL     1     -11.370  16.336  68.586  1.00  0.00     0.000 HD 
HETATM   40  O   UNL     1     -10.718  16.956  68.889  1.00  0.00    -0.329 OA 
ENDBRANCH  37  38
ENDBRANCH  36  37
ENDBRANCH  29  36
ENDBRANCH  13  27
ENDBRANCH   4   5
ENDBRANCH   3   4
ENDBRANCH   2   3
TORSDOF 10
ENDMDL
MODEL       99
REMARK 921   NORMALIZED FREE ENERGY PREDICTED BY IDOCK:   -5.11 KCAL/MOL
REMARK 922        TOTAL FREE ENERGY PREDICTED BY IDOCK:  -10.16 KCAL/MOL
REMARK 923 INTER-LIGAND FREE ENERGY PREDICTED BY IDOCK:   -8.80 KCAL/MOL
REMARK 924 INTRA-LIGAND FREE ENERGY PREDICTED BY IDOCK:   -1.35 KCAL/MOL
REMARK 927      BINDING AFFINITY PREDICTED BY RF-SCORE:    0.00 PKD
ROOT
HETATM    1  C   UNL     1     -13.675   9.151  71.933  1.00  0.00    -0.485 C  
HETATM    2  C   UNL     1     -13.878   7.681  71.595  1.00  0.00    -0.480 C  
ENDROOT
BRANCH   2   3
HETATM    3  C   UNL     1     -12.584   6.868  71.715  1.00  0.00    -0.344 C  
BRANCH   3   4
HETATM    4  S   UNL     1     -11.398   7.794  72.753  1.00  0.00    -0.341 SA 
BRANCH   4   5
HETATM    5  C   UNL     1     -10.087   8.071  71.581  1.00  0.00    -0.184 A  
HETATM    6  N   UNL     1      -9.305   7.002  71.311  1.00  0.00    -0.160 NA 
HETATM    7  C   UNL     1      -8.330   7.300  70.435  1.00  0.00    -0.130 A  
HETATM    8  C   UNL     1      -8.102   8.528  69.843  1.00  0.00    -0.118 A  
HETATM    9  N   UNL     1      -7.043   8.440  68.983  1.00  0.00    -0.067 NA 
HETATM   10  C   UNL     1      -8.984   9.573  70.155  1.00  0.00    -0.236 A  
HETATM   11  N   UNL     1      -9.984   9.307  71.046  1.00  0.00    -0.292 NA 
HETATM   12  N   UNL     1      -6.607   7.184  68.994  1.00  0.00    -0.043 NA 
HETATM   13  N   UNL     1      -7.400   6.482  69.846  1.00  0.00    -0.084 NA 
BRANCH  10  14
HETATM   14  N   UNL     1      -8.866  10.830  69.529  1.00  0.00    -0.392 NA 
HETATM   15  H   UNL     1      -7.978  11.331  69.524  1.00  0.00     0.000 HD 
BRANCH  14  16
HETATM   16  C   UNL     1     -10.052  11.399  68.884  1.00  0.00    -0.150 C  
HETATM   17  C   UNL     1     -10.719  10.678  67.733  1.00  0.00    -0.302 C  
HETATM   18  C   UNL     1     -11.400  10.771  69.073  1.00  0.00    -0.349 C  
BRANCH  17  19
HETATM   19  C   UNL     1     -11.151  11.497  66.542  1.00  0.00    -0.341 A  
HETATM   20  C   UNL     1     -12.360  13.343  65.518  1.00  0.00    -0.480 A  
HETATM   21  C   UNL     1     -11.975  12.627  66.653  1.00  0.00    -0.382 A  
HETATM   22  F   UNL     1     -13.137  14.425  65.660  1.00  0.00    -0.487 F  
HETATM   23  C   UNL     1     -11.939  12.943  64.257  1.00  0.00    -0.399 A  
HETATM   24  C   UNL     1     -10.745  11.109  65.248  1.00  0.00    -0.271 A  
HETATM   25  F   UNL     1     -12.313  13.632  63.172  1.00  0.00    -0.579 F  
HETATM   26  C   UNL     1     -11.133  11.824  64.112  1.00  0.00    -0.442 A  
ENDBRANCH  17  19
ENDBRANCH  14  16
ENDBRANCH  10  14
BRANCH  13  27
HETATM   27  C   UNL     1      -7.175   5.055  69.942  1.00  0.00    -0.055 C  
HETATM   28  C   UNL     1      -6.808   4.409  68.595  1.00  0.00    -0.051 C  
HETATM   29  C   UNL     1      -8.156   4.078  67.952  1.00  0.00    -0.089 C  
HETATM   30  H   UNL     1      -8.510   2.574  71.505  1.00  0.00     0.000 HD 
HETATM   31  C   UNL     1      -9.020   3.621  69.155  1.00  0.00    -0.117 C  
HETATM   32  H   UNL     1      -9.619   1.908  70.005  1.00  0.00     0.000 HD 
HETATM   33  O   UNL     1      -7.786   3.111  71.205  1.00  0.00    -0.049 OA 
HETATM   34  C   UNL     1      -8.339   4.191  70.426  1.00  0.00    -0.065 C  
HETATM   35  O   UNL     1      -9.090   2.188  69.268  1.00  0.00    -0.095 OA 
BRANCH  29  36
HETATM   36  O   UNL     1      -8.749   5.226  67.331  1.00  0.00    -0.109 OA 
BRANCH  36  37
HETATM   37  C   UNL     1     -10.155   5.360  67.594  1.00  0.00    -0.175 C  
BRANCH  37  38
HETATM   38  C   UNL     1     -10.536   6.838  67.606  1.00  0.00    -0.259 C  
HETATM   39  H   UNL     1     -10.022   8.466  66.635  1.00  0.00     0.000 HD 
HETATM   40  O   UNL     1      -9.785   7.546  66.627  1.00  0.00    -0.200 OA 
ENDBRANCH  37  38
ENDBRANCH  36  37
ENDBRANCH  29  36
ENDBRANCH  13  27
ENDBRANCH   4   5
ENDBRANCH   3   4
ENDBRANCH   2   3
TORSDOF 10
ENDMDL
MODEL      100
REMARK 921   NORMALIZED FREE ENERGY PREDICTED BY IDOCK:   -5.10 KCAL/MOL
REMARK 922        TOTAL FREE ENERGY PREDICTED BY IDOCK:  -10.15 KCAL/MOL
REMARK 923 INTER-LIGAND FREE ENERGY PREDICTED BY IDOCK:   -9.01 KCAL/MOL
REMARK 924 INTRA-LIGAND FREE ENERGY PREDICTED BY IDOCK:   -1.14 KCAL/MOL
REMARK 927      BINDING AFFINITY PREDICTED BY RF-SCORE:    0.00 PKD
ROOT
HETATM    1  C   UNL     1     -10.958  11.738  63.339  1.00  0.00    -0.458 C  
HETATM    2  C   UNL     1     -10.243  10.971  64.444  1.00  0.00    -0.409 C  
ENDROOT
BRANCH   2   3
HETATM    3  C   UNL     1      -9.396   9.816  63.900  1.00  0.00    -0.137 C  
BRANCH   3   4
HETATM    4  S   UNL     1      -7.729   9.901  64.649  1.00  0.00    -0.146 SA 
BRANCH   4   5
HETATM    5  C   UNL     1      -8.152   9.998  66.375  1.00  0.00    -0.120 A  
HETATM    6  N   UNL     1      -8.236   8.816  67.026  1.00  0.00    -0.103 NA 
HETATM    7  C   UNL     1      -8.578   8.976  68.316  1.00  0.00    -0.130 A  
HETATM    8  C   UNL     1      -8.827  10.173  68.960  1.00  0.00    -0.166 A  
HETATM    9  N   UNL     1      -9.114   9.942  70.277  1.00  0.00    -0.150 NA 
HETATM   10  C   UNL     1      -8.685  11.352  68.215  1.00  0.00    -0.160 A  
HETATM   11  N   UNL     1      -8.342  11.228  66.900  1.00  0.00    -0.149 NA 
HETATM   12  N   UNL     1      -9.030   8.632  70.492  1.00  0.00    -0.153 NA 
HETATM   13  N   UNL     1      -8.677   8.045  69.319  1.00  0.00    -0.137 NA 
BRANCH  10  14
HETATM   14  N   UNL     1      -8.841  12.615  68.822  1.00  0.00    -0.383 NA 
HETATM   15  H   UNL     1      -8.029  13.157  69.117  1.00  0.00     0.000 HD 
BRANCH  14  16
HETATM   16  C   UNL     1     -10.198  13.129  69.019  1.00  0.00     0.107 C  
HETATM   17  C   UNL     1     -10.434  14.608  69.238  1.00  0.00    -0.218 C  
HETATM   18  C   UNL     1     -10.867  13.947  67.956  1.00  0.00    -0.259 C  
BRANCH  17  19
HETATM   19  C   UNL     1     -11.409  15.015  70.314  1.00  0.00    -0.300 A  
HETATM   20  C   UNL     1     -12.021  16.270  72.307  1.00  0.00    -0.520 A  
HETATM   21  C   UNL     1     -11.089  15.936  71.324  1.00  0.00    -0.197 A  
HETATM   22  F   UNL     1     -11.688  17.162  73.249  1.00  0.00    -0.491 F  
HETATM   23  C   UNL     1     -13.283  15.688  72.307  1.00  0.00    -0.472 A  
HETATM   24  C   UNL     1     -12.694  14.435  70.344  1.00  0.00    -0.362 A  
HETATM   25  F   UNL     1     -14.172  16.010  73.254  1.00  0.00    -0.566 F  
HETATM   26  C   UNL     1     -13.627  14.767  71.330  1.00  0.00    -0.480 A  
ENDBRANCH  17  19
ENDBRANCH  14  16
ENDBRANCH  10  14
BRANCH  13  27
HETATM   27  C   UNL     1      -8.425   6.619  69.337  1.00  0.00    -0.131 C  
HETATM   28  C   UNL     1      -9.515   5.804  68.621  1.00  0.00    -0.144 C  
HETATM   29  C   UNL     1     -10.573   5.556  69.697  1.00  0.00    -0.305 C  
HETATM   30  H   UNL     1      -7.295   4.468  71.454  1.00  0.00     0.000 HD 
HETATM   31  C   UNL     1      -9.731   5.319  70.975  1.00  0.00    -0.182 C  
HETATM   32  H   UNL     1      -9.050   3.776  72.058  1.00  0.00     0.000 HD 
HETATM   33  O   UNL     1      -7.351   4.891  70.605  1.00  0.00    -0.057 OA 
HETATM   34  C   UNL     1      -8.336   5.939  70.703  1.00  0.00    -0.124 C  
HETATM   35  O   UNL     1      -9.567   3.920  71.275  1.00  0.00    -0.148 OA 
BRANCH  29  36
HETATM   36  O   UNL     1     -11.429   6.691  69.878  1.00  0.00    -0.358 OA 
BRANCH  36  37
HETATM   37  C   UNL     1     -12.014   6.767  71.187  1.00  0.00    -0.370 C  
BRANCH  37  38
HETATM   38  C   UNL     1     -12.417   8.209  71.486  1.00  0.00    -0.307 C  
HETATM   39  H   UNL     1     -13.922   9.135  72.344  1.00  0.00     0.000 HD 
HETATM   40  O   UNL     1     -13.671   8.237  72.158  1.00  0.00    -0.328 OA 
ENDBRANCH  37  38
ENDBRANCH  36  37
ENDBRANCH  29  36
ENDBRANCH  13  27
ENDBRANCH   4   5
ENDBRANCH   3   4
ENDBRANCH   2   3
TORSDOF 10
ENDMDL
MODEL      101
REMARK 921   NORMALIZED FREE ENERGY PREDICTED BY IDOCK:   -5.09 KCAL/MOL
REMARK 922        TOTAL FREE ENERGY PREDICTED BY IDOCK:  -10.13 KCAL/MOL
REMARK 923 INTER-LIGAND FREE ENERGY PREDICTED BY IDOCK:   -9.09 KCAL/MOL
REMARK 924 INTRA-LIGAND FREE ENERGY PREDICTED BY IDOCK:   -1.04 KCAL/MOL
REMARK 927      BINDING AFFINITY PREDICTED BY RF-SCORE:    0.00 PKD
ROOT
HETATM    1  C   UNL     1      -8.571   7.732  74.172  1.00  0.00    -0.307 C  
HETATM    2  C   UNL     1      -9.357   8.104  72.922  1.00  0.00    -0.343 C  
ENDROOT
BRANCH   2   3
HETATM    3  C   UNL     1     -10.796   7.578  72.956  1.00  0.00    -0.392 C  
BRANCH   3   4
HETATM    4  S   UNL     1     -11.307   7.142  71.255  1.00  0.00    -0.281 SA 
BRANCH   4   5
HETATM    5  C   UNL     1     -10.969   8.671  70.411  1.00  0.00    -0.235 A  
HETATM    6  N   UNL     1      -9.944   8.642  69.530  1.00  0.00    -0.191 NA 
HETATM    7  C   UNL     1      -9.742   9.839  68.952  1.00  0.00    -0.171 A  
HETATM    8  C   UNL     1     -10.459  10.997  69.185  1.00  0.00    -0.210 A  
HETATM    9  N   UNL     1      -9.987  12.004  68.390  1.00  0.00    -0.210 NA 
HETATM   10  C   UNL     1     -11.527  10.928  70.091  1.00  0.00    -0.319 A  
HETATM   11  N   UNL     1     -11.759   9.728  70.700  1.00  0.00    -0.286 NA 
HETATM   12  N   UNL     1      -9.005  11.511  67.641  1.00  0.00    -0.156 NA 
HETATM   13  N   UNL     1      -8.872  10.195  67.954  1.00  0.00    -0.125 NA 
BRANCH  10  14
HETATM   14  N   UNL     1     -12.357  12.045  70.319  1.00  0.00    -0.240 NA 
HETATM   15  H   UNL     1     -13.336  11.926  70.578  1.00  0.00     0.000 HD 
BRANCH  14  16
HETATM   16  C   UNL     1     -11.777  13.382  70.173  1.00  0.00    -0.196 C  
HETATM   17  C   UNL     1     -12.488  14.441  69.358  1.00  0.00    -0.113 C  
HETATM   18  C   UNL     1     -12.397  14.563  70.856  1.00  0.00    -0.415 C  
BRANCH  17  19
HETATM   19  C   UNL     1     -11.660  15.285  68.421  1.00  0.00    -0.365 A  
HETATM   20  C   UNL     1     -10.649  15.744  66.256  1.00  0.00    -0.310 A  
HETATM   21  C   UNL     1     -11.435  14.937  67.080  1.00  0.00    -0.344 A  
HETATM   22  F   UNL     1     -10.464  15.389  64.978  1.00  0.00    -0.374 F  
HETATM   23  C   UNL     1     -10.068  16.903  66.753  1.00  0.00    -0.294 A  
HETATM   24  C   UNL     1     -11.052  16.464  68.900  1.00  0.00    -0.328 A  
HETATM   25  F   UNL     1      -9.313  17.672  65.959  1.00  0.00    -0.264 F  
HETATM   26  C   UNL     1     -10.263  17.270  68.076  1.00  0.00    -0.332 A  
ENDBRANCH  17  19
ENDBRANCH  14  16
ENDBRANCH  10  14
BRANCH  13  27
HETATM   27  C   UNL     1      -7.922   9.420  67.182  1.00  0.00    -0.102 C  
HETATM   28  C   UNL     1      -7.682   9.988  65.774  1.00  0.00    -0.122 C  
HETATM   29  C   UNL     1      -8.780   9.357  64.916  1.00  0.00    -0.190 C  
HETATM   30  H   UNL     1      -7.256   6.299  66.742  1.00  0.00     0.000 HD 
HETATM   31  C   UNL     1      -8.889   7.919  65.482  1.00  0.00    -0.031 C  
HETATM   32  H   UNL     1      -8.236   6.078  65.035  1.00  0.00     0.000 HD 
HETATM   33  O   UNL     1      -7.040   7.207  66.916  1.00  0.00    -0.077 OA 
HETATM   34  C   UNL     1      -8.271   7.959  66.903  1.00  0.00    -0.116 C  
HETATM   35  O   UNL     1      -8.169   6.959  64.688  1.00  0.00    -0.111 OA 
BRANCH  29  36
HETATM   36  O   UNL     1     -10.032  10.039  65.064  1.00  0.00    -0.326 OA 
BRANCH  36  37
HETATM   37  C   UNL     1     -10.310  10.969  64.005  1.00  0.00    -0.371 C  
BRANCH  37  38
HETATM   38  C   UNL     1     -11.291  12.029  64.496  1.00  0.00    -0.330 C  
HETATM   39  H   UNL     1     -12.327  13.504  63.717  1.00  0.00     0.000 HD 
HETATM   40  O   UNL     1     -11.717  12.844  63.411  1.00  0.00    -0.514 OA 
ENDBRANCH  37  38
ENDBRANCH  36  37
ENDBRANCH  29  36
ENDBRANCH  13  27
ENDBRANCH   4   5
ENDBRANCH   3   4
ENDBRANCH   2   3
TORSDOF 10
ENDMDL
MODEL      102
REMARK 921   NORMALIZED FREE ENERGY PREDICTED BY IDOCK:   -5.09 KCAL/MOL
REMARK 922        TOTAL FREE ENERGY PREDICTED BY IDOCK:  -10.12 KCAL/MOL
REMARK 923 INTER-LIGAND FREE ENERGY PREDICTED BY IDOCK:   -8.99 KCAL/MOL
REMARK 924 INTRA-LIGAND FREE ENERGY PREDICTED BY IDOCK:   -1.13 KCAL/MOL
REMARK 927      BINDING AFFINITY PREDICTED BY RF-SCORE:    0.00 PKD
ROOT
HETATM    1  C   UNL     1      -7.342  16.663  69.232  1.00  0.00    -0.184 C  
HETATM    2  C   UNL     1      -6.113  15.771  69.338  1.00  0.00    -0.138 C  
ENDROOT
BRANCH   2   3
HETATM    3  C   UNL     1      -6.454  14.360  69.830  1.00  0.00    -0.152 C  
BRANCH   3   4
HETATM    4  S   UNL     1      -6.165  13.172  68.470  1.00  0.00    -0.089 SA 
BRANCH   4   5
HETATM    5  C   UNL     1      -7.751  12.370  68.396  1.00  0.00    -0.144 A  
HETATM    6  N   UNL     1      -8.797  13.164  68.072  1.00  0.00    -0.184 NA 
HETATM    7  C   UNL     1      -9.958  12.487  68.058  1.00  0.00    -0.219 A  
HETATM    8  C   UNL     1     -10.131  11.143  68.328  1.00  0.00    -0.185 A  
HETATM    9  N   UNL     1     -11.448  10.804  68.182  1.00  0.00    -0.432 NA 
HETATM   10  C   UNL     1      -8.986  10.388  68.623  1.00  0.00    -0.146 A  
HETATM   11  N   UNL     1      -7.790  11.044  68.650  1.00  0.00    -0.128 NA 
HETATM   12  N   UNL     1     -12.112  11.892  67.802  1.00  0.00    -0.527 NA 
HETATM   13  N   UNL     1     -11.212  12.905  67.695  1.00  0.00    -0.263 NA 
BRANCH  10  14
HETATM   14  N   UNL     1      -9.071   8.995  68.828  1.00  0.00    -0.136 NA 
HETATM   15  H   UNL     1      -8.930   8.343  68.057  1.00  0.00     0.000 HD 
BRANCH  14  16
HETATM   16  C   UNL     1      -9.367   8.509  70.178  1.00  0.00    -0.161 C  
HETATM   17  C   UNL     1      -8.575   7.363  70.771  1.00  0.00    -0.137 C  
HETATM   18  C   UNL     1      -8.413   8.761  71.307  1.00  0.00    -0.238 C  
BRANCH  17  19
HETATM   19  C   UNL     1      -9.334   6.290  71.511  1.00  0.00    -0.155 A  
HETATM   20  C   UNL     1     -11.350   5.387  72.531  1.00  0.00    -0.225 A  
HETATM   21  C   UNL     1     -10.695   6.402  71.831  1.00  0.00    -0.262 A  
HETATM   22  F   UNL     1     -12.653   5.519  72.810  1.00  0.00    -0.240 F  
HETATM   23  C   UNL     1     -10.659   4.250  72.931  1.00  0.00    -0.180 A  
HETATM   24  C   UNL     1      -8.656   5.128  71.936  1.00  0.00    -0.131 A  
HETATM   25  F   UNL     1     -11.290   3.281  73.604  1.00  0.00    -0.297 F  
HETATM   26  C   UNL     1      -9.310   4.114  72.639  1.00  0.00    -0.155 A  
ENDBRANCH  17  19
ENDBRANCH  14  16
ENDBRANCH  10  14
BRANCH  13  27
HETATM   27  C   UNL     1     -11.696  14.174  67.191  1.00  0.00    -0.403 C  
HETATM   28  C   UNL     1     -12.758  14.021  66.089  1.00  0.00    -0.309 C  
HETATM   29  C   UNL     1     -11.950  13.900  64.796  1.00  0.00    -0.406 C  
HETATM   30  H   UNL     1     -10.424  17.045  66.468  1.00  0.00     0.000 HD 
HETATM   31  C   UNL     1     -10.777  14.887  65.017  1.00  0.00    -0.431 C  
HETATM   32  H   UNL     1     -10.279  16.762  64.512  1.00  0.00     0.000 HD 
HETATM   33  O   UNL     1     -11.060  16.462  66.868  1.00  0.00    -0.090 OA 
HETATM   34  C   UNL     1     -10.674  15.110  66.548  1.00  0.00    -0.310 C  
HETATM   35  O   UNL     1     -10.998  16.157  64.377  1.00  0.00    -0.612 OA 
BRANCH  29  36
HETATM   36  O   UNL     1     -11.443  12.573  64.603  1.00  0.00    -0.305 OA 
BRANCH  36  37
HETATM   37  C   UNL     1     -11.042  12.301  63.251  1.00  0.00    -0.319 C  
BRANCH  37  38
HETATM   38  C   UNL     1      -9.799  11.414  63.253  1.00  0.00    -0.404 C  
HETATM   39  H   UNL     1      -9.251   9.705  64.050  1.00  0.00     0.000 HD 
HETATM   40  O   UNL     1     -10.024  10.257  64.049  1.00  0.00    -0.299 OA 
ENDBRANCH  37  38
ENDBRANCH  36  37
ENDBRANCH  29  36
ENDBRANCH  13  27
ENDBRANCH   4   5
ENDBRANCH   3   4
ENDBRANCH   2   3
TORSDOF 10
ENDMDL
MODEL      103
REMARK 921   NORMALIZED FREE ENERGY PREDICTED BY IDOCK:   -5.07 KCAL/MOL
REMARK 922        TOTAL FREE ENERGY PREDICTED BY IDOCK:  -10.10 KCAL/MOL
REMARK 923 INTER-LIGAND FREE ENERGY PREDICTED BY IDOCK:   -8.65 KCAL/MOL
REMARK 924 INTRA-LIGAND FREE ENERGY PREDICTED BY IDOCK:   -1.45 KCAL/MOL
REMARK 927      BINDING AFFINITY PREDICTED BY RF-SCORE:    0.00 PKD
ROOT
HETATM    1  C   UNL     1     -10.856   7.602  71.929  1.00  0.00    -0.274 C  
HETATM    2  C   UNL     1     -12.071   8.486  72.176  1.00  0.00    -0.449 C  
ENDROOT
BRANCH   2   3
HETATM    3  C   UNL     1     -11.820   9.947  71.788  1.00  0.00    -0.184 C  
BRANCH   3   4
HETATM    4  S   UNL     1     -12.476  10.235  70.105  1.00  0.00    -0.026 SA 
BRANCH   4   5
HETATM    5  C   UNL     1     -11.050  10.952  69.319  1.00  0.00    -0.248 A  
HETATM    6  N   UNL     1     -11.277  12.078  68.604  1.00  0.00    -0.236 NA 
HETATM    7  C   UNL     1     -10.156  12.542  68.028  1.00  0.00    -0.220 A  
HETATM    8  C   UNL     1      -8.893  11.987  68.116  1.00  0.00    -0.182 A  
HETATM    9  N   UNL     1      -7.998  12.756  67.425  1.00  0.00    -0.175 NA 
HETATM   10  C   UNL     1      -8.744  10.838  68.905  1.00  0.00    -0.152 A  
HETATM   11  N   UNL     1      -9.863  10.335  69.503  1.00  0.00    -0.231 NA 
HETATM   12  N   UNL     1      -8.653  13.798  66.922  1.00  0.00    -0.162 NA 
HETATM   13  N   UNL     1      -9.952  13.691  67.308  1.00  0.00    -0.237 NA 
BRANCH  10  14
HETATM   14  N   UNL     1      -7.473  10.262  69.111  1.00  0.00    -0.094 NA 
HETATM   15  H   UNL     1      -6.708  10.809  69.505  1.00  0.00     0.000 HD 
BRANCH  14  16
HETATM   16  C   UNL     1      -7.279   8.858  68.743  1.00  0.00    -0.075 C  
HETATM   17  C   UNL     1      -7.237   8.445  67.288  1.00  0.00    -0.084 C  
HETATM   18  C   UNL     1      -5.990   8.399  68.130  1.00  0.00    -0.046 C  
BRANCH  17  19
HETATM   19  C   UNL     1      -7.993   7.204  66.883  1.00  0.00    -0.115 A  
HETATM   20  C   UNL     1     -10.022   5.871  66.724  1.00  0.00    -0.175 A  
HETATM   21  C   UNL     1      -9.370   7.045  67.103  1.00  0.00    -0.166 A  
HETATM   22  F   UNL     1     -11.339   5.756  66.937  1.00  0.00    -0.245 F  
HETATM   23  C   UNL     1      -9.315   4.834  66.130  1.00  0.00    -0.152 A  
HETATM   24  C   UNL     1      -7.299   6.132  66.284  1.00  0.00    -0.084 A  
HETATM   25  F   UNL     1      -9.945   3.708  65.771  1.00  0.00    -0.167 F  
HETATM   26  C   UNL     1      -7.952   4.955  65.908  1.00  0.00    -0.107 A  
ENDBRANCH  17  19
ENDBRANCH  14  16
ENDBRANCH  10  14
BRANCH  13  27
HETATM   27  C   UNL     1     -10.841  14.779  66.957  1.00  0.00    -0.315 C  
HETATM   28  C   UNL     1     -12.306  14.336  66.806  1.00  0.00    -0.280 C  
HETATM   29  C   UNL     1     -12.417  13.876  65.351  1.00  0.00    -0.501 C  
HETATM   30  H   UNL     1     -10.742  17.355  65.025  1.00  0.00     0.000 HD 
HETATM   31  C   UNL     1     -11.524  14.889  64.591  1.00  0.00    -0.379 C  
HETATM   32  H   UNL     1     -11.741  16.562  63.509  1.00  0.00     0.000 HD 
HETATM   33  O   UNL     1     -10.910  16.899  65.841  1.00  0.00    -0.193 OA 
HETATM   34  C   UNL     1     -10.572  15.512  65.643  1.00  0.00    -0.373 C  
HETATM   35  O   UNL     1     -12.288  15.941  63.975  1.00  0.00    -0.724 OA 
BRANCH  29  36
HETATM   36  O   UNL     1     -11.913  12.546  65.171  1.00  0.00    -0.395 OA 
BRANCH  36  37
HETATM   37  C   UNL     1     -11.966  12.091  63.810  1.00  0.00    -0.490 C  
BRANCH  37  38
HETATM   38  C   UNL     1     -10.603  11.538  63.399  1.00  0.00    -0.395 C  
HETATM   39  H   UNL     1      -9.385  10.120  63.999  1.00  0.00     0.000 HD 
HETATM   40  O   UNL     1     -10.233  10.464  64.255  1.00  0.00    -0.323 OA 
ENDBRANCH  37  38
ENDBRANCH  36  37
ENDBRANCH  29  36
ENDBRANCH  13  27
ENDBRANCH   4   5
ENDBRANCH   3   4
ENDBRANCH   2   3
TORSDOF 10
ENDMDL
MODEL      104
REMARK 921   NORMALIZED FREE ENERGY PREDICTED BY IDOCK:   -5.06 KCAL/MOL
REMARK 922        TOTAL FREE ENERGY PREDICTED BY IDOCK:  -10.09 KCAL/MOL
REMARK 923 INTER-LIGAND FREE ENERGY PREDICTED BY IDOCK:   -8.95 KCAL/MOL
REMARK 924 INTRA-LIGAND FREE ENERGY PREDICTED BY IDOCK:   -1.14 KCAL/MOL
REMARK 927      BINDING AFFINITY PREDICTED BY RF-SCORE:    0.00 PKD
ROOT
HETATM    1  C   UNL     1     -12.602  13.295  65.519  1.00  0.00    -0.505 C  
HETATM    2  C   UNL     1     -11.923  14.146  66.583  1.00  0.00    -0.470 C  
ENDROOT
BRANCH   2   3
HETATM    3  C   UNL     1     -11.876  13.449  67.948  1.00  0.00    -0.357 C  
BRANCH   3   4
HETATM    4  S   UNL     1     -11.204  14.615  69.186  1.00  0.00    -0.284 SA 
BRANCH   4   5
HETATM    5  C   UNL     1      -9.494  14.660  68.696  1.00  0.00    -0.211 A  
HETATM    6  N   UNL     1      -8.920  15.885  68.679  1.00  0.00    -0.192 NA 
HETATM    7  C   UNL     1      -7.637  15.833  68.280  1.00  0.00    -0.127 A  
HETATM    8  C   UNL     1      -6.931  14.701  67.919  1.00  0.00    -0.159 A  
HETATM    9  N   UNL     1      -5.644  15.037  67.604  1.00  0.00    -0.325 NA 
HETATM   10  C   UNL     1      -7.597  13.470  67.999  1.00  0.00    -0.143 A  
HETATM   11  N   UNL     1      -8.902  13.484  68.396  1.00  0.00    -0.173 NA 
HETATM   12  N   UNL     1      -5.506  16.348  67.779  1.00  0.00    -0.121 NA 
HETATM   13  N   UNL     1      -6.698  16.831  68.217  1.00  0.00    -0.150 NA 
BRANCH  10  14
HETATM   14  N   UNL     1      -6.919  12.263  67.727  1.00  0.00    -0.102 NA 
HETATM   15  H   UNL     1      -6.289  12.185  66.929  1.00  0.00     0.000 HD 
BRANCH  14  16
HETATM   16  C   UNL     1      -7.144  11.124  68.619  1.00  0.00    -0.090 C  
HETATM   17  C   UNL     1      -8.283  10.161  68.363  1.00  0.00    -0.112 C  
HETATM   18  C   UNL     1      -6.856   9.725  68.161  1.00  0.00    -0.069 C  
BRANCH  17  19
HETATM   19  C   UNL     1      -9.112   9.717  69.542  1.00  0.00    -0.227 A  
HETATM   20  C   UNL     1     -11.207   9.563  70.771  1.00  0.00    -0.317 A  
HETATM   21  C   UNL     1     -10.485   9.983  69.651  1.00  0.00    -0.275 A  
HETATM   22  F   UNL     1     -12.519   9.822  70.838  1.00  0.00    -0.340 F  
HETATM   23  C   UNL     1     -10.572   8.882  71.802  1.00  0.00    -0.362 A  
HETATM   24  C   UNL     1      -8.493   9.031  70.607  1.00  0.00    -0.229 A  
HETATM   25  F   UNL     1     -11.267   8.485  72.874  1.00  0.00    -0.394 F  
HETATM   26  C   UNL     1      -9.214   8.614  71.729  1.00  0.00    -0.338 A  
ENDBRANCH  17  19
ENDBRANCH  14  16
ENDBRANCH  10  14
BRANCH  13  27
HETATM   27  C   UNL     1      -6.757  18.233  68.574  1.00  0.00    -0.238 C  
HETATM   28  C   UNL     1      -8.138  18.864  68.322  1.00  0.00    -0.353 C  
HETATM   29  C   UNL     1      -8.088  19.315  66.861  1.00  0.00    -0.267 C  
HETATM   30  H   UNL     1      -4.822  20.797  68.326  1.00  0.00     0.000 HD 
HETATM   31  C   UNL     1      -6.635  19.827  66.697  1.00  0.00    -0.191 C  
HETATM   32  H   UNL     1      -5.651  21.573  66.703  1.00  0.00     0.000 HD 
HETATM   33  O   UNL     1      -5.410  20.204  68.780  1.00  0.00    -0.203 OA 
HETATM   34  C   UNL     1      -5.812  19.185  67.843  1.00  0.00    -0.198 C  
HETATM   35  O   UNL     1      -6.542  21.259  66.804  1.00  0.00    -0.371 OA 
BRANCH  29  36
HETATM   36  O   UNL     1      -8.330  18.229  65.957  1.00  0.00    -0.486 OA 
BRANCH  36  37
HETATM   37  C   UNL     1      -9.696  17.787  65.941  1.00  0.00    -0.017 C  
BRANCH  37  38
HETATM   38  C   UNL     1     -10.628  18.989  66.072  1.00  0.00    -0.423 C  
HETATM   39  H   UNL     1     -11.659  20.149  64.869  1.00  0.00     0.000 HD 
HETATM   40  O   UNL     1     -11.080  19.400  64.787  1.00  0.00    -0.133 OA 
ENDBRANCH  37  38
ENDBRANCH  36  37
ENDBRANCH  29  36
ENDBRANCH  13  27
ENDBRANCH   4   5
ENDBRANCH   3   4
ENDBRANCH   2   3
TORSDOF 10
ENDMDL
MODEL      105
REMARK 921   NORMALIZED FREE ENERGY PREDICTED BY IDOCK:   -5.05 KCAL/MOL
REMARK 922        TOTAL FREE ENERGY PREDICTED BY IDOCK:  -10.06 KCAL/MOL
REMARK 923 INTER-LIGAND FREE ENERGY PREDICTED BY IDOCK:   -7.83 KCAL/MOL
REMARK 924 INTRA-LIGAND FREE ENERGY PREDICTED BY IDOCK:   -2.24 KCAL/MOL
REMARK 927      BINDING AFFINITY PREDICTED BY RF-SCORE:    0.00 PKD
ROOT
HETATM    1  C   UNL     1     -12.454  12.591  64.609  1.00  0.00    -0.539 C  
HETATM    2  C   UNL     1     -10.974  12.284  64.432  1.00  0.00    -0.374 C  
ENDROOT
BRANCH   2   3
HETATM    3  C   UNL     1     -10.445  11.317  65.497  1.00  0.00    -0.265 C  
BRANCH   3   4
HETATM    4  S   UNL     1     -11.322  11.632  67.070  1.00  0.00    -0.261 SA 
BRANCH   4   5
HETATM    5  C   UNL     1     -10.227  10.826  68.219  1.00  0.00    -0.167 A  
HETATM    6  N   UNL     1     -10.790  10.418  69.379  1.00  0.00    -0.231 NA 
HETATM    7  C   UNL     1      -9.895   9.839  70.197  1.00  0.00    -0.255 A  
HETATM    8  C   UNL     1      -8.549   9.650  69.944  1.00  0.00    -0.203 A  
HETATM    9  N   UNL     1      -7.965   8.997  70.993  1.00  0.00    -0.178 NA 
HETATM   10  C   UNL     1      -8.057  10.075  68.701  1.00  0.00    -0.102 A  
HETATM   11  N   UNL     1      -8.939  10.672  67.846  1.00  0.00    -0.136 NA 
HETATM   12  N   UNL     1      -8.908   8.743  71.896  1.00  0.00    -0.344 NA 
HETATM   13  N   UNL     1     -10.083   9.222  71.407  1.00  0.00    -0.310 NA 
BRANCH  10  14
HETATM   14  N   UNL     1      -6.715   9.843  68.336  1.00  0.00    -0.055 NA 
HETATM   15  H   UNL     1      -6.018  10.584  68.409  1.00  0.00     0.000 HD 
BRANCH  14  16
HETATM   16  C   UNL     1      -6.347   8.511  67.851  1.00  0.00    -0.057 C  
HETATM   17  C   UNL     1      -6.836   8.025  66.503  1.00  0.00    -0.067 C  
HETATM   18  C   UNL     1      -5.381   8.352  66.715  1.00  0.00    -0.032 C  
BRANCH  17  19
HETATM   19  C   UNL     1      -7.347   6.609  66.405  1.00  0.00    -0.073 A  
HETATM   20  C   UNL     1      -8.755   4.888  65.418  1.00  0.00    -0.143 A  
HETATM   21  C   UNL     1      -8.302   6.208  65.459  1.00  0.00    -0.147 A  
HETATM   22  F   UNL     1      -9.658   4.534  64.495  1.00  0.00    -0.160 F  
HETATM   23  C   UNL     1      -8.273   3.951  66.323  1.00  0.00    -0.104 A  
HETATM   24  C   UNL     1      -6.880   5.638  67.315  1.00  0.00    -0.064 A  
HETATM   25  F   UNL     1      -8.712   2.687  66.281  1.00  0.00    -0.102 F  
HETATM   26  C   UNL     1      -7.336   4.318  67.277  1.00  0.00    -0.069 A  
ENDBRANCH  17  19
ENDBRANCH  14  16
ENDBRANCH  10  14
BRANCH  13  27
HETATM   27  C   UNL     1     -11.280   8.966  72.182  1.00  0.00    -0.292 C  
HETATM   28  C   UNL     1     -11.239   7.622  72.929  1.00  0.00    -0.426 C  
HETATM   29  C   UNL     1     -11.768   6.607  71.914  1.00  0.00    -0.313 C  
HETATM   30  H   UNL     1     -14.449   9.402  71.806  1.00  0.00     0.000 HD 
HETATM   31  C   UNL     1     -12.889   7.388  71.182  1.00  0.00    -0.260 C  
HETATM   32  H   UNL     1     -14.885   7.554  71.241  1.00  0.00     0.000 HD 
HETATM   33  O   UNL     1     -13.625   9.447  72.277  1.00  0.00    -0.447 OA 
HETATM   34  C   UNL     1     -12.604   8.893  71.424  1.00  0.00    -0.300 C  
HETATM   35  O   UNL     1     -14.199   7.075  71.690  1.00  0.00    -0.369 OA 
BRANCH  29  36
HETATM   36  O   UNL     1     -10.758   6.208  70.979  1.00  0.00    -0.237 OA 
BRANCH  36  37
HETATM   37  C   UNL     1     -11.250   6.029  69.642  1.00  0.00    -0.357 C  
BRANCH  37  38
HETATM   38  C   UNL     1     -10.207   6.519  68.640  1.00  0.00    -0.172 C  
HETATM   39  H   UNL     1     -10.165   7.682  67.058  1.00  0.00     0.000 HD 
HETATM   40  O   UNL     1     -10.814   7.377  67.682  1.00  0.00    -0.215 OA 
ENDBRANCH  37  38
ENDBRANCH  36  37
ENDBRANCH  29  36
ENDBRANCH  13  27
ENDBRANCH   4   5
ENDBRANCH   3   4
ENDBRANCH   2   3
TORSDOF 10
ENDMDL
MODEL      106
REMARK 921   NORMALIZED FREE ENERGY PREDICTED BY IDOCK:   -5.03 KCAL/MOL
REMARK 922        TOTAL FREE ENERGY PREDICTED BY IDOCK:  -10.03 KCAL/MOL
REMARK 923 INTER-LIGAND FREE ENERGY PREDICTED BY IDOCK:   -8.56 KCAL/MOL
REMARK 924 INTRA-LIGAND FREE ENERGY PREDICTED BY IDOCK:   -1.47 KCAL/MOL
REMARK 927      BINDING AFFINITY PREDICTED BY RF-SCORE:    0.00 PKD
ROOT
HETATM    1  C   UNL     1      -8.032   5.489  66.562  1.00  0.00    -0.101 C  
HETATM    2  C   UNL     1      -9.096   6.513  66.190  1.00  0.00    -0.146 C  
ENDROOT
BRANCH   2   3
HETATM    3  C   UNL     1      -8.511   7.722  65.451  1.00  0.00    -0.110 C  
BRANCH   3   4
HETATM    4  S   UNL     1      -7.675   8.808  66.661  1.00  0.00    -0.093 SA 
BRANCH   4   5
HETATM    5  C   UNL     1      -9.056   9.768  67.244  1.00  0.00    -0.134 A  
HETATM    6  N   UNL     1      -9.455  10.775  66.435  1.00  0.00    -0.168 NA 
HETATM    7  C   UNL     1     -10.487  11.461  66.957  1.00  0.00    -0.236 A  
HETATM    8  C   UNL     1     -11.111  11.217  68.166  1.00  0.00    -0.259 A  
HETATM    9  N   UNL     1     -12.140  12.099  68.344  1.00  0.00    -0.356 NA 
HETATM   10  C   UNL     1     -10.652  10.131  68.925  1.00  0.00    -0.215 A  
HETATM   11  N   UNL     1      -9.603   9.414  68.428  1.00  0.00    -0.145 NA 
HETATM   12  N   UNL     1     -12.203  12.881  67.270  1.00  0.00    -0.348 NA 
HETATM   13  N   UNL     1     -11.226  12.481  66.414  1.00  0.00    -0.290 NA 
BRANCH  10  14
HETATM   14  N   UNL     1     -11.291   9.769  70.129  1.00  0.00    -0.274 NA 
HETATM   15  H   UNL     1     -12.074  10.314  70.490  1.00  0.00     0.000 HD 
BRANCH  14  16
HETATM   16  C   UNL     1     -10.803   8.590  70.847  1.00  0.00    -0.232 C  
HETATM   17  C   UNL     1      -9.830   8.741  71.997  1.00  0.00    -0.376 C  
HETATM   18  C   UNL     1     -11.251   8.310  72.251  1.00  0.00    -0.443 C  
BRANCH  17  19
HETATM   19  C   UNL     1      -8.665   7.786  72.066  1.00  0.00    -0.162 A  
HETATM   20  C   UNL     1      -6.447   7.038  71.401  1.00  0.00    -0.041 A  
HETATM   21  C   UNL     1      -7.493   7.958  71.314  1.00  0.00    -0.073 A  
HETATM   22  F   UNL     1      -5.337   7.239  70.679  1.00  0.00    -0.022 F  
HETATM   23  C   UNL     1      -6.554   5.929  72.230  1.00  0.00    -0.059 A  
HETATM   24  C   UNL     1      -8.748   6.647  72.894  1.00  0.00    -0.129 A  
HETATM   25  F   UNL     1      -5.549   5.048  72.309  1.00  0.00    -0.007 F  
HETATM   26  C   UNL     1      -7.703   5.724  72.979  1.00  0.00    -0.100 A  
ENDBRANCH  17  19
ENDBRANCH  14  16
ENDBRANCH  10  14
BRANCH  13  27
HETATM   27  C   UNL     1     -11.168  13.129  65.120  1.00  0.00    -0.294 C  
HETATM   28  C   UNL     1      -9.805  13.781  64.831  1.00  0.00    -0.032 C  
HETATM   29  C   UNL     1      -9.915  15.178  65.444  1.00  0.00    -0.330 C  
HETATM   30  H   UNL     1     -13.139  14.922  63.310  1.00  0.00     0.000 HD 
HETATM   31  C   UNL     1     -11.379  15.585  65.138  1.00  0.00    -0.241 C  
HETATM   32  H   UNL     1     -12.381  16.687  63.797  1.00  0.00     0.000 HD 
HETATM   33  O   UNL     1     -12.528  14.213  63.471  1.00  0.00    -0.817 OA 
HETATM   34  C   UNL     1     -12.151  14.270  64.862  1.00  0.00    -0.435 C  
HETATM   35  O   UNL     1     -11.483  16.437  63.983  1.00  0.00    -1.048 OA 
BRANCH  29  36
HETATM   36  O   UNL     1      -9.696  15.161  66.860  1.00  0.00    -0.228 OA 
BRANCH  36  37
HETATM   37  C   UNL     1      -8.339  15.441  67.236  1.00  0.00    -0.199 C  
BRANCH  37  38
HETATM   38  C   UNL     1      -8.314  16.133  68.596  1.00  0.00    -0.211 C  
HETATM   39  H   UNL     1      -7.455  15.852  70.339  1.00  0.00     0.000 HD 
HETATM   40  O   UNL     1      -7.470  15.421  69.493  1.00  0.00    -0.204 OA 
ENDBRANCH  37  38
ENDBRANCH  36  37
ENDBRANCH  29  36
ENDBRANCH  13  27
ENDBRANCH   4   5
ENDBRANCH   3   4
ENDBRANCH   2   3
TORSDOF 10
ENDMDL
MODEL      107
REMARK 921   NORMALIZED FREE ENERGY PREDICTED BY IDOCK:   -5.02 KCAL/MOL
REMARK 922        TOTAL FREE ENERGY PREDICTED BY IDOCK:  -10.02 KCAL/MOL
REMARK 923 INTER-LIGAND FREE ENERGY PREDICTED BY IDOCK:   -8.62 KCAL/MOL
REMARK 924 INTRA-LIGAND FREE ENERGY PREDICTED BY IDOCK:   -1.40 KCAL/MOL
REMARK 927      BINDING AFFINITY PREDICTED BY RF-SCORE:    0.00 PKD
ROOT
HETATM    1  C   UNL     1      -7.850   5.948  65.250  1.00  0.00    -0.105 C  
HETATM    2  C   UNL     1      -7.300   6.944  66.262  1.00  0.00    -0.076 C  
ENDROOT
BRANCH   2   3
HETATM    3  C   UNL     1      -6.723   6.257  67.505  1.00  0.00    -0.061 C  
BRANCH   3   4
HETATM    4  S   UNL     1      -6.257   7.536  68.726  1.00  0.00    -0.032 SA 
BRANCH   4   5
HETATM    5  C   UNL     1      -7.863   8.018  69.322  1.00  0.00    -0.114 A  
HETATM    6  N   UNL     1      -8.604   7.032  69.878  1.00  0.00    -0.140 NA 
HETATM    7  C   UNL     1      -9.807   7.474  70.282  1.00  0.00    -0.183 A  
HETATM    8  C   UNL     1     -10.290   8.765  70.175  1.00  0.00    -0.208 A  
HETATM    9  N   UNL     1     -11.539   8.841  70.726  1.00  0.00    -0.275 NA 
HETATM   10  C   UNL     1      -9.441   9.730  69.615  1.00  0.00    -0.219 A  
HETATM   11  N   UNL     1      -8.212   9.316  69.189  1.00  0.00    -0.107 NA 
HETATM   12  N   UNL     1     -11.853   7.640  71.202  1.00  0.00    -0.290 NA 
HETATM   13  N   UNL     1     -10.798   6.816  70.965  1.00  0.00    -0.235 NA 
BRANCH  10  14
HETATM   14  N   UNL     1      -9.830  11.084  69.547  1.00  0.00    -0.428 NA 
HETATM   15  H   UNL     1      -9.602  11.732  70.300  1.00  0.00     0.000 HD 
BRANCH  14  16
HETATM   16  C   UNL     1     -10.571  11.535  68.367  1.00  0.00    -0.201 C  
HETATM   17  C   UNL     1      -9.843  11.840  67.075  1.00  0.00    -0.213 C  
HETATM   18  C   UNL     1     -10.740  10.635  67.180  1.00  0.00    -0.327 C  
BRANCH  17  19
HETATM   19  C   UNL     1     -10.236  13.085  66.320  1.00  0.00    -0.291 A  
HETATM   20  C   UNL     1     -11.569  14.274  64.668  1.00  0.00    -0.408 A  
HETATM   21  C   UNL     1     -11.252  13.099  65.352  1.00  0.00    -0.315 A  
HETATM   22  F   UNL     1     -12.552  14.257  63.759  1.00  0.00    -0.438 F  
HETATM   23  C   UNL     1     -10.876  15.449  64.930  1.00  0.00    -0.425 A  
HETATM   24  C   UNL     1      -9.545  14.291  66.559  1.00  0.00    -0.313 A  
HETATM   25  F   UNL     1     -11.183  16.573  64.269  1.00  0.00    -0.493 F  
HETATM   26  C   UNL     1      -9.860  15.466  65.873  1.00  0.00    -0.387 A  
ENDBRANCH  17  19
ENDBRANCH  14  16
ENDBRANCH  10  14
BRANCH  13  27
HETATM   27  C   UNL     1     -10.874   5.470  71.493  1.00  0.00    -0.194 C  
HETATM   28  C   UNL     1     -11.508   5.405  72.893  1.00  0.00    -0.340 C  
HETATM   29  C   UNL     1     -10.339   5.636  73.852  1.00  0.00    -0.264 C  
HETATM   30  H   UNL     1      -8.992   2.855  71.514  1.00  0.00     0.000 HD 
HETATM   31  C   UNL     1      -9.170   4.878  73.174  1.00  0.00    -0.118 C  
HETATM   32  H   UNL     1      -8.238   3.110  73.328  1.00  0.00     0.000 HD 
HETATM   33  O   UNL     1      -9.810   3.324  71.397  1.00  0.00    -0.171 OA 
HETATM   34  C   UNL     1      -9.558   4.715  71.682  1.00  0.00    -0.161 C  
HETATM   35  O   UNL     1      -8.955   3.574  73.744  1.00  0.00    -0.087 OA 
BRANCH  29  36
HETATM   36  O   UNL     1     -10.016   7.026  73.976  1.00  0.00    -0.302 OA 
BRANCH  36  37
HETATM   37  C   UNL     1      -8.650   7.268  74.351  1.00  0.00    -0.206 C  
BRANCH  37  38
HETATM   38  C   UNL     1      -8.068   8.379  73.481  1.00  0.00    -0.107 C  
HETATM   39  H   UNL     1      -6.763   9.832  73.684  1.00  0.00     0.000 HD 
HETATM   40  O   UNL     1      -7.125   9.141  74.226  1.00  0.00    -0.386 OA 
ENDBRANCH  37  38
ENDBRANCH  36  37
ENDBRANCH  29  36
ENDBRANCH  13  27
ENDBRANCH   4   5
ENDBRANCH   3   4
ENDBRANCH   2   3
TORSDOF 10
ENDMDL
MODEL      108
REMARK 921   NORMALIZED FREE ENERGY PREDICTED BY IDOCK:   -5.01 KCAL/MOL
REMARK 922        TOTAL FREE ENERGY PREDICTED BY IDOCK:  -10.00 KCAL/MOL
REMARK 923 INTER-LIGAND FREE ENERGY PREDICTED BY IDOCK:   -8.13 KCAL/MOL
REMARK 924 INTRA-LIGAND FREE ENERGY PREDICTED BY IDOCK:   -1.88 KCAL/MOL
REMARK 927      BINDING AFFINITY PREDICTED BY RF-SCORE:    0.00 PKD
ROOT
HETATM    1  C   UNL     1     -10.502   9.316  71.206  1.00  0.00    -0.408 C  
HETATM    2  C   UNL     1     -11.823  10.068  71.303  1.00  0.00    -0.471 C  
ENDROOT
BRANCH   2   3
HETATM    3  C   UNL     1     -11.804  11.387  70.523  1.00  0.00    -0.297 C  
BRANCH   3   4
HETATM    4  S   UNL     1     -11.827  11.017  68.732  1.00  0.00    -0.210 SA 
BRANCH   4   5
HETATM    5  C   UNL     1     -10.255  11.690  68.240  1.00  0.00    -0.199 A  
HETATM    6  N   UNL     1     -10.165  13.040  68.249  1.00  0.00    -0.241 NA 
HETATM    7  C   UNL     1      -8.956  13.466  67.846  1.00  0.00    -0.201 A  
HETATM    8  C   UNL     1      -7.890  12.676  67.460  1.00  0.00    -0.175 A  
HETATM    9  N   UNL     1      -6.816  13.463  67.149  1.00  0.00    -0.071 NA 
HETATM   10  C   UNL     1      -8.061  11.285  67.513  1.00  0.00    -0.124 A  
HETATM   11  N   UNL     1      -9.279  10.816  67.914  1.00  0.00    -0.148 NA 
HETATM   12  N   UNL     1      -7.162  14.730  67.352  1.00  0.00    -0.198 NA 
HETATM   13  N   UNL     1      -8.444  14.738  67.803  1.00  0.00    -0.156 NA 
BRANCH  10  14
HETATM   14  N   UNL     1      -6.994  10.413  67.214  1.00  0.00    -0.085 NA 
HETATM   15  H   UNL     1      -6.291  10.665  66.519  1.00  0.00     0.000 HD 
BRANCH  14  16
HETATM   16  C   UNL     1      -6.921   9.135  67.925  1.00  0.00    -0.077 C  
HETATM   17  C   UNL     1      -7.577   7.898  67.350  1.00  0.00    -0.097 C  
HETATM   18  C   UNL     1      -6.077   8.014  67.397  1.00  0.00    -0.051 C  
BRANCH  17  19
HETATM   19  C   UNL     1      -8.356   7.011  68.288  1.00  0.00    -0.123 A  
HETATM   20  C   UNL     1     -10.427   6.243  69.311  1.00  0.00    -0.244 A  
HETATM   21  C   UNL     1      -9.752   7.076  68.416  1.00  0.00    -0.139 A  
HETATM   22  F   UNL     1     -11.760   6.322  69.399  1.00  0.00    -0.486 F  
HETATM   23  C   UNL     1      -9.723   5.340  70.097  1.00  0.00    -0.196 A  
HETATM   24  C   UNL     1      -7.668   6.089  69.105  1.00  0.00    -0.095 A  
HETATM   25  F   UNL     1     -10.375   4.545  70.955  1.00  0.00    -0.267 F  
HETATM   26  C   UNL     1      -8.343   5.258  70.003  1.00  0.00    -0.098 A  
ENDBRANCH  17  19
ENDBRANCH  14  16
ENDBRANCH  10  14
BRANCH  13  27
HETATM   27  C   UNL     1      -9.006  16.015  68.191  1.00  0.00    -0.183 C  
HETATM   28  C   UNL     1     -10.491  16.160  67.820  1.00  0.00    -0.295 C  
HETATM   29  C   UNL     1     -10.475  16.688  66.385  1.00  0.00    -0.266 C  
HETATM   30  H   UNL     1      -8.041  19.089  68.207  1.00  0.00     0.000 HD 
HETATM   31  C   UNL     1      -9.274  17.666  66.380  1.00  0.00    -0.244 C  
HETATM   32  H   UNL     1      -8.945  19.637  66.531  1.00  0.00     0.000 HD 
HETATM   33  O   UNL     1      -8.429  18.308  68.584  1.00  0.00    -0.317 OA 
HETATM   34  C   UNL     1      -8.381  17.271  67.584  1.00  0.00    -0.205 C  
HETATM   35  O   UNL     1      -9.681  19.038  66.534  1.00  0.00    -0.325 OA 
BRANCH  29  36
HETATM   36  O   UNL     1     -10.257  15.640  65.432  1.00  0.00    -0.358 OA 
BRANCH  36  37
HETATM   37  C   UNL     1     -11.459  15.190  64.787  1.00  0.00    -0.383 C  
BRANCH  37  38
HETATM   38  C   UNL     1     -11.540  13.667  64.856  1.00  0.00    -0.344 C  
HETATM   39  H   UNL     1     -10.309  12.149  64.665  1.00  0.00     0.000 HD 
HETATM   40  O   UNL     1     -10.258  13.097  64.622  1.00  0.00    -0.349 OA 
ENDBRANCH  37  38
ENDBRANCH  36  37
ENDBRANCH  29  36
ENDBRANCH  13  27
ENDBRANCH   4   5
ENDBRANCH   3   4
ENDBRANCH   2   3
TORSDOF 10
ENDMDL
MODEL      109
REMARK 921   NORMALIZED FREE ENERGY PREDICTED BY IDOCK:   -4.99 KCAL/MOL
REMARK 922        TOTAL FREE ENERGY PREDICTED BY IDOCK:   -9.97 KCAL/MOL
REMARK 923 INTER-LIGAND FREE ENERGY PREDICTED BY IDOCK:   -9.21 KCAL/MOL
REMARK 924 INTRA-LIGAND FREE ENERGY PREDICTED BY IDOCK:   -0.75 KCAL/MOL
REMARK 927      BINDING AFFINITY PREDICTED BY RF-SCORE:    0.00 PKD
ROOT
HETATM    1  C   UNL     1      -8.094   5.042  64.999  1.00  0.00    -0.113 C  
HETATM    2  C   UNL     1      -8.544   5.666  66.313  1.00  0.00    -0.127 C  
ENDROOT
BRANCH   2   3
HETATM    3  C   UNL     1      -7.993   7.083  66.507  1.00  0.00    -0.108 C  
BRANCH   3   4
HETATM    4  S   UNL     1      -7.312   7.228  68.198  1.00  0.00    -0.102 SA 
BRANCH   4   5
HETATM    5  C   UNL     1      -8.814   7.308  69.148  1.00  0.00    -0.136 A  
HETATM    6  N   UNL     1      -9.027   6.279  69.999  1.00  0.00    -0.147 NA 
HETATM    7  C   UNL     1     -10.190   6.406  70.661  1.00  0.00    -0.190 A  
HETATM    8  C   UNL     1     -11.100   7.438  70.537  1.00  0.00    -0.261 A  
HETATM    9  N   UNL     1     -12.147   7.241  71.395  1.00  0.00    -0.317 NA 
HETATM   10  C   UNL     1     -10.782   8.481  69.655  1.00  0.00    -0.197 A  
HETATM   11  N   UNL     1      -9.610   8.383  68.962  1.00  0.00    -0.159 NA 
HETATM   12  N   UNL     1     -11.914   6.125  72.078  1.00  0.00    -0.304 NA 
HETATM   13  N   UNL     1     -10.718   5.631  71.662  1.00  0.00    -0.251 NA 
BRANCH  10  14
HETATM   14  N   UNL     1     -11.620   9.608  69.536  1.00  0.00    -0.444 NA 
HETATM   15  H   UNL     1     -12.168   9.766  68.690  1.00  0.00     0.000 HD 
BRANCH  14  16
HETATM   16  C   UNL     1     -11.685  10.548  70.657  1.00  0.00    -0.357 C  
HETATM   17  C   UNL     1     -12.875  11.470  70.816  1.00  0.00    -0.222 C  
HETATM   18  C   UNL     1     -12.656  10.333  71.779  1.00  0.00    -0.488 C  
BRANCH  17  19
HETATM   19  C   UNL     1     -12.608  12.909  71.182  1.00  0.00    -0.373 A  
HETATM   20  C   UNL     1     -12.835  14.840  72.646  1.00  0.00    -0.405 A  
HETATM   21  C   UNL     1     -13.095  13.499  72.359  1.00  0.00    -0.494 A  
HETATM   22  F   UNL     1     -13.303  15.369  73.783  1.00  0.00    -0.522 F  
HETATM   23  C   UNL     1     -12.094  15.617  71.764  1.00  0.00    -0.431 A  
HETATM   24  C   UNL     1     -11.866  13.724  70.302  1.00  0.00    -0.342 A  
HETATM   25  F   UNL     1     -11.849  16.903  72.043  1.00  0.00    -0.429 F  
HETATM   26  C   UNL     1     -11.608  15.067  70.588  1.00  0.00    -0.358 A  
ENDBRANCH  17  19
ENDBRANCH  14  16
ENDBRANCH  10  14
BRANCH  13  27
HETATM   27  C   UNL     1     -10.205   4.462  72.347  1.00  0.00    -0.190 C  
HETATM   28  C   UNL     1     -10.611   4.405  73.829  1.00  0.00    -0.313 C  
HETATM   29  C   UNL     1      -9.530   5.210  74.551  1.00  0.00    -0.138 C  
HETATM   30  H   UNL     1      -7.463   2.772  72.362  1.00  0.00     0.000 HD 
HETATM   31  C   UNL     1      -8.237   4.836  73.784  1.00  0.00    -0.106 C  
HETATM   32  H   UNL     1      -6.679   3.591  73.987  1.00  0.00     0.000 HD 
HETATM   33  O   UNL     1      -8.406   2.879  72.326  1.00  0.00    -0.067 OA 
HETATM   34  C   UNL     1      -8.688   4.291  72.404  1.00  0.00    -0.108 C  
HETATM   35  O   UNL     1      -7.472   3.820  74.458  1.00  0.00    -0.060 OA 
BRANCH  29  36
HETATM   36  O   UNL     1      -9.763   6.622  74.460  1.00  0.00    -0.270 OA 
BRANCH  36  37
HETATM   37  C   UNL     1      -8.561   7.407  74.501  1.00  0.00    -0.179 C  
BRANCH  37  38
HETATM   38  C   UNL     1      -8.195   7.861  73.091  1.00  0.00    -0.168 C  
HETATM   39  H   UNL     1      -8.803   9.223  71.813  1.00  0.00     0.000 HD 
HETATM   40  O   UNL     1      -9.031   8.941  72.691  1.00  0.00    -0.337 OA 
ENDBRANCH  37  38
ENDBRANCH  36  37
ENDBRANCH  29  36
ENDBRANCH  13  27
ENDBRANCH   4   5
ENDBRANCH   3   4
ENDBRANCH   2   3
TORSDOF 10
ENDMDL
MODEL      110
REMARK 921   NORMALIZED FREE ENERGY PREDICTED BY IDOCK:   -4.98 KCAL/MOL
REMARK 922        TOTAL FREE ENERGY PREDICTED BY IDOCK:   -9.96 KCAL/MOL
REMARK 923 INTER-LIGAND FREE ENERGY PREDICTED BY IDOCK:   -8.53 KCAL/MOL
REMARK 924 INTRA-LIGAND FREE ENERGY PREDICTED BY IDOCK:   -1.44 KCAL/MOL
REMARK 927      BINDING AFFINITY PREDICTED BY RF-SCORE:    0.00 PKD
ROOT
HETATM    1  C   UNL     1      -7.314  17.532  68.731  1.00  0.00    -0.260 C  
HETATM    2  C   UNL     1      -6.543  16.409  68.052  1.00  0.00    -0.146 C  
ENDROOT
BRANCH   2   3
HETATM    3  C   UNL     1      -7.139  15.028  68.347  1.00  0.00    -0.108 C  
BRANCH   3   4
HETATM    4  S   UNL     1      -5.842  13.760  68.113  1.00  0.00    -0.134 SA 
BRANCH   4   5
HETATM    5  C   UNL     1      -6.817  12.410  67.486  1.00  0.00    -0.143 A  
HETATM    6  N   UNL     1      -7.901  12.757  66.755  1.00  0.00     0.101 NA 
HETATM    7  C   UNL     1      -8.591  11.682  66.338  1.00  0.00    -0.143 A  
HETATM    8  C   UNL     1      -8.284  10.358  66.587  1.00  0.00    -0.128 A  
HETATM    9  N   UNL     1      -9.197   9.545  65.973  1.00  0.00    -0.180 NA 
HETATM   10  C   UNL     1      -7.123  10.089  67.326  1.00  0.00    -0.085 A  
HETATM   11  N   UNL     1      -6.399  11.158  67.770  1.00  0.00    -0.054 NA 
HETATM   12  N   UNL     1     -10.060  10.317  65.320  1.00  0.00    -0.308 NA 
HETATM   13  N   UNL     1      -9.683  11.608  65.511  1.00  0.00    -0.230 NA 
BRANCH  10  14
HETATM   14  N   UNL     1      -6.699   8.763  67.550  1.00  0.00    -0.066 NA 
HETATM   15  H   UNL     1      -6.015   8.322  66.936  1.00  0.00     0.000 HD 
BRANCH  14  16
HETATM   16  C   UNL     1      -7.266   8.036  68.688  1.00  0.00    -0.081 C  
HETATM   17  C   UNL     1      -8.424   7.083  68.488  1.00  0.00    -0.121 C  
HETATM   18  C   UNL     1      -7.055   6.558  68.832  1.00  0.00    -0.082 C  
BRANCH  17  19
HETATM   19  C   UNL     1      -9.554   7.125  69.487  1.00  0.00    -0.154 A  
HETATM   20  C   UNL     1     -10.563   7.873  71.571  1.00  0.00    -0.222 A  
HETATM   21  C   UNL     1      -9.497   7.877  70.670  1.00  0.00    -0.162 A  
HETATM   22  F   UNL     1     -10.482   8.611  72.685  1.00  0.00    -0.383 F  
HETATM   23  C   UNL     1     -11.699   7.115  71.313  1.00  0.00    -0.306 A  
HETATM   24  C   UNL     1     -10.716   6.360  69.255  1.00  0.00    -0.349 A  
HETATM   25  F   UNL     1     -12.717   7.112  72.181  1.00  0.00    -0.311 F  
HETATM   26  C   UNL     1     -11.782   6.353  70.158  1.00  0.00    -0.372 A  
ENDBRANCH  17  19
ENDBRANCH  14  16
ENDBRANCH  10  14
BRANCH  13  27
HETATM   27  C   UNL     1     -10.425  12.631  64.802  1.00  0.00    -0.320 C  
HETATM   28  C   UNL     1     -10.248  14.034  65.406  1.00  0.00    -0.368 C  
HETATM   29  C   UNL     1     -11.318  14.117  66.496  1.00  0.00    -0.341 C  
HETATM   30  H   UNL     1     -13.323  12.885  63.419  1.00  0.00     0.000 HD 
HETATM   31  C   UNL     1     -12.521  13.370  65.869  1.00  0.00    -0.408 C  
HETATM   32  H   UNL     1     -14.229  13.810  64.918  1.00  0.00     0.000 HD 
HETATM   33  O   UNL     1     -12.379  12.979  63.458  1.00  0.00    -0.654 OA 
HETATM   34  C   UNL     1     -11.944  12.479  64.739  1.00  0.00    -0.409 C  
HETATM   35  O   UNL     1     -13.492  14.269  65.302  1.00  0.00    -0.564 OA 
BRANCH  29  36
HETATM   36  O   UNL     1     -10.907  13.459  67.702  1.00  0.00    -0.253 OA 
BRANCH  36  37
HETATM   37  C   UNL     1     -11.994  13.148  68.586  1.00  0.00    -0.284 C  
BRANCH  37  38
HETATM   38  C   UNL     1     -11.810  11.741  69.151  1.00  0.00    -0.326 C  
HETATM   39  H   UNL     1     -10.312  10.579  69.662  1.00  0.00     0.000 HD 
HETATM   40  O   UNL     1     -10.426  11.455  69.311  1.00  0.00    -0.174 OA 
ENDBRANCH  37  38
ENDBRANCH  36  37
ENDBRANCH  29  36
ENDBRANCH  13  27
ENDBRANCH   4   5
ENDBRANCH   3   4
ENDBRANCH   2   3
TORSDOF 10
ENDMDL
MODEL      111
REMARK 921   NORMALIZED FREE ENERGY PREDICTED BY IDOCK:   -4.97 KCAL/MOL
REMARK 922        TOTAL FREE ENERGY PREDICTED BY IDOCK:   -9.95 KCAL/MOL
REMARK 923 INTER-LIGAND FREE ENERGY PREDICTED BY IDOCK:   -8.53 KCAL/MOL
REMARK 924 INTRA-LIGAND FREE ENERGY PREDICTED BY IDOCK:   -1.41 KCAL/MOL
REMARK 927      BINDING AFFINITY PREDICTED BY RF-SCORE:    0.00 PKD
ROOT
HETATM    1  C   UNL     1      -5.337  10.299  63.612  1.00  0.00    -0.137 C  
HETATM    2  C   UNL     1      -6.304   9.156  63.886  1.00  0.00    -0.088 C  
ENDROOT
BRANCH   2   3
HETATM    3  C   UNL     1      -7.753   9.520  63.545  1.00  0.00    -0.123 C  
BRANCH   3   4
HETATM    4  S   UNL     1      -8.839   8.966  64.908  1.00  0.00    -0.056 SA 
BRANCH   4   5
HETATM    5  C   UNL     1      -8.504  10.223  66.122  1.00  0.00    -0.141 A  
HETATM    6  N   UNL     1      -9.030  11.443  65.866  1.00  0.00    -0.201 NA 
HETATM    7  C   UNL     1      -8.714  12.337  66.819  1.00  0.00    -0.175 A  
HETATM    8  C   UNL     1      -7.952  12.104  67.948  1.00  0.00    -0.150 A  
HETATM    9  N   UNL     1      -7.874  13.243  68.700  1.00  0.00    -0.105 NA 
HETATM   10  C   UNL     1      -7.475  10.800  68.150  1.00  0.00    -0.091 A  
HETATM   11  N   UNL     1      -7.773   9.867  67.200  1.00  0.00    -0.092 NA 
HETATM   12  N   UNL     1      -8.587  14.186  68.092  1.00  0.00    -0.167 NA 
HETATM   13  N   UNL     1      -9.122  13.637  66.970  1.00  0.00    -0.241 NA 
BRANCH  10  14
HETATM   14  N   UNL     1      -6.761  10.465  69.319  1.00  0.00    -0.060 NA 
HETATM   15  H   UNL     1      -5.782  10.729  69.428  1.00  0.00     0.000 HD 
BRANCH  14  16
HETATM   16  C   UNL     1      -7.461   9.728  70.374  1.00  0.00    -0.149 C  
HETATM   17  C   UNL     1      -7.875   8.288  70.157  1.00  0.00    -0.097 C  
HETATM   18  C   UNL     1      -6.771   8.628  71.124  1.00  0.00    -0.068 C  
BRANCH  17  19
HETATM   19  C   UNL     1      -9.254   7.875  70.608  1.00  0.00    -0.157 A  
HETATM   20  C   UNL     1     -11.370   8.292  71.733  1.00  0.00    -0.288 A  
HETATM   21  C   UNL     1     -10.108   8.727  71.325  1.00  0.00    -0.336 A  
HETATM   22  F   UNL     1     -12.166   9.134  72.405  1.00  0.00    -0.414 F  
HETATM   23  C   UNL     1     -11.798   7.003  71.443  1.00  0.00    -0.320 A  
HETATM   24  C   UNL     1      -9.712   6.570  70.334  1.00  0.00    -0.186 A  
HETATM   25  F   UNL     1     -13.009   6.591  71.840  1.00  0.00    -0.385 F  
HETATM   26  C   UNL     1     -10.974   6.134  70.746  1.00  0.00    -0.365 A  
ENDBRANCH  17  19
ENDBRANCH  14  16
ENDBRANCH  10  14
BRANCH  13  27
HETATM   27  C   UNL     1     -10.029  14.459  66.195  1.00  0.00    -0.311 C  
HETATM   28  C   UNL     1     -10.966  15.312  67.066  1.00  0.00    -0.324 C  
HETATM   29  C   UNL     1     -12.158  14.397  67.352  1.00  0.00    -0.313 C  
HETATM   30  H   UNL     1     -11.772  14.124  63.506  1.00  0.00     0.000 HD 
HETATM   31  C   UNL     1     -12.345  13.631  66.018  1.00  0.00    -0.445 C  
HETATM   32  H   UNL     1     -13.502  13.723  64.385  1.00  0.00     0.000 HD 
HETATM   33  O   UNL     1     -11.169  14.570  64.090  1.00  0.00    -0.138 OA 
HETATM   34  C   UNL     1     -10.999  13.741  65.257  1.00  0.00    -0.322 C  
HETATM   35  O   UNL     1     -13.388  14.193  65.202  1.00  0.00    -0.684 OA 
BRANCH  29  36
HETATM   36  O   UNL     1     -11.882  13.474  68.413  1.00  0.00    -0.341 OA 
BRANCH  36  37
HETATM   37  C   UNL     1     -11.519  14.110  69.649  1.00  0.00    -0.273 C  
BRANCH  37  38
HETATM   38  C   UNL     1     -12.758  14.273  70.526  1.00  0.00    -0.328 C  
HETATM   39  H   UNL     1     -13.840  15.754  71.228  1.00  0.00     0.000 HD 
HETATM   40  O   UNL     1     -13.069  15.652  70.682  1.00  0.00    -0.465 OA 
ENDBRANCH  37  38
ENDBRANCH  36  37
ENDBRANCH  29  36
ENDBRANCH  13  27
ENDBRANCH   4   5
ENDBRANCH   3   4
ENDBRANCH   2   3
TORSDOF 10
ENDMDL
MODEL      112
REMARK 921   NORMALIZED FREE ENERGY PREDICTED BY IDOCK:   -4.97 KCAL/MOL
REMARK 922        TOTAL FREE ENERGY PREDICTED BY IDOCK:   -9.94 KCAL/MOL
REMARK 923 INTER-LIGAND FREE ENERGY PREDICTED BY IDOCK:   -9.04 KCAL/MOL
REMARK 924 INTRA-LIGAND FREE ENERGY PREDICTED BY IDOCK:   -0.90 KCAL/MOL
REMARK 927      BINDING AFFINITY PREDICTED BY RF-SCORE:    0.00 PKD
ROOT
HETATM    1  C   UNL     1      -5.959   8.588  73.139  1.00  0.00    -0.097 C  
HETATM    2  C   UNL     1      -6.576   8.474  71.752  1.00  0.00    -0.072 C  
ENDROOT
BRANCH   2   3
HETATM    3  C   UNL     1      -5.519   8.421  70.644  1.00  0.00    -0.028 C  
BRANCH   3   4
HETATM    4  S   UNL     1      -5.539   6.758  69.884  1.00  0.00    -0.019 SA 
BRANCH   4   5
HETATM    5  C   UNL     1      -7.116   6.795  69.061  1.00  0.00    -0.089 A  
HETATM    6  N   UNL     1      -8.175   6.395  69.801  1.00  0.00    -0.124 NA 
HETATM    7  C   UNL     1      -9.321   6.434  69.100  1.00  0.00    -0.132 A  
HETATM    8  C   UNL     1      -9.470   6.826  67.784  1.00  0.00    -0.118 A  
HETATM    9  N   UNL     1     -10.788   6.766  67.426  1.00  0.00    -0.325 NA 
HETATM   10  C   UNL     1      -8.322   7.258  67.102  1.00  0.00    -0.118 A  
HETATM   11  N   UNL     1      -7.139   7.228  67.781  1.00  0.00    -0.086 NA 
HETATM   12  N   UNL     1     -11.484   6.369  68.487  1.00  0.00    -0.091 NA 
HETATM   13  N   UNL     1     -10.608   6.195  69.511  1.00  0.00    -0.253 NA 
BRANCH  10  14
HETATM   14  N   UNL     1      -8.407   7.752  65.784  1.00  0.00    -0.131 NA 
HETATM   15  H   UNL     1      -8.377   7.119  64.986  1.00  0.00     0.000 HD 
BRANCH  14  16
HETATM   16  C   UNL     1      -8.539   9.198  65.591  1.00  0.00    -0.158 C  
HETATM   17  C   UNL     1      -9.630   9.970  66.302  1.00  0.00    -0.256 C  
HETATM   18  C   UNL     1      -8.187  10.151  66.693  1.00  0.00    -0.123 C  
BRANCH  17  19
HETATM   19  C   UNL     1     -10.395  11.001  65.510  1.00  0.00    -0.321 A  
HETATM   20  C   UNL     1     -11.971  12.846  65.328  1.00  0.00    -0.419 A  
HETATM   21  C   UNL     1     -11.273  11.920  66.105  1.00  0.00    -0.387 A  
HETATM   22  F   UNL     1     -12.791  13.718  65.929  1.00  0.00    -0.482 F  
HETATM   23  C   UNL     1     -11.813  12.867  63.949  1.00  0.00    -0.473 A  
HETATM   24  C   UNL     1     -10.261  11.041  64.107  1.00  0.00    -0.419 A  
HETATM   25  F   UNL     1     -12.486  13.756  63.208  1.00  0.00    -0.532 F  
HETATM   26  C   UNL     1     -10.961  11.966  63.329  1.00  0.00    -0.399 A  
ENDBRANCH  17  19
ENDBRANCH  14  16
ENDBRANCH  10  14
BRANCH  13  27
HETATM   27  C   UNL     1     -11.158   5.859  70.808  1.00  0.00    -0.254 C  
HETATM   28  C   UNL     1     -12.234   6.850  71.283  1.00  0.00    -0.427 C  
HETATM   29  C   UNL     1     -11.447   7.957  71.987  1.00  0.00    -0.300 C  
HETATM   30  H   UNL     1     -10.030   4.737  73.610  1.00  0.00     0.000 HD 
HETATM   31  C   UNL     1     -10.315   7.184  72.709  1.00  0.00    -0.227 C  
HETATM   32  H   UNL     1      -9.912   6.481  74.542  1.00  0.00     0.000 HD 
HETATM   33  O   UNL     1     -10.631   4.764  72.874  1.00  0.00    -0.196 OA 
HETATM   34  C   UNL     1     -10.191   5.815  71.991  1.00  0.00    -0.201 C  
HETATM   35  O   UNL     1     -10.606   6.955  74.099  1.00  0.00    -0.299 OA 
BRANCH  29  36
HETATM   36  O   UNL     1     -10.886   8.890  71.055  1.00  0.00    -0.225 OA 
BRANCH  36  37
HETATM   37  C   UNL     1     -11.760   9.985  70.739  1.00  0.00    -0.350 C  
BRANCH  37  38
HETATM   38  C   UNL     1     -12.959   9.974  71.684  1.00  0.00    -0.449 C  
HETATM   39  H   UNL     1     -14.075  11.298  72.610  1.00  0.00     0.000 HD 
HETATM   40  O   UNL     1     -13.329  11.305  72.022  1.00  0.00    -0.462 OA 
ENDBRANCH  37  38
ENDBRANCH  36  37
ENDBRANCH  29  36
ENDBRANCH  13  27
ENDBRANCH   4   5
ENDBRANCH   3   4
ENDBRANCH   2   3
TORSDOF 10
ENDMDL
MODEL      113
REMARK 921   NORMALIZED FREE ENERGY PREDICTED BY IDOCK:   -4.97 KCAL/MOL
REMARK 922        TOTAL FREE ENERGY PREDICTED BY IDOCK:   -9.93 KCAL/MOL
REMARK 923 INTER-LIGAND FREE ENERGY PREDICTED BY IDOCK:   -8.44 KCAL/MOL
REMARK 924 INTRA-LIGAND FREE ENERGY PREDICTED BY IDOCK:   -1.49 KCAL/MOL
REMARK 927      BINDING AFFINITY PREDICTED BY RF-SCORE:    0.00 PKD
ROOT
HETATM    1  C   UNL     1      -6.956   5.326  67.167  1.00  0.00    -0.065 C  
HETATM    2  C   UNL     1      -8.170   6.168  66.800  1.00  0.00    -0.109 C  
ENDROOT
BRANCH   2   3
HETATM    3  C   UNL     1      -9.473   5.595  67.369  1.00  0.00    -0.114 C  
BRANCH   3   4
HETATM    4  S   UNL     1     -10.840   6.753  67.000  1.00  0.00    -0.332 SA 
BRANCH   4   5
HETATM    5  C   UNL     1     -10.173   8.264  67.662  1.00  0.00    -0.231 A  
HETATM    6  N   UNL     1     -10.085   9.297  66.793  1.00  0.00    -0.245 NA 
HETATM    7  C   UNL     1      -9.554  10.391  67.366  1.00  0.00    -0.154 A  
HETATM    8  C   UNL     1      -9.132  10.514  68.676  1.00  0.00    -0.158 A  
HETATM    9  N   UNL     1      -8.680  11.784  68.903  1.00  0.00     0.042 NA 
HETATM   10  C   UNL     1      -9.291   9.401  69.515  1.00  0.00    -0.180 A  
HETATM   11  N   UNL     1      -9.824   8.270  68.966  1.00  0.00    -0.172 NA 
HETATM   12  N   UNL     1      -8.827  12.479  67.779  1.00  0.00    -0.168 NA 
HETATM   13  N   UNL     1      -9.383  11.653  66.855  1.00  0.00    -0.184 NA 
BRANCH  10  14
HETATM   14  N   UNL     1      -8.961   9.475  70.884  1.00  0.00    -0.334 NA 
HETATM   15  H   UNL     1      -8.403  10.247  71.246  1.00  0.00     0.000 HD 
BRANCH  14  16
HETATM   16  C   UNL     1      -9.440   8.414  71.772  1.00  0.00    -0.233 C  
HETATM   17  C   UNL     1      -8.520   7.285  72.184  1.00  0.00    -0.117 C  
HETATM   18  C   UNL     1      -8.951   8.322  73.187  1.00  0.00    -0.301 C  
BRANCH  17  19
HETATM   19  C   UNL     1      -9.074   5.882  72.174  1.00  0.00    -0.145 A  
HETATM   20  C   UNL     1     -10.206   4.002  73.226  1.00  0.00    -0.148 A  
HETATM   21  C   UNL     1      -9.723   5.311  73.280  1.00  0.00    -0.155 A  
HETATM   22  F   UNL     1     -10.831   3.492  74.295  1.00  0.00    -0.241 F  
HETATM   23  C   UNL     1     -10.044   3.239  72.077  1.00  0.00    -0.108 A  
HETATM   24  C   UNL     1      -8.918   5.081  71.024  1.00  0.00    -0.162 A  
HETATM   25  F   UNL     1     -10.507   1.984  72.032  1.00  0.00    -0.234 F  
HETATM   26  C   UNL     1      -9.398   3.770  70.971  1.00  0.00    -0.218 A  
ENDBRANCH  17  19
ENDBRANCH  14  16
ENDBRANCH  10  14
BRANCH  13  27
HETATM   27  C   UNL     1      -9.732  12.227  65.572  1.00  0.00    -0.161 C  
HETATM   28  C   UNL     1     -10.218  13.683  65.674  1.00  0.00    -0.316 C  
HETATM   29  C   UNL     1     -11.718  13.566  65.947  1.00  0.00    -0.352 C  
HETATM   30  H   UNL     1     -11.219  11.238  62.890  1.00  0.00     0.000 HD 
HETATM   31  C   UNL     1     -12.144  12.359  65.074  1.00  0.00    -0.407 C  
HETATM   32  H   UNL     1     -12.993  12.023  63.290  1.00  0.00     0.000 HD 
HETATM   33  O   UNL     1     -10.523  11.658  63.382  1.00  0.00    -0.388 OA 
HETATM   34  C   UNL     1     -10.852  11.552  64.781  1.00  0.00    -0.297 C  
HETATM   35  O   UNL     1     -12.732  12.763  63.825  1.00  0.00    -0.689 OA 
BRANCH  29  36
HETATM   36  O   UNL     1     -11.992  13.294  67.327  1.00  0.00    -0.367 OA 
BRANCH  36  37
HETATM   37  C   UNL     1     -11.718  14.403  68.198  1.00  0.00    -0.342 C  
BRANCH  37  38
HETATM   38  C   UNL     1     -11.669  13.921  69.645  1.00  0.00    -0.311 C  
HETATM   39  H   UNL     1     -12.746  14.136  71.272  1.00  0.00     0.000 HD 
HETATM   40  O   UNL     1     -12.778  14.436  70.371  1.00  0.00    -0.346 OA 
ENDBRANCH  37  38
ENDBRANCH  36  37
ENDBRANCH  29  36
ENDBRANCH  13  27
ENDBRANCH   4   5
ENDBRANCH   3   4
ENDBRANCH   2   3
TORSDOF 10
ENDMDL
MODEL      114
REMARK 921   NORMALIZED FREE ENERGY PREDICTED BY IDOCK:   -4.94 KCAL/MOL
REMARK 922        TOTAL FREE ENERGY PREDICTED BY IDOCK:   -9.89 KCAL/MOL
REMARK 923 INTER-LIGAND FREE ENERGY PREDICTED BY IDOCK:   -9.51 KCAL/MOL
REMARK 924 INTRA-LIGAND FREE ENERGY PREDICTED BY IDOCK:   -0.38 KCAL/MOL
REMARK 927      BINDING AFFINITY PREDICTED BY RF-SCORE:    0.00 PKD
ROOT
HETATM    1  C   UNL     1      -9.747  18.951  66.999  1.00  0.00    -0.349 C  
HETATM    2  C   UNL     1     -10.303  18.391  68.301  1.00  0.00    -0.384 C  
ENDROOT
BRANCH   2   3
HETATM    3  C   UNL     1      -9.672  17.046  68.677  1.00  0.00    -0.282 C  
BRANCH   3   4
HETATM    4  S   UNL     1     -10.722  16.229  69.932  1.00  0.00    -0.289 SA 
BRANCH   4   5
HETATM    5  C   UNL     1     -11.162  14.738  69.066  1.00  0.00    -0.270 A  
HETATM    6  N   UNL     1     -11.096  13.597  69.789  1.00  0.00    -0.024 NA 
HETATM    7  C   UNL     1     -11.423  12.518  69.057  1.00  0.00    -0.304 A  
HETATM    8  C   UNL     1     -11.793  12.506  67.726  1.00  0.00    -0.313 A  
HETATM    9  N   UNL     1     -12.085  11.229  67.335  1.00  0.00    -0.220 NA 
HETATM   10  C   UNL     1     -11.867  13.740  67.063  1.00  0.00    -0.410 A  
HETATM   11  N   UNL     1     -11.537  14.857  67.774  1.00  0.00    -0.338 NA 
HETATM   12  N   UNL     1     -11.933  10.432  68.389  1.00  0.00    -0.176 NA 
HETATM   13  N   UNL     1     -11.563  11.209  69.441  1.00  0.00    -0.287 NA 
BRANCH  10  14
HETATM   14  N   UNL     1     -12.316  13.817  65.728  1.00  0.00    -0.463 NA 
HETATM   15  H   UNL     1     -13.229  14.215  65.506  1.00  0.00     0.000 HD 
BRANCH  14  16
HETATM   16  C   UNL     1     -11.440  13.313  64.669  1.00  0.00    -0.342 C  
HETATM   17  C   UNL     1     -11.519  11.865  64.233  1.00  0.00    -0.423 C  
HETATM   18  C   UNL     1     -11.993  12.965  63.320  1.00  0.00    -0.516 C  
BRANCH  17  19
HETATM   19  C   UNL     1     -10.226  11.123  64.010  1.00  0.00    -0.419 A  
HETATM   20  C   UNL     1      -8.539   9.490  64.650  1.00  0.00    -0.187 A  
HETATM   21  C   UNL     1      -9.751  10.139  64.892  1.00  0.00    -0.392 A  
HETATM   22  F   UNL     1      -8.120   8.547  65.504  1.00  0.00    -0.101 F  
HETATM   23  C   UNL     1      -7.777   9.814  63.535  1.00  0.00    -0.132 A  
HETATM   24  C   UNL     1      -9.428  11.436  62.891  1.00  0.00    -0.372 A  
HETATM   25  F   UNL     1      -6.615   9.190  63.309  1.00  0.00    -0.090 F  
HETATM   26  C   UNL     1      -8.213  10.788  62.651  1.00  0.00    -0.184 A  
ENDBRANCH  17  19
ENDBRANCH  14  16
ENDBRANCH  10  14
BRANCH  13  27
HETATM   27  C   UNL     1     -11.439  10.565  70.733  1.00  0.00    -0.285 C  
HETATM   28  C   UNL     1     -10.123   9.787  70.895  1.00  0.00    -0.135 C  
HETATM   29  C   UNL     1     -10.424   8.403  70.317  1.00  0.00    -0.218 C  
HETATM   30  H   UNL     1     -13.382   8.977  72.754  1.00  0.00     0.000 HD 
HETATM   31  C   UNL     1     -11.882   8.140  70.771  1.00  0.00    -0.159 C  
HETATM   32  H   UNL     1     -12.846   7.146  72.220  1.00  0.00     0.000 HD 
HETATM   33  O   UNL     1     -12.726   9.624  72.523  1.00  0.00    -0.258 OA 
HETATM   34  C   UNL     1     -12.496   9.524  71.103  1.00  0.00    -0.315 C  
HETATM   35  O   UNL     1     -11.952   7.308  71.943  1.00  0.00    -0.287 OA 
BRANCH  29  36
HETATM   36  O   UNL     1     -10.347   8.392  68.886  1.00  0.00    -0.214 OA 
BRANCH  36  37
HETATM   37  C   UNL     1      -9.045   8.724  68.378  1.00  0.00    -0.141 C  
BRANCH  37  38
HETATM   38  C   UNL     1      -8.002   7.788  68.984  1.00  0.00    -0.123 C  
HETATM   39  H   UNL     1      -7.066   6.143  68.460  1.00  0.00     0.000 HD 
HETATM   40  O   UNL     1      -7.715   6.726  68.083  1.00  0.00    -0.105 OA 
ENDBRANCH  37  38
ENDBRANCH  36  37
ENDBRANCH  29  36
ENDBRANCH  13  27
ENDBRANCH   4   5
ENDBRANCH   3   4
ENDBRANCH   2   3
TORSDOF 10
ENDMDL
MODEL      115
REMARK 921   NORMALIZED FREE ENERGY PREDICTED BY IDOCK:   -4.92 KCAL/MOL
REMARK 922        TOTAL FREE ENERGY PREDICTED BY IDOCK:   -9.86 KCAL/MOL
REMARK 923 INTER-LIGAND FREE ENERGY PREDICTED BY IDOCK:   -8.30 KCAL/MOL
REMARK 924 INTRA-LIGAND FREE ENERGY PREDICTED BY IDOCK:   -1.56 KCAL/MOL
REMARK 927      BINDING AFFINITY PREDICTED BY RF-SCORE:    0.00 PKD
ROOT
HETATM    1  C   UNL     1      -6.543  14.727  69.804  1.00  0.00    -0.169 C  
HETATM    2  C   UNL     1      -6.712  13.363  69.149  1.00  0.00    -0.099 C  
ENDROOT
BRANCH   2   3
HETATM    3  C   UNL     1      -6.056  13.293  67.765  1.00  0.00    -0.153 C  
BRANCH   3   4
HETATM    4  S   UNL     1      -5.565  11.564  67.429  1.00  0.00    -0.086 SA 
BRANCH   4   5
HETATM    5  C   UNL     1      -7.153  10.836  67.088  1.00  0.00    -0.099 A  
HETATM    6  N   UNL     1      -7.312   9.556  67.495  1.00  0.00    -0.090 NA 
HETATM    7  C   UNL     1      -8.528   9.076  67.182  1.00  0.00    -0.113 A  
HETATM    8  C   UNL     1      -9.539   9.755  66.528  1.00  0.00    -0.194 A  
HETATM    9  N   UNL     1     -10.641   8.954  66.417  1.00  0.00    -0.017 NA 
HETATM   10  C   UNL     1      -9.297  11.089  66.171  1.00  0.00    -0.191 A  
HETATM   11  N   UNL     1      -8.071  11.609  66.469  1.00  0.00    -0.122 NA 
HETATM   12  N   UNL     1     -10.367   7.793  67.005  1.00  0.00    -0.310 NA 
HETATM   13  N   UNL     1      -9.103   7.871  67.497  1.00  0.00    -0.133 NA 
BRANCH  10  14
HETATM   14  N   UNL     1     -10.308  11.872  65.575  1.00  0.00    -0.254 NA 
HETATM   15  H   UNL     1     -10.258  12.127  64.588  1.00  0.00     0.000 HD 
BRANCH  14  16
HETATM   16  C   UNL     1     -11.430  12.310  66.408  1.00  0.00    -0.378 C  
HETATM   17  C   UNL     1     -11.292  13.523  67.303  1.00  0.00    -0.339 C  
HETATM   18  C   UNL     1     -12.175  13.571  66.084  1.00  0.00    -0.484 C  
BRANCH  17  19
HETATM   19  C   UNL     1     -11.842  13.432  68.705  1.00  0.00    -0.397 A  
HETATM   20  C   UNL     1     -12.737  14.423  70.739  1.00  0.00    -0.360 A  
HETATM   21  C   UNL     1     -12.248  14.557  69.438  1.00  0.00    -0.285 A  
HETATM   22  F   UNL     1     -13.127  15.516  71.407  1.00  0.00    -0.410 F  
HETATM   23  C   UNL     1     -12.822  13.170  71.333  1.00  0.00    -0.311 A  
HETATM   24  C   UNL     1     -11.933  12.174  69.335  1.00  0.00    -0.329 A  
HETATM   25  F   UNL     1     -13.289  13.047  72.581  1.00  0.00    -0.600 F  
HETATM   26  C   UNL     1     -12.419  12.040  70.638  1.00  0.00    -0.335 A  
ENDBRANCH  17  19
ENDBRANCH  14  16
ENDBRANCH  10  14
BRANCH  13  27
HETATM   27  C   UNL     1      -8.621   6.749  68.275  1.00  0.00    -0.124 C  
HETATM   28  C   UNL     1      -9.740   6.013  69.031  1.00  0.00    -0.161 C  
HETATM   29  C   UNL     1      -9.874   6.776  70.350  1.00  0.00    -0.175 C  
HETATM   30  H   UNL     1      -6.063   6.109  70.127  1.00  0.00     0.000 HD 
HETATM   31  C   UNL     1      -8.408   7.136  70.701  1.00  0.00    -0.126 C  
HETATM   32  H   UNL     1      -6.934   6.451  71.873  1.00  0.00     0.000 HD 
HETATM   33  O   UNL     1      -6.695   5.927  69.441  1.00  0.00    -0.055 OA 
HETATM   34  C   UNL     1      -7.605   7.043  69.378  1.00  0.00    -0.099 C  
HETATM   35  O   UNL     1      -7.832   6.229  71.659  1.00  0.00    -0.099 OA 
BRANCH  29  36
HETATM   36  O   UNL     1     -10.650   7.971  70.202  1.00  0.00    -0.228 OA 
BRANCH  36  37
HETATM   37  C   UNL     1     -11.921   7.918  70.869  1.00  0.00    -0.196 C  
BRANCH  37  38
HETATM   38  C   UNL     1     -11.834   8.660  72.201  1.00  0.00    -0.377 C  
HETATM   39  H   UNL     1     -11.220   8.275  74.026  1.00  0.00     0.000 HD 
HETATM   40  O   UNL     1     -11.274   7.813  73.197  1.00  0.00    -0.402 OA 
ENDBRANCH  37  38
ENDBRANCH  36  37
ENDBRANCH  29  36
ENDBRANCH  13  27
ENDBRANCH   4   5
ENDBRANCH   3   4
ENDBRANCH   2   3
TORSDOF 10
ENDMDL
MODEL      116
REMARK 921   NORMALIZED FREE ENERGY PREDICTED BY IDOCK:   -4.90 KCAL/MOL
REMARK 922        TOTAL FREE ENERGY PREDICTED BY IDOCK:   -9.82 KCAL/MOL
REMARK 923 INTER-LIGAND FREE ENERGY PREDICTED BY IDOCK:   -8.28 KCAL/MOL
REMARK 924 INTRA-LIGAND FREE ENERGY PREDICTED BY IDOCK:   -1.55 KCAL/MOL
REMARK 927      BINDING AFFINITY PREDICTED BY RF-SCORE:    0.00 PKD
ROOT
HETATM    1  C   UNL     1      -8.252   8.876  63.455  1.00  0.00    -0.177 C  
HETATM    2  C   UNL     1      -7.025   8.806  64.353  1.00  0.00    -0.085 C  
ENDROOT
BRANCH   2   3
HETATM    3  C   UNL     1      -6.697  10.154  65.003  1.00  0.00    -0.127 C  
BRANCH   3   4
HETATM    4  S   UNL     1      -6.519   9.914  66.807  1.00  0.00    -0.071 SA 
BRANCH   4   5
HETATM    5  C   UNL     1      -8.217  10.056  67.323  1.00  0.00    -0.117 A  
HETATM    6  N   UNL     1      -8.674  11.316  67.498  1.00  0.00    -0.136 NA 
HETATM    7  C   UNL     1      -9.955  11.335  67.906  1.00  0.00    -0.175 A  
HETATM    8  C   UNL     1     -10.762  10.237  68.136  1.00  0.00    -0.246 A  
HETATM    9  N   UNL     1     -12.012  10.648  68.508  1.00  0.00    -0.392 NA 
HETATM   10  C   UNL     1     -10.214   8.968  67.897  1.00  0.00    -0.221 A  
HETATM   11  N   UNL     1      -8.914   8.911  67.485  1.00  0.00    -0.133 NA 
HETATM   12  N   UNL     1     -12.027  11.977  68.498  1.00  0.00    -0.382 NA 
HETATM   13  N   UNL     1     -10.796  12.399  68.105  1.00  0.00    -0.212 NA 
BRANCH  10  14
HETATM   14  N   UNL     1     -11.000   7.804  68.029  1.00  0.00    -0.462 NA 
HETATM   15  H   UNL     1     -11.744   7.597  67.363  1.00  0.00     0.000 HD 
BRANCH  14  16
HETATM   16  C   UNL     1     -10.722   6.901  69.148  1.00  0.00    -0.234 C  
HETATM   17  C   UNL     1     -10.564   7.445  70.551  1.00  0.00    -0.234 C  
HETATM   18  C   UNL     1     -11.770   6.621  70.183  1.00  0.00    -0.412 C  
BRANCH  17  19
HETATM   19  C   UNL     1      -9.436   6.905  71.395  1.00  0.00    -0.160 A  
HETATM   20  C   UNL     1      -7.084   6.724  71.989  1.00  0.00    -0.075 A  
HETATM   21  C   UNL     1      -8.095   7.262  71.191  1.00  0.00    -0.102 A  
HETATM   22  F   UNL     1      -5.815   7.095  71.776  1.00  0.00    -0.036 F  
HETATM   23  C   UNL     1      -7.390   5.817  72.996  1.00  0.00    -0.095 A  
HETATM   24  C   UNL     1      -9.716   5.977  72.419  1.00  0.00    -0.172 A  
HETATM   25  F   UNL     1      -6.416   5.302  73.756  1.00  0.00    -0.061 F  
HETATM   26  C   UNL     1      -8.704   5.436  73.216  1.00  0.00    -0.116 A  
ENDBRANCH  17  19
ENDBRANCH  14  16
ENDBRANCH  10  14
BRANCH  13  27
HETATM   27  C   UNL     1     -10.608  13.823  67.920  1.00  0.00    -0.252 C  
HETATM   28  C   UNL     1     -11.818  14.513  67.269  1.00  0.00    -0.419 C  
HETATM   29  C   UNL     1     -11.580  14.362  65.766  1.00  0.00    -0.353 C  
HETATM   30  H   UNL     1      -8.200  15.771  67.033  1.00  0.00     0.000 HD 
HETATM   31  C   UNL     1     -10.047  14.545  65.631  1.00  0.00    -0.359 C  
HETATM   32  H   UNL     1      -8.747  15.989  65.141  1.00  0.00     0.000 HD 
HETATM   33  O   UNL     1      -8.922  15.493  67.584  1.00  0.00    -0.180 OA 
HETATM   34  C   UNL     1      -9.446  14.269  67.033  1.00  0.00    -0.254 C  
HETATM   35  O   UNL     1      -9.686  15.877  65.224  1.00  0.00    -0.385 OA 
BRANCH  29  36
HETATM   36  O   UNL     1     -11.963  13.065  65.291  1.00  0.00    -0.357 OA 
BRANCH  36  37
HETATM   37  C   UNL     1     -12.230  13.025  63.880  1.00  0.00    -0.437 C  
BRANCH  37  38
HETATM   38  C   UNL     1     -11.696  11.721  63.293  1.00  0.00    -0.240 C  
HETATM   39  H   UNL     1      -9.944  10.943  62.869  1.00  0.00     0.000 HD 
HETATM   40  O   UNL     1     -10.276  11.755  63.235  1.00  0.00    -0.412 OA 
ENDBRANCH  37  38
ENDBRANCH  36  37
ENDBRANCH  29  36
ENDBRANCH  13  27
ENDBRANCH   4   5
ENDBRANCH   3   4
ENDBRANCH   2   3
TORSDOF 10
ENDMDL
MODEL      117
REMARK 921   NORMALIZED FREE ENERGY PREDICTED BY IDOCK:   -4.89 KCAL/MOL
REMARK 922        TOTAL FREE ENERGY PREDICTED BY IDOCK:   -9.82 KCAL/MOL
REMARK 923 INTER-LIGAND FREE ENERGY PREDICTED BY IDOCK:   -8.58 KCAL/MOL
REMARK 924 INTRA-LIGAND FREE ENERGY PREDICTED BY IDOCK:   -1.23 KCAL/MOL
REMARK 927      BINDING AFFINITY PREDICTED BY RF-SCORE:    0.00 PKD
ROOT
HETATM    1  C   UNL     1      -7.378  16.178  69.208  1.00  0.00    -0.231 C  
HETATM    2  C   UNL     1      -6.074  15.393  69.196  1.00  0.00    -0.108 C  
ENDROOT
BRANCH   2   3
HETATM    3  C   UNL     1      -6.235  13.982  69.775  1.00  0.00    -0.137 C  
BRANCH   3   4
HETATM    4  S   UNL     1      -6.123  12.767  68.413  1.00  0.00    -0.077 SA 
BRANCH   4   5
HETATM    5  C   UNL     1      -7.770  12.095  68.440  1.00  0.00    -0.134 A  
HETATM    6  N   UNL     1      -8.763  12.958  68.127  1.00  0.00    -0.186 NA 
HETATM    7  C   UNL     1      -9.973  12.378  68.191  1.00  0.00    -0.215 A  
HETATM    8  C   UNL     1     -10.241  11.064  68.526  1.00  0.00    -0.192 A  
HETATM    9  N   UNL     1     -11.585  10.829  68.451  1.00  0.00    -0.419 NA 
HETATM   10  C   UNL     1      -9.147  10.231  68.805  1.00  0.00    -0.159 A  
HETATM   11  N   UNL     1      -7.902  10.787  68.753  1.00  0.00    -0.120 NA 
HETATM   12  N   UNL     1     -12.177  11.951  68.052  1.00  0.00    -0.397 NA 
HETATM   13  N   UNL     1     -11.206  12.882  67.864  1.00  0.00    -0.253 NA 
BRANCH  10  14
HETATM   14  N   UNL     1      -9.334   8.859  69.074  1.00  0.00    -0.144 NA 
HETATM   15  H   UNL     1      -9.617   8.542  70.001  1.00  0.00     0.000 HD 
BRANCH  14  16
HETATM   16  C   UNL     1      -9.111   7.901  67.989  1.00  0.00    -0.132 C  
HETATM   17  C   UNL     1     -10.205   6.941  67.576  1.00  0.00    -0.249 C  
HETATM   18  C   UNL     1      -9.798   8.070  66.667  1.00  0.00    -0.322 C  
BRANCH  17  19
HETATM   19  C   UNL     1      -9.824   5.505  67.314  1.00  0.00    -0.169 A  
HETATM   20  C   UNL     1      -9.487   3.598  65.841  1.00  0.00    -0.160 A  
HETATM   21  C   UNL     1      -9.834   4.937  66.031  1.00  0.00    -0.219 A  
HETATM   22  F   UNL     1      -9.495   3.089  64.602  1.00  0.00    -0.135 F  
HETATM   23  C   UNL     1      -9.133   2.803  66.923  1.00  0.00    -0.150 A  
HETATM   24  C   UNL     1      -9.467   4.672  68.395  1.00  0.00    -0.201 A  
HETATM   25  F   UNL     1      -8.803   1.519  66.736  1.00  0.00    -0.098 F  
HETATM   26  C   UNL     1      -9.123   3.332  68.205  1.00  0.00    -0.214 A  
ENDBRANCH  17  19
ENDBRANCH  14  16
ENDBRANCH  10  14
BRANCH  13  27
HETATM   27  C   UNL     1     -11.609  14.165  67.326  1.00  0.00    -0.373 C  
HETATM   28  C   UNL     1     -12.573  14.044  66.134  1.00  0.00    -0.407 C  
HETATM   29  C   UNL     1     -11.658  13.905  64.916  1.00  0.00    -0.359 C  
HETATM   30  H   UNL     1     -10.203  17.003  66.734  1.00  0.00     0.000 HD 
HETATM   31  C   UNL     1     -10.483  14.860  65.246  1.00  0.00    -0.404 C  
HETATM   32  H   UNL     1      -9.893  16.722  64.797  1.00  0.00     0.000 HD 
HETATM   33  O   UNL     1     -10.886  16.436  67.073  1.00  0.00    -0.267 OA 
HETATM   34  C   UNL     1     -10.509  15.075  66.781  1.00  0.00    -0.283 C  
HETATM   35  O   UNL     1     -10.613  16.138  64.595  1.00  0.00    -0.597 OA 
BRANCH  29  36
HETATM   36  O   UNL     1     -11.172  12.566  64.762  1.00  0.00    -0.289 OA 
BRANCH  36  37
HETATM   37  C   UNL     1      -9.998  12.471  63.940  1.00  0.00    -0.173 C  
BRANCH  37  38
HETATM   38  C   UNL     1      -9.844  11.042  63.426  1.00  0.00    -0.363 C  
HETATM   39  H   UNL     1      -9.195   9.324  64.122  1.00  0.00     0.000 HD 
HETATM   40  O   UNL     1      -9.291  10.213  64.442  1.00  0.00    -0.249 OA 
ENDBRANCH  37  38
ENDBRANCH  36  37
ENDBRANCH  29  36
ENDBRANCH  13  27
ENDBRANCH   4   5
ENDBRANCH   3   4
ENDBRANCH   2   3
TORSDOF 10
ENDMDL
MODEL      118
REMARK 921   NORMALIZED FREE ENERGY PREDICTED BY IDOCK:   -4.89 KCAL/MOL
REMARK 922        TOTAL FREE ENERGY PREDICTED BY IDOCK:   -9.81 KCAL/MOL
REMARK 923 INTER-LIGAND FREE ENERGY PREDICTED BY IDOCK:   -7.99 KCAL/MOL
REMARK 924 INTRA-LIGAND FREE ENERGY PREDICTED BY IDOCK:   -1.82 KCAL/MOL
REMARK 927      BINDING AFFINITY PREDICTED BY RF-SCORE:    0.00 PKD
ROOT
HETATM    1  C   UNL     1     -11.050  14.500  64.921  1.00  0.00    -0.401 C  
HETATM    2  C   UNL     1     -11.891  13.719  65.921  1.00  0.00    -0.405 C  
ENDROOT
BRANCH   2   3
HETATM    3  C   UNL     1     -11.042  13.064  67.016  1.00  0.00    -0.281 C  
BRANCH   3   4
HETATM    4  S   UNL     1     -11.901  11.566  67.616  1.00  0.00     0.015 SA 
BRANCH   4   5
HETATM    5  C   UNL     1     -10.660  10.890  68.697  1.00  0.00    -0.195 A  
HETATM    6  N   UNL     1     -11.121  10.268  69.806  1.00  0.00    -0.268 NA 
HETATM    7  C   UNL     1     -10.122   9.805  70.576  1.00  0.00    -0.224 A  
HETATM    8  C   UNL     1      -8.768   9.916  70.323  1.00  0.00    -0.027 A  
HETATM    9  N   UNL     1      -8.057   9.296  71.313  1.00  0.00    -0.324 NA 
HETATM   10  C   UNL     1      -8.380  10.548  69.133  1.00  0.00    -0.151 A  
HETATM   11  N   UNL     1      -9.369  11.034  68.327  1.00  0.00    -0.166 NA 
HETATM   12  N   UNL     1      -8.924   8.773  72.176  1.00  0.00    -0.385 NA 
HETATM   13  N   UNL     1     -10.174   9.051  71.720  1.00  0.00    -0.344 NA 
BRANCH  10  14
HETATM   14  N   UNL     1      -7.021  10.626  68.765  1.00  0.00    -0.064 NA 
HETATM   15  H   UNL     1      -6.451   9.783  68.685  1.00  0.00     0.000 HD 
BRANCH  14  16
HETATM   16  C   UNL     1      -6.447  11.947  68.500  1.00  0.00    -0.057 C  
HETATM   17  C   UNL     1      -6.402  12.996  69.591  1.00  0.00    -0.089 C  
HETATM   18  C   UNL     1      -5.134  12.345  69.104  1.00  0.00    -0.067 C  
BRANCH  17  19
HETATM   19  C   UNL     1      -6.783  14.409  69.228  1.00  0.00    -0.126 A  
HETATM   20  C   UNL     1      -8.186  16.040  68.090  1.00  0.00    -0.152 A  
HETATM   21  C   UNL     1      -7.881  14.715  68.410  1.00  0.00    -0.131 A  
HETATM   22  F   UNL     1      -9.248  16.299  67.317  1.00  0.00    -0.201 F  
HETATM   23  C   UNL     1      -7.398  17.078  68.571  1.00  0.00    -0.220 A  
HETATM   24  C   UNL     1      -5.998  15.483  69.696  1.00  0.00    -0.133 A  
HETATM   25  F   UNL     1      -7.692  18.346  68.259  1.00  0.00    -0.255 F  
HETATM   26  C   UNL     1      -6.300  16.808  69.373  1.00  0.00    -0.222 A  
ENDBRANCH  17  19
ENDBRANCH  14  16
ENDBRANCH  10  14
BRANCH  13  27
HETATM   27  C   UNL     1     -11.290   8.486  72.451  1.00  0.00    -0.342 C  
HETATM   28  C   UNL     1     -11.108   6.993  72.773  1.00  0.00    -0.320 C  
HETATM   29  C   UNL     1     -11.648   6.270  71.538  1.00  0.00    -0.287 C  
HETATM   30  H   UNL     1     -14.500   8.749  72.393  1.00  0.00     0.000 HD 
HETATM   31  C   UNL     1     -12.868   7.132  71.127  1.00  0.00    -0.288 C  
HETATM   32  H   UNL     1     -14.860   7.109  71.340  1.00  0.00     0.000 HD 
HETATM   33  O   UNL     1     -13.647   8.726  72.811  1.00  0.00    -0.357 OA 
HETATM   34  C   UNL     1     -12.661   8.524  71.779  1.00  0.00    -0.349 C  
HETATM   35  O   UNL     1     -14.113   6.581  71.593  1.00  0.00    -0.028 OA 
BRANCH  29  36
HETATM   36  O   UNL     1     -10.689   6.239  70.473  1.00  0.00    -0.234 OA 
BRANCH  36  37
HETATM   37  C   UNL     1     -11.281   6.219  69.165  1.00  0.00    -0.371 C  
BRANCH  37  38
HETATM   38  C   UNL     1     -10.487   7.124  68.227  1.00  0.00    -0.198 C  
HETATM   39  H   UNL     1     -10.627   7.752  66.371  1.00  0.00     0.000 HD 
HETATM   40  O   UNL     1     -11.121   7.188  66.955  1.00  0.00    -0.345 OA 
ENDBRANCH  37  38
ENDBRANCH  36  37
ENDBRANCH  29  36
ENDBRANCH  13  27
ENDBRANCH   4   5
ENDBRANCH   3   4
ENDBRANCH   2   3
TORSDOF 10
ENDMDL
MODEL      119
REMARK 921   NORMALIZED FREE ENERGY PREDICTED BY IDOCK:   -4.89 KCAL/MOL
REMARK 922        TOTAL FREE ENERGY PREDICTED BY IDOCK:   -9.81 KCAL/MOL
REMARK 923 INTER-LIGAND FREE ENERGY PREDICTED BY IDOCK:   -7.83 KCAL/MOL
REMARK 924 INTRA-LIGAND FREE ENERGY PREDICTED BY IDOCK:   -1.98 KCAL/MOL
REMARK 927      BINDING AFFINITY PREDICTED BY RF-SCORE:    0.00 PKD
ROOT
HETATM    1  C   UNL     1     -10.274  12.043  63.508  1.00  0.00    -0.477 C  
HETATM    2  C   UNL     1      -9.880  11.480  64.867  1.00  0.00    -0.289 C  
ENDROOT
BRANCH   2   3
HETATM    3  C   UNL     1     -10.035   9.957  64.938  1.00  0.00    -0.120 C  
BRANCH   3   4
HETATM    4  S   UNL     1      -8.395   9.208  65.242  1.00  0.00    -0.155 SA 
BRANCH   4   5
HETATM    5  C   UNL     1      -8.270   9.406  67.007  1.00  0.00    -0.116 A  
HETATM    6  N   UNL     1      -8.472   8.287  67.739  1.00  0.00    -0.130 NA 
HETATM    7  C   UNL     1      -8.380   8.526  69.058  1.00  0.00    -0.118 A  
HETATM    8  C   UNL     1      -8.113   9.741  69.659  1.00  0.00    -0.154 A  
HETATM    9  N   UNL     1      -8.064   9.589  71.017  1.00  0.00    -0.293 NA 
HETATM   10  C   UNL     1      -7.884  10.842  68.821  1.00  0.00    -0.132 A  
HETATM   11  N   UNL     1      -7.974  10.638  67.474  1.00  0.00    -0.109 NA 
HETATM   12  N   UNL     1      -8.269   8.305  71.294  1.00  0.00    -0.114 NA 
HETATM   13  N   UNL     1      -8.430   7.651  70.113  1.00  0.00    -0.137 NA 
BRANCH  10  14
HETATM   14  N   UNL     1      -7.525  12.096  69.356  1.00  0.00    -0.321 NA 
HETATM   15  H   UNL     1      -7.253  12.189  70.335  1.00  0.00     0.000 HD 
BRANCH  14  16
HETATM   16  C   UNL     1      -7.551  13.263  68.471  1.00  0.00    -0.128 C  
HETATM   17  C   UNL     1      -8.433  14.450  68.795  1.00  0.00    -0.120 C  
HETATM   18  C   UNL     1      -6.935  14.561  68.900  1.00  0.00    -0.110 C  
BRANCH  17  19
HETATM   19  C   UNL     1      -9.219  15.074  67.668  1.00  0.00    -0.182 A  
HETATM   20  C   UNL     1     -10.919  15.005  65.928  1.00  0.00    -0.343 A  
HETATM   21  C   UNL     1     -10.230  14.390  66.975  1.00  0.00    -0.263 A  
HETATM   22  F   UNL     1     -11.886  14.329  65.296  1.00  0.00    -0.332 F  
HETATM   23  C   UNL     1     -10.609  16.305  65.550  1.00  0.00    -0.353 A  
HETATM   24  C   UNL     1      -8.921  16.389  67.257  1.00  0.00    -0.208 A  
HETATM   25  F   UNL     1     -11.271  16.889  64.544  1.00  0.00    -0.464 F  
HETATM   26  C   UNL     1      -9.609  17.004  66.208  1.00  0.00    -0.289 A  
ENDBRANCH  17  19
ENDBRANCH  14  16
ENDBRANCH  10  14
BRANCH  13  27
HETATM   27  C   UNL     1      -8.566   6.209  70.163  1.00  0.00    -0.133 C  
HETATM   28  C   UNL     1      -9.770   5.688  69.361  1.00  0.00    -0.208 C  
HETATM   29  C   UNL     1     -10.941   5.759  70.343  1.00  0.00    -0.262 C  
HETATM   30  H   UNL     1      -8.221   3.901  72.384  1.00  0.00     0.000 HD 
HETATM   31  C   UNL     1     -10.298   5.347  71.691  1.00  0.00    -0.218 C  
HETATM   32  H   UNL     1     -10.140   3.712  72.840  1.00  0.00     0.000 HD 
HETATM   33  O   UNL     1      -8.093   4.299  71.531  1.00  0.00    -0.083 OA 
HETATM   34  C   UNL     1      -8.772   5.571  71.536  1.00  0.00    -0.136 C  
HETATM   35  O   UNL     1     -10.534   3.964  72.014  1.00  0.00    -0.087 OA 
BRANCH  29  36
HETATM   36  O   UNL     1     -11.479   7.084  70.442  1.00  0.00    -0.299 OA 
BRANCH  36  37
HETATM   37  C   UNL     1     -11.929   7.425  71.762  1.00  0.00    -0.305 C  
BRANCH  37  38
HETATM   38  C   UNL     1     -11.818   8.933  71.969  1.00  0.00    -0.368 C  
HETATM   39  H   UNL     1     -11.406  10.511  70.874  1.00  0.00     0.000 HD 
HETATM   40  O   UNL     1     -11.476   9.572  70.744  1.00  0.00    -0.270 OA 
ENDBRANCH  37  38
ENDBRANCH  36  37
ENDBRANCH  29  36
ENDBRANCH  13  27
ENDBRANCH   4   5
ENDBRANCH   3   4
ENDBRANCH   2   3
TORSDOF 10
ENDMDL
MODEL      120
REMARK 921   NORMALIZED FREE ENERGY PREDICTED BY IDOCK:   -4.86 KCAL/MOL
REMARK 922        TOTAL FREE ENERGY PREDICTED BY IDOCK:   -9.77 KCAL/MOL
REMARK 923 INTER-LIGAND FREE ENERGY PREDICTED BY IDOCK:   -8.30 KCAL/MOL
REMARK 924 INTRA-LIGAND FREE ENERGY PREDICTED BY IDOCK:   -1.47 KCAL/MOL
REMARK 927      BINDING AFFINITY PREDICTED BY RF-SCORE:    0.00 PKD
ROOT
HETATM    1  C   UNL     1     -12.300  13.850  64.161  1.00  0.00    -0.380 C  
HETATM    2  C   UNL     1     -11.869  14.495  65.471  1.00  0.00    -0.330 C  
ENDROOT
BRANCH   2   3
HETATM    3  C   UNL     1     -12.211  13.630  66.690  1.00  0.00    -0.389 C  
BRANCH   3   4
HETATM    4  S   UNL     1     -11.722  14.525  68.207  1.00  0.00    -0.324 SA 
BRANCH   4   5
HETATM    5  C   UNL     1      -9.951  14.514  68.034  1.00  0.00    -0.222 A  
HETATM    6  N   UNL     1      -9.328  15.687  68.288  1.00  0.00    -0.190 NA 
HETATM    7  C   UNL     1      -7.998  15.598  68.115  1.00  0.00    -0.128 A  
HETATM    8  C   UNL     1      -7.290  14.476  67.730  1.00  0.00    -0.175 A  
HETATM    9  N   UNL     1      -5.953  14.758  67.693  1.00  0.00    -0.322 NA 
HETATM   10  C   UNL     1      -8.014  13.293  67.520  1.00  0.00    -0.184 A  
HETATM   11  N   UNL     1      -9.368  13.347  67.682  1.00  0.00    -0.208 NA 
HETATM   12  N   UNL     1      -5.790  16.023  68.069  1.00  0.00    -0.114 NA 
HETATM   13  N   UNL     1      -7.019  16.528  68.355  1.00  0.00    -0.145 NA 
BRANCH  10  14
HETATM   14  N   UNL     1      -7.354  12.087  67.206  1.00  0.00    -0.145 NA 
HETATM   15  H   UNL     1      -6.749  12.020  66.388  1.00  0.00     0.000 HD 
BRANCH  14  16
HETATM   16  C   UNL     1      -7.559  10.933  68.085  1.00  0.00    -0.094 C  
HETATM   17  C   UNL     1      -8.497   9.817  67.678  1.00  0.00    -0.122 C  
HETATM   18  C   UNL     1      -7.009   9.587  67.720  1.00  0.00    -0.080 C  
BRANCH  17  19
HETATM   19  C   UNL     1      -9.436   9.267  68.722  1.00  0.00    -0.150 A  
HETATM   20  C   UNL     1     -10.778   7.484  69.691  1.00  0.00    -0.230 A  
HETATM   21  C   UNL     1      -9.898   7.942  68.710  1.00  0.00    -0.171 A  
HETATM   22  F   UNL     1     -11.190   6.210  69.657  1.00  0.00    -0.367 F  
HETATM   23  C   UNL     1     -11.220   8.337  70.694  1.00  0.00    -0.256 A  
HETATM   24  C   UNL     1      -9.907  10.113  69.748  1.00  0.00    -0.245 A  
HETATM   25  F   UNL     1     -12.067   7.893  71.631  1.00  0.00    -0.267 F  
HETATM   26  C   UNL     1     -10.791   9.655  70.728  1.00  0.00    -0.400 A  
ENDBRANCH  17  19
ENDBRANCH  14  16
ENDBRANCH  10  14
BRANCH  13  27
HETATM   27  C   UNL     1      -7.078  17.874  68.888  1.00  0.00    -0.264 C  
HETATM   28  C   UNL     1      -7.922  18.828  68.026  1.00  0.00    -0.306 C  
HETATM   29  C   UNL     1      -6.943  19.364  66.981  1.00  0.00    -0.197 C  
HETATM   30  H   UNL     1      -5.037  19.922  70.308  1.00  0.00     0.000 HD 
HETATM   31  C   UNL     1      -5.627  19.532  67.782  1.00  0.00    -0.188 C  
HETATM   32  H   UNL     1      -4.605  20.992  68.698  1.00  0.00     0.000 HD 
HETATM   33  O   UNL     1      -5.858  19.452  70.216  1.00  0.00    -0.241 OA 
HETATM   34  C   UNL     1      -5.759  18.629  69.036  1.00  0.00    -0.213 C  
HETATM   35  O   UNL     1      -5.411  20.890  68.208  1.00  0.00    -0.264 OA 
BRANCH  29  36
HETATM   36  O   UNL     1      -6.747  18.438  65.905  1.00  0.00    -0.232 OA 
BRANCH  36  37
HETATM   37  C   UNL     1      -5.855  18.919  64.887  1.00  0.00    -0.281 C  
BRANCH  37  38
HETATM   38  C   UNL     1      -6.281  20.318  64.449  1.00  0.00    -0.272 C  
HETATM   39  H   UNL     1      -5.444  22.084  64.261  1.00  0.00     0.000 HD 
HETATM   40  O   UNL     1      -5.179  21.214  64.533  1.00  0.00    -0.202 OA 
ENDBRANCH  37  38
ENDBRANCH  36  37
ENDBRANCH  29  36
ENDBRANCH  13  27
ENDBRANCH   4   5
ENDBRANCH   3   4
ENDBRANCH   2   3
TORSDOF 10
ENDMDL
MODEL      121
REMARK 921   NORMALIZED FREE ENERGY PREDICTED BY IDOCK:   -4.85 KCAL/MOL
REMARK 922        TOTAL FREE ENERGY PREDICTED BY IDOCK:   -9.75 KCAL/MOL
REMARK 923 INTER-LIGAND FREE ENERGY PREDICTED BY IDOCK:   -8.54 KCAL/MOL
REMARK 924 INTRA-LIGAND FREE ENERGY PREDICTED BY IDOCK:   -1.21 KCAL/MOL
REMARK 927      BINDING AFFINITY PREDICTED BY RF-SCORE:    0.00 PKD
ROOT
HETATM    1  C   UNL     1     -13.080  10.714  71.755  1.00  0.00    -0.571 C  
HETATM    2  C   UNL     1     -13.595   9.318  72.076  1.00  0.00    -0.519 C  
ENDROOT
BRANCH   2   3
HETATM    3  C   UNL     1     -12.467   8.346  72.438  1.00  0.00    -0.331 C  
BRANCH   3   4
HETATM    4  S   UNL     1     -12.463   6.968  71.236  1.00  0.00    -0.358 SA 
BRANCH   4   5
HETATM    5  C   UNL     1     -10.991   7.348  70.311  1.00  0.00    -0.255 A  
HETATM    6  N   UNL     1     -10.139   6.317  70.113  1.00  0.00    -0.175 NA 
HETATM    7  C   UNL     1      -9.046   6.692  69.426  1.00  0.00    -0.143 A  
HETATM    8  C   UNL     1      -8.767   7.959  68.949  1.00  0.00    -0.135 A  
HETATM    9  N   UNL     1      -7.581   7.949  68.270  1.00  0.00    -0.113 NA 
HETATM   10  C   UNL     1      -9.723   8.960  69.171  1.00  0.00    -0.168 A  
HETATM   11  N   UNL     1     -10.844   8.617  69.870  1.00  0.00    -0.231 NA 
HETATM   12  N   UNL     1      -7.110   6.706  68.281  1.00  0.00    -0.080 NA 
HETATM   13  N   UNL     1      -8.006   5.934  68.952  1.00  0.00    -0.101 NA 
BRANCH  10  14
HETATM   14  N   UNL     1      -9.549  10.257  68.644  1.00  0.00    -0.161 NA 
HETATM   15  H   UNL     1      -8.963  10.941  69.122  1.00  0.00     0.000 HD 
BRANCH  14  16
HETATM   16  C   UNL     1     -10.230  10.596  67.393  1.00  0.00    -0.204 C  
HETATM   17  C   UNL     1      -9.538  11.445  66.348  1.00  0.00    -0.228 C  
HETATM   18  C   UNL     1      -9.796   9.983  66.096  1.00  0.00    -0.309 C  
BRANCH  17  19
HETATM   19  C   UNL     1     -10.337  12.539  65.685  1.00  0.00    -0.294 A  
HETATM   20  C   UNL     1     -10.734  14.868  65.102  1.00  0.00    -0.411 A  
HETATM   21  C   UNL     1      -9.953  13.888  65.718  1.00  0.00    -0.304 A  
HETATM   22  F   UNL     1     -10.333  16.145  65.140  1.00  0.00    -0.370 F  
HETATM   23  C   UNL     1     -11.912  14.521  64.451  1.00  0.00    -0.449 A  
HETATM   24  C   UNL     1     -11.540  12.218  65.025  1.00  0.00    -0.394 A  
HETATM   25  F   UNL     1     -12.658  15.464  63.864  1.00  0.00    -0.407 F  
HETATM   26  C   UNL     1     -12.324  13.198  64.411  1.00  0.00    -0.426 A  
ENDBRANCH  17  19
ENDBRANCH  14  16
ENDBRANCH  10  14
BRANCH  13  27
HETATM   27  C   UNL     1      -7.751   4.509  69.003  1.00  0.00    -0.070 C  
HETATM   28  C   UNL     1      -7.293   3.929  67.654  1.00  0.00    -0.067 C  
HETATM   29  C   UNL     1      -8.594   3.595  66.922  1.00  0.00    -0.110 C  
HETATM   30  H   UNL     1      -9.109   1.936  70.385  1.00  0.00     0.000 HD 
HETATM   31  C   UNL     1      -9.512   3.068  68.054  1.00  0.00    -0.159 C  
HETATM   32  H   UNL     1     -10.115   1.308  68.799  1.00  0.00     0.000 HD 
HETATM   33  O   UNL     1      -8.383   2.502  70.149  1.00  0.00    -0.041 OA 
HETATM   34  C   UNL     1      -8.918   3.600  69.383  1.00  0.00    -0.114 C  
HETATM   35  O   UNL     1      -9.552   1.631  68.105  1.00  0.00    -0.191 OA 
BRANCH  29  36
HETATM   36  O   UNL     1      -9.180   4.754  66.315  1.00  0.00    -0.129 OA 
BRANCH  36  37
HETATM   37  C   UNL     1      -9.162   4.722  64.879  1.00  0.00    -0.116 C  
BRANCH  37  38
HETATM   38  C   UNL     1     -10.022   3.564  64.380  1.00  0.00    -0.185 C  
HETATM   39  H   UNL     1     -11.244   3.220  62.882  1.00  0.00     0.000 HD 
HETATM   40  O   UNL     1     -10.709   3.941  63.193  1.00  0.00    -0.221 OA 
ENDBRANCH  37  38
ENDBRANCH  36  37
ENDBRANCH  29  36
ENDBRANCH  13  27
ENDBRANCH   4   5
ENDBRANCH   3   4
ENDBRANCH   2   3
TORSDOF 10
ENDMDL
MODEL      122
REMARK 921   NORMALIZED FREE ENERGY PREDICTED BY IDOCK:   -4.84 KCAL/MOL
REMARK 922        TOTAL FREE ENERGY PREDICTED BY IDOCK:   -9.73 KCAL/MOL
REMARK 923 INTER-LIGAND FREE ENERGY PREDICTED BY IDOCK:   -9.17 KCAL/MOL
REMARK 924 INTRA-LIGAND FREE ENERGY PREDICTED BY IDOCK:   -0.56 KCAL/MOL
REMARK 927      BINDING AFFINITY PREDICTED BY RF-SCORE:    0.00 PKD
ROOT
HETATM    1  C   UNL     1      -8.121  16.498  66.463  1.00  0.00    -0.341 C  
HETATM    2  C   UNL     1      -9.319  15.684  66.934  1.00  0.00    -0.252 C  
ENDROOT
BRANCH   2   3
HETATM    3  C   UNL     1      -9.025  14.181  66.975  1.00  0.00    -0.237 C  
BRANCH   3   4
HETATM    4  S   UNL     1     -10.204  13.317  65.876  1.00  0.00    -0.295 SA 
BRANCH   4   5
HETATM    5  C   UNL     1     -10.372  11.767  66.735  1.00  0.00    -0.219 A  
HETATM    6  N   UNL     1      -9.529  10.784  66.344  1.00  0.00    -0.168 NA 
HETATM    7  C   UNL     1      -9.735   9.644  67.025  1.00  0.00    -0.181 A  
HETATM    8  C   UNL     1     -10.674   9.435  68.017  1.00  0.00    -0.190 A  
HETATM    9  N   UNL     1     -10.564   8.161  68.501  1.00  0.00    -0.151 NA 
HETATM   10  C   UNL     1     -11.484  10.520  68.382  1.00  0.00    -0.214 A  
HETATM   11  N   UNL     1     -11.306  11.693  67.707  1.00  0.00    -0.269 NA 
HETATM   12  N   UNL     1      -9.564   7.563  67.861  1.00  0.00    -0.141 NA 
HETATM   13  N   UNL     1      -9.038   8.463  66.989  1.00  0.00    -0.140 NA 
BRANCH  10  14
HETATM   14  N   UNL     1     -12.409  10.409  69.441  1.00  0.00    -0.651 NA 
HETATM   15  H   UNL     1     -13.201   9.769  69.379  1.00  0.00     0.000 HD 
BRANCH  14  16
HETATM   16  C   UNL     1     -12.202  11.234  70.633  1.00  0.00    -0.393 C  
HETATM   17  C   UNL     1     -13.274  12.200  71.092  1.00  0.00     0.049 C  
HETATM   18  C   UNL     1     -12.968  10.962  71.893  1.00  0.00    -0.502 C  
BRANCH  17  19
HETATM   19  C   UNL     1     -12.843  13.579  71.526  1.00  0.00    -0.440 A  
HETATM   20  C   UNL     1     -11.794  15.737  71.124  1.00  0.00    -0.425 A  
HETATM   21  C   UNL     1     -12.187  14.476  70.670  1.00  0.00    -0.401 A  
HETATM   22  F   UNL     1     -11.181  16.575  70.278  1.00  0.00    -0.353 F  
HETATM   23  C   UNL     1     -12.040  16.121  72.436  1.00  0.00    -0.540 A  
HETATM   24  C   UNL     1     -13.073  13.993  72.854  1.00  0.00    -0.481 A  
HETATM   25  F   UNL     1     -11.660  17.330  72.866  1.00  0.00    -0.428 F  
HETATM   26  C   UNL     1     -12.677  15.253  73.309  1.00  0.00    -0.628 A  
ENDBRANCH  17  19
ENDBRANCH  14  16
ENDBRANCH  10  14
BRANCH  13  27
HETATM   27  C   UNL     1      -7.860   8.062  66.247  1.00  0.00    -0.099 C  
HETATM   28  C   UNL     1      -8.190   7.256  64.980  1.00  0.00    -0.100 C  
HETATM   29  C   UNL     1      -8.287   5.809  65.464  1.00  0.00    -0.140 C  
HETATM   30  H   UNL     1      -4.907   6.984  66.949  1.00  0.00     0.000 HD 
HETATM   31  C   UNL     1      -7.163   5.714  66.526  1.00  0.00    -0.077 C  
HETATM   32  H   UNL     1      -5.273   5.059  66.656  1.00  0.00     0.000 HD 
HETATM   33  O   UNL     1      -5.535   7.540  66.504  1.00  0.00    -0.023 OA 
HETATM   34  C   UNL     1      -6.850   7.168  66.965  1.00  0.00    -0.072 C  
HETATM   35  O   UNL     1      -5.962   5.117  66.005  1.00  0.00    -0.021 OA 
BRANCH  29  36
HETATM   36  O   UNL     1      -9.557   5.530  66.068  1.00  0.00    -0.157 OA 
BRANCH  36  37
HETATM   37  C   UNL     1     -10.301   4.504  65.393  1.00  0.00    -0.199 C  
BRANCH  37  38
HETATM   38  C   UNL     1      -9.372   3.711  64.478  1.00  0.00    -0.149 C  
HETATM   39  H   UNL     1      -8.800   1.843  64.275  1.00  0.00     0.000 HD 
HETATM   40  O   UNL     1      -9.379   2.336  64.845  1.00  0.00    -0.139 OA 
ENDBRANCH  37  38
ENDBRANCH  36  37
ENDBRANCH  29  36
ENDBRANCH  13  27
ENDBRANCH   4   5
ENDBRANCH   3   4
ENDBRANCH   2   3
TORSDOF 10
ENDMDL
MODEL      123
REMARK 921   NORMALIZED FREE ENERGY PREDICTED BY IDOCK:   -4.83 KCAL/MOL
REMARK 922        TOTAL FREE ENERGY PREDICTED BY IDOCK:   -9.72 KCAL/MOL
REMARK 923 INTER-LIGAND FREE ENERGY PREDICTED BY IDOCK:   -7.67 KCAL/MOL
REMARK 924 INTRA-LIGAND FREE ENERGY PREDICTED BY IDOCK:   -2.04 KCAL/MOL
REMARK 927      BINDING AFFINITY PREDICTED BY RF-SCORE:    0.00 PKD
ROOT
HETATM    1  C   UNL     1      -9.438   8.918  71.626  1.00  0.00    -0.351 C  
HETATM    2  C   UNL     1     -10.432   7.792  71.878  1.00  0.00    -0.268 C  
ENDROOT
BRANCH   2   3
HETATM    3  C   UNL     1     -10.059   6.505  71.136  1.00  0.00    -0.183 C  
BRANCH   3   4
HETATM    4  S   UNL     1     -11.310   6.183  69.841  1.00  0.00    -0.275 SA 
BRANCH   4   5
HETATM    5  C   UNL     1     -10.468   6.823  68.409  1.00  0.00    -0.205 A  
HETATM    6  N   UNL     1      -9.867   5.903  67.621  1.00  0.00    -0.115 NA 
HETATM    7  C   UNL     1      -9.239   6.470  66.576  1.00  0.00    -0.157 A  
HETATM    8  C   UNL     1      -9.178   7.819  66.284  1.00  0.00    -0.166 A  
HETATM    9  N   UNL     1      -8.481   8.013  65.124  1.00  0.00    -0.135 NA 
HETATM   10  C   UNL     1      -9.859   8.699  67.138  1.00  0.00    -0.207 A  
HETATM   11  N   UNL     1     -10.505   8.159  68.213  1.00  0.00    -0.191 NA 
HETATM   12  N   UNL     1      -8.117   6.822  64.659  1.00  0.00    -0.116 NA 
HETATM   13  N   UNL     1      -8.599   5.882  65.515  1.00  0.00    -0.154 NA 
BRANCH  10  14
HETATM   14  N   UNL     1      -9.913  10.080  66.860  1.00  0.00    -0.199 NA 
HETATM   15  H   UNL     1      -9.180  10.533  66.314  1.00  0.00     0.000 HD 
BRANCH  14  16
HETATM   16  C   UNL     1     -11.047  10.849  67.376  1.00  0.00    -0.307 C  
HETATM   17  C   UNL     1     -10.818  12.137  68.137  1.00  0.00    -0.256 C  
HETATM   18  C   UNL     1     -11.424  12.163  66.758  1.00  0.00    -0.418 C  
BRANCH  17  19
HETATM   19  C   UNL     1     -11.629  12.373  69.387  1.00  0.00    -0.371 A  
HETATM   20  C   UNL     1     -12.814  11.599  71.366  1.00  0.00    -0.356 A  
HETATM   21  C   UNL     1     -12.052  11.332  70.227  1.00  0.00    -0.459 A  
HETATM   22  F   UNL     1     -13.191  10.584  72.154  1.00  0.00    -0.522 F  
HETATM   23  C   UNL     1     -13.173  12.903  71.682  1.00  0.00    -0.324 A  
HETATM   24  C   UNL     1     -12.015  13.685  69.728  1.00  0.00    -0.404 A  
HETATM   25  F   UNL     1     -13.906  13.154  72.774  1.00  0.00    -0.602 F  
HETATM   26  C   UNL     1     -12.780  13.953  70.866  1.00  0.00    -0.410 A  
ENDBRANCH  17  19
ENDBRANCH  14  16
ENDBRANCH  10  14
BRANCH  13  27
HETATM   27  C   UNL     1      -8.411   4.492  65.153  1.00  0.00    -0.122 C  
HETATM   28  C   UNL     1      -7.468   3.742  66.109  1.00  0.00    -0.080 C  
HETATM   29  C   UNL     1      -6.070   4.001  65.546  1.00  0.00    -0.024 C  
HETATM   30  H   UNL     1      -8.042   2.812  62.429  1.00  0.00     0.000 HD 
HETATM   31  C   UNL     1      -6.291   3.957  64.013  1.00  0.00    -0.030 C  
HETATM   32  H   UNL     1      -6.068   2.660  62.502  1.00  0.00     0.000 HD 
HETATM   33  O   UNL     1      -8.418   2.994  63.283  1.00  0.00    -0.085 OA 
HETATM   34  C   UNL     1      -7.805   4.200  63.781  1.00  0.00    -0.087 C  
HETATM   35  O   UNL     1      -5.932   2.686  63.441  1.00  0.00    -0.009 OA 
BRANCH  29  36
HETATM   36  O   UNL     1      -5.566   5.286  65.932  1.00  0.00    -0.013 OA 
BRANCH  36  37
HETATM   37  C   UNL     1      -5.398   5.436  67.350  1.00  0.00    -0.008 C  
BRANCH  37  38
HETATM   38  C   UNL     1      -5.911   6.806  67.787  1.00  0.00    -0.020 C  
HETATM   39  H   UNL     1      -6.997   7.537  69.250  1.00  0.00     0.000 HD 
HETATM   40  O   UNL     1      -6.678   6.685  68.979  1.00  0.00    -0.049 OA 
ENDBRANCH  37  38
ENDBRANCH  36  37
ENDBRANCH  29  36
ENDBRANCH  13  27
ENDBRANCH   4   5
ENDBRANCH   3   4
ENDBRANCH   2   3
TORSDOF 10
ENDMDL
MODEL      124
REMARK 921   NORMALIZED FREE ENERGY PREDICTED BY IDOCK:   -4.82 KCAL/MOL
REMARK 922        TOTAL FREE ENERGY PREDICTED BY IDOCK:   -9.71 KCAL/MOL
REMARK 923 INTER-LIGAND FREE ENERGY PREDICTED BY IDOCK:   -8.38 KCAL/MOL
REMARK 924 INTRA-LIGAND FREE ENERGY PREDICTED BY IDOCK:   -1.33 KCAL/MOL
REMARK 927      BINDING AFFINITY PREDICTED BY RF-SCORE:    0.00 PKD
ROOT
HETATM    1  C   UNL     1     -13.326  15.414  71.808  1.00  0.00    -0.567 C  
HETATM    2  C   UNL     1     -13.871  14.032  71.474  1.00  0.00    -0.334 C  
ENDROOT
BRANCH   2   3
HETATM    3  C   UNL     1     -12.960  12.907  71.977  1.00  0.00    -0.280 C  
BRANCH   3   4
HETATM    4  S   UNL     1     -13.114  11.473  70.853  1.00  0.00     0.224 SA 
BRANCH   4   5
HETATM    5  C   UNL     1     -11.634  11.661  69.883  1.00  0.00    -0.288 A  
HETATM    6  N   UNL     1     -11.386  12.908  69.424  1.00  0.00    -0.233 NA 
HETATM    7  C   UNL     1     -10.264  12.959  68.685  1.00  0.00    -0.160 A  
HETATM    8  C   UNL     1      -9.420  11.904  68.395  1.00  0.00    -0.189 A  
HETATM    9  N   UNL     1      -8.364  12.345  67.646  1.00  0.00    -0.157 NA 
HETATM   10  C   UNL     1      -9.737  10.651  68.940  1.00  0.00    -0.202 A  
HETATM   11  N   UNL     1     -10.872  10.561  69.692  1.00  0.00    -0.257 NA 
HETATM   12  N   UNL     1      -8.501  13.656  67.475  1.00  0.00    -0.177 NA 
HETATM   13  N   UNL     1      -9.631  14.040  68.126  1.00  0.00    -0.214 NA 
BRANCH  10  14
HETATM   14  N   UNL     1      -8.881   9.546  68.757  1.00  0.00    -0.130 NA 
HETATM   15  H   UNL     1      -8.201   9.287  69.471  1.00  0.00     0.000 HD 
BRANCH  14  16
HETATM   16  C   UNL     1      -8.994   8.778  67.515  1.00  0.00    -0.134 C  
HETATM   17  C   UNL     1     -10.002   7.655  67.396  1.00  0.00    -0.252 C  
HETATM   18  C   UNL     1     -10.190   8.935  66.625  1.00  0.00    -0.338 C  
BRANCH  17  19
HETATM   19  C   UNL     1      -9.555   6.370  66.745  1.00  0.00    -0.189 A  
HETATM   20  C   UNL     1      -8.391   5.123  65.010  1.00  0.00    -0.144 A  
HETATM   21  C   UNL     1      -8.767   6.339  65.584  1.00  0.00    -0.122 A  
HETATM   22  F   UNL     1      -7.628   5.128  63.909  1.00  0.00    -0.058 F  
HETATM   23  C   UNL     1      -8.799   3.922  65.575  1.00  0.00    -0.124 A  
HETATM   24  C   UNL     1      -9.961   5.136  67.292  1.00  0.00    -0.218 A  
HETATM   25  F   UNL     1      -8.438   2.759  65.019  1.00  0.00    -0.088 F  
HETATM   26  C   UNL     1      -9.587   3.919  66.715  1.00  0.00    -0.222 A  
ENDBRANCH  17  19
ENDBRANCH  14  16
ENDBRANCH  10  14
BRANCH  13  27
HETATM   27  C   UNL     1      -9.930  15.456  68.162  1.00  0.00    -0.221 C  
HETATM   28  C   UNL     1     -11.259  15.811  67.473  1.00  0.00    -0.218 C  
HETATM   29  C   UNL     1     -10.886  16.003  66.003  1.00  0.00    -0.190 C  
HETATM   30  H   UNL     1      -8.283  18.206  67.842  1.00  0.00     0.000 HD 
HETATM   31  C   UNL     1      -9.503  16.699  66.076  1.00  0.00    -0.251 C  
HETATM   32  H   UNL     1      -8.747  18.550  65.947  1.00  0.00     0.000 HD 
HETATM   33  O   UNL     1      -8.900  17.618  68.261  1.00  0.00    -0.260 OA 
HETATM   34  C   UNL     1      -8.937  16.401  67.488  1.00  0.00    -0.192 C  
HETATM   35  O   UNL     1      -9.594  18.124  65.902  1.00  0.00    -0.519 OA 
BRANCH  29  36
HETATM   36  O   UNL     1     -10.769  14.753  65.312  1.00  0.00    -0.335 OA 
BRANCH  36  37
HETATM   37  C   UNL     1     -11.988  14.329  64.681  1.00  0.00    -0.455 C  
BRANCH  37  38
HETATM   38  C   UNL     1     -12.819  13.511  65.667  1.00  0.00    -0.321 C  
HETATM   39  H   UNL     1     -12.832  11.676  66.364  1.00  0.00     0.000 HD 
HETATM   40  O   UNL     1     -12.314  12.184  65.751  1.00  0.00    -0.564 OA 
ENDBRANCH  37  38
ENDBRANCH  36  37
ENDBRANCH  29  36
ENDBRANCH  13  27
ENDBRANCH   4   5
ENDBRANCH   3   4
ENDBRANCH   2   3
TORSDOF 10
ENDMDL
MODEL      125
REMARK 921   NORMALIZED FREE ENERGY PREDICTED BY IDOCK:   -4.81 KCAL/MOL
REMARK 922        TOTAL FREE ENERGY PREDICTED BY IDOCK:   -9.68 KCAL/MOL
REMARK 923 INTER-LIGAND FREE ENERGY PREDICTED BY IDOCK:   -8.54 KCAL/MOL
REMARK 924 INTRA-LIGAND FREE ENERGY PREDICTED BY IDOCK:   -1.14 KCAL/MOL
REMARK 927      BINDING AFFINITY PREDICTED BY RF-SCORE:    0.00 PKD
ROOT
HETATM    1  C   UNL     1     -12.431  11.959  63.378  1.00  0.00    -0.582 C  
HETATM    2  C   UNL     1     -12.727  12.657  64.698  1.00  0.00    -0.458 C  
ENDROOT
BRANCH   2   3
HETATM    3  C   UNL     1     -12.222  14.104  64.721  1.00  0.00    -0.440 C  
BRANCH   3   4
HETATM    4  S   UNL     1     -10.449  14.106  65.166  1.00  0.00    -0.419 SA 
BRANCH   4   5
HETATM    5  C   UNL     1     -10.469  13.034  66.587  1.00  0.00    -0.264 A  
HETATM    6  N   UNL     1     -11.236  13.444  67.622  1.00  0.00    -0.265 NA 
HETATM    7  C   UNL     1     -11.180  12.591  68.659  1.00  0.00    -0.278 A  
HETATM    8  C   UNL     1     -10.450  11.419  68.723  1.00  0.00    -0.204 A  
HETATM    9  N   UNL     1     -10.668  10.801  69.923  1.00  0.00    -0.202 NA 
HETATM   10  C   UNL     1      -9.709  11.054  67.590  1.00  0.00    -0.168 A  
HETATM   11  N   UNL     1      -9.738  11.900  66.519  1.00  0.00    -0.205 NA 
HETATM   12  N   UNL     1     -11.536  11.535  70.612  1.00  0.00    -0.035 NA 
HETATM   13  N   UNL     1     -11.873  12.603  69.842  1.00  0.00    -0.320 NA 
BRANCH  10  14
HETATM   14  N   UNL     1      -9.005   9.833  67.549  1.00  0.00    -0.131 NA 
HETATM   15  H   UNL     1      -8.104   9.732  68.016  1.00  0.00     0.000 HD 
BRANCH  14  16
HETATM   16  C   UNL     1      -9.601   8.712  66.819  1.00  0.00    -0.207 C  
HETATM   17  C   UNL     1      -9.532   7.308  67.381  1.00  0.00    -0.159 C  
HETATM   18  C   UNL     1     -10.844   8.044  67.326  1.00  0.00    -0.159 C  
BRANCH  17  19
HETATM   19  C   UNL     1      -9.188   6.185  66.434  1.00  0.00    -0.166 A  
HETATM   20  C   UNL     1      -9.181   3.841  65.781  1.00  0.00    -0.156 A  
HETATM   21  C   UNL     1      -9.535   4.847  66.681  1.00  0.00    -0.153 A  
HETATM   22  F   UNL     1      -9.538   2.576  66.040  1.00  0.00    -0.066 F  
HETATM   23  C   UNL     1      -8.469   4.146  64.628  1.00  0.00    -0.110 A  
HETATM   24  C   UNL     1      -8.460   6.464  65.259  1.00  0.00    -0.102 A  
HETATM   25  F   UNL     1      -8.130   3.177  63.770  1.00  0.00    -0.078 F  
HETATM   26  C   UNL     1      -8.102   5.456  64.361  1.00  0.00    -0.123 A  
ENDBRANCH  17  19
ENDBRANCH  14  16
ENDBRANCH  10  14
BRANCH  13  27
HETATM   27  C   UNL     1     -12.894  13.495  70.351  1.00  0.00     0.004 C  
HETATM   28  C   UNL     1     -12.753  14.935  69.828  1.00  0.00    -0.062 C  
HETATM   29  C   UNL     1     -11.785  15.602  70.807  1.00  0.00    -0.375 C  
HETATM   30  H   UNL     1     -14.396  13.973  73.161  1.00  0.00     0.000 HD 
HETATM   31  C   UNL     1     -12.193  14.999  72.175  1.00  0.00    -0.368 C  
HETATM   32  H   UNL     1     -13.298  15.506  73.768  1.00  0.00     0.000 HD 
HETATM   33  O   UNL     1     -14.352  13.851  72.220  1.00  0.00    -0.576 OA 
HETATM   34  C   UNL     1     -12.964  13.691  71.865  1.00  0.00    -0.341 C  
HETATM   35  O   UNL     1     -13.049  15.876  72.930  1.00  0.00    -0.456 OA 
BRANCH  29  36
HETATM   36  O   UNL     1     -10.420  15.278  70.515  1.00  0.00    -0.242 OA 
BRANCH  36  37
HETATM   37  C   UNL     1      -9.857  16.063  69.453  1.00  0.00    -0.254 C  
BRANCH  37  38
HETATM   38  C   UNL     1      -8.670  15.323  68.841  1.00  0.00    -0.208 C  
HETATM   39  H   UNL     1      -6.782  15.015  69.284  1.00  0.00     0.000 HD 
HETATM   40  O   UNL     1      -7.521  15.475  69.666  1.00  0.00    -0.210 OA 
ENDBRANCH  37  38
ENDBRANCH  36  37
ENDBRANCH  29  36
ENDBRANCH  13  27
ENDBRANCH   4   5
ENDBRANCH   3   4
ENDBRANCH   2   3
TORSDOF 10
ENDMDL
MODEL      126
REMARK 921   NORMALIZED FREE ENERGY PREDICTED BY IDOCK:   -4.80 KCAL/MOL
REMARK 922        TOTAL FREE ENERGY PREDICTED BY IDOCK:   -9.67 KCAL/MOL
REMARK 923 INTER-LIGAND FREE ENERGY PREDICTED BY IDOCK:   -8.21 KCAL/MOL
REMARK 924 INTRA-LIGAND FREE ENERGY PREDICTED BY IDOCK:   -1.46 KCAL/MOL
REMARK 927      BINDING AFFINITY PREDICTED BY RF-SCORE:    0.00 PKD
ROOT
HETATM    1  C   UNL     1      -8.547   8.813  71.367  1.00  0.00    -0.254 C  
HETATM    2  C   UNL     1      -9.965   8.607  71.881  1.00  0.00    -0.392 C  
ENDROOT
BRANCH   2   3
HETATM    3  C   UNL     1     -10.376   7.131  71.889  1.00  0.00    -0.192 C  
BRANCH   3   4
HETATM    4  S   UNL     1     -11.557   6.838  70.523  1.00  0.00    -0.370 SA 
BRANCH   4   5
HETATM    5  C   UNL     1     -10.546   7.265  69.122  1.00  0.00    -0.208 A  
HETATM    6  N   UNL     1      -9.574   6.380  68.806  1.00  0.00    -0.126 NA 
HETATM    7  C   UNL     1      -8.846   6.786  67.752  1.00  0.00    -0.118 A  
HETATM    8  C   UNL     1      -9.018   7.954  67.033  1.00  0.00    -0.128 A  
HETATM    9  N   UNL     1      -8.112   8.009  66.011  1.00  0.00    -0.104 NA 
HETATM   10  C   UNL     1     -10.072   8.798  67.411  1.00  0.00    -0.226 A  
HETATM   11  N   UNL     1     -10.831   8.419  68.480  1.00  0.00    -0.006 NA 
HETATM   12  N   UNL     1      -7.384   6.896  66.046  1.00  0.00    -0.074 NA 
HETATM   13  N   UNL     1      -7.843   6.139  67.077  1.00  0.00    -0.101 NA 
BRANCH  10  14
HETATM   14  N   UNL     1     -10.363   9.966  66.675  1.00  0.00    -0.224 NA 
HETATM   15  H   UNL     1      -9.946  10.123  65.757  1.00  0.00     0.000 HD 
BRANCH  14  16
HETATM   16  C   UNL     1     -11.278  10.947  67.261  1.00  0.00    -0.233 C  
HETATM   17  C   UNL     1     -10.764  11.992  68.229  1.00  0.00    -0.252 C  
HETATM   18  C   UNL     1     -11.219  12.388  66.849  1.00  0.00    -0.359 C  
BRANCH  17  19
HETATM   19  C   UNL     1     -11.580  12.269  69.467  1.00  0.00    -0.366 A  
HETATM   20  C   UNL     1     -12.902  11.559  71.382  1.00  0.00    -0.384 A  
HETATM   21  C   UNL     1     -12.141  11.252  70.253  1.00  0.00    -0.459 A  
HETATM   22  F   UNL     1     -13.413  10.564  72.118  1.00  0.00    -0.505 F  
HETATM   23  C   UNL     1     -13.123  12.883  71.742  1.00  0.00    -0.360 A  
HETATM   24  C   UNL     1     -11.827  13.603  69.852  1.00  0.00    -0.389 A  
HETATM   25  F   UNL     1     -13.855  13.173  72.824  1.00  0.00    -0.602 F  
HETATM   26  C   UNL     1     -12.591  13.912  70.980  1.00  0.00    -0.444 A  
ENDBRANCH  17  19
ENDBRANCH  14  16
ENDBRANCH  10  14
BRANCH  13  27
HETATM   27  C   UNL     1      -7.263   4.822  67.246  1.00  0.00    -0.073 C  
HETATM   28  C   UNL     1      -6.695   4.241  65.941  1.00  0.00    -0.052 C  
HETATM   29  C   UNL     1      -7.889   3.548  65.282  1.00  0.00    -0.086 C  
HETATM   30  H   UNL     1      -7.971   2.145  68.892  1.00  0.00     0.000 HD 
HETATM   31  C   UNL     1      -8.648   2.931  66.483  1.00  0.00    -0.112 C  
HETATM   32  H   UNL     1      -8.818   1.156  67.399  1.00  0.00     0.000 HD 
HETATM   33  O   UNL     1      -7.399   2.838  68.584  1.00  0.00    -0.048 OA 
HETATM   34  C   UNL     1      -8.183   3.707  67.742  1.00  0.00    -0.088 C  
HETATM   35  O   UNL     1      -8.352   1.534  66.663  1.00  0.00    -0.075 OA 
BRANCH  29  36
HETATM   36  O   UNL     1      -8.734   4.478  64.593  1.00  0.00    -0.135 OA 
BRANCH  36  37
HETATM   37  C   UNL     1      -9.042   4.087  63.246  1.00  0.00    -0.121 C  
BRANCH  37  38
HETATM   38  C   UNL     1     -10.385   3.362  63.215  1.00  0.00    -0.212 C  
HETATM   39  H   UNL     1     -12.099   3.464  64.169  1.00  0.00     0.000 HD 
HETATM   40  O   UNL     1     -11.263   3.916  64.188  1.00  0.00    -0.328 OA 
ENDBRANCH  37  38
ENDBRANCH  36  37
ENDBRANCH  29  36
ENDBRANCH  13  27
ENDBRANCH   4   5
ENDBRANCH   3   4
ENDBRANCH   2   3
TORSDOF 10
ENDMDL
MODEL      127
REMARK 921   NORMALIZED FREE ENERGY PREDICTED BY IDOCK:   -4.77 KCAL/MOL
REMARK 922        TOTAL FREE ENERGY PREDICTED BY IDOCK:   -9.63 KCAL/MOL
REMARK 923 INTER-LIGAND FREE ENERGY PREDICTED BY IDOCK:   -8.14 KCAL/MOL
REMARK 924 INTRA-LIGAND FREE ENERGY PREDICTED BY IDOCK:   -1.48 KCAL/MOL
REMARK 927      BINDING AFFINITY PREDICTED BY RF-SCORE:    0.00 PKD
ROOT
HETATM    1  C   UNL     1     -11.817   6.514  71.988  1.00  0.00    -0.374 C  
HETATM    2  C   UNL     1     -10.934   7.291  72.954  1.00  0.00    -0.381 C  
ENDROOT
BRANCH   2   3
HETATM    3  C   UNL     1     -10.315   8.537  72.310  1.00  0.00    -0.332 C  
BRANCH   3   4
HETATM    4  S   UNL     1     -11.598   9.395  71.328  1.00  0.00    -0.393 SA 
BRANCH   4   5
HETATM    5  C   UNL     1     -10.817   9.424  69.729  1.00  0.00    -0.232 A  
HETATM    6  N   UNL     1     -10.784   8.244  69.069  1.00  0.00    -0.139 NA 
HETATM    7  C   UNL     1     -10.161   8.348  67.883  1.00  0.00    -0.217 A  
HETATM    8  C   UNL     1      -9.604   9.492  67.342  1.00  0.00    -0.141 A  
HETATM    9  N   UNL     1      -9.090   9.218  66.105  1.00  0.00    -0.166 NA 
HETATM   10  C   UNL     1      -9.714  10.678  68.082  1.00  0.00    -0.156 A  
HETATM   11  N   UNL     1     -10.336  10.609  69.294  1.00  0.00    -0.216 NA 
HETATM   12  N   UNL     1      -9.327   7.939  65.835  1.00  0.00    -0.061 NA 
HETATM   13  N   UNL     1     -10.002   7.414  66.891  1.00  0.00    -0.218 NA 
BRANCH  10  14
HETATM   14  N   UNL     1      -9.243  11.901  67.560  1.00  0.00    -0.173 NA 
HETATM   15  H   UNL     1      -8.269  12.009  67.278  1.00  0.00     0.000 HD 
BRANCH  14  16
HETATM   16  C   UNL     1     -10.188  13.013  67.435  1.00  0.00    -0.231 C  
HETATM   17  C   UNL     1     -10.054  14.010  66.304  1.00  0.00    -0.307 C  
HETATM   18  C   UNL     1     -11.201  13.035  66.330  1.00  0.00    -0.332 C  
BRANCH  17  19
HETATM   19  C   UNL     1     -10.222  15.473  66.629  1.00  0.00    -0.280 A  
HETATM   20  C   UNL     1     -10.492  17.318  68.193  1.00  0.00    -0.382 A  
HETATM   21  C   UNL     1     -10.322  15.955  67.943  1.00  0.00    -0.269 A  
HETATM   22  F   UNL     1     -10.572  17.747  69.459  1.00  0.00    -0.292 F  
HETATM   23  C   UNL     1     -10.573  18.221  67.140  1.00  0.00    -0.367 A  
HETATM   24  C   UNL     1     -10.314  16.412  65.581  1.00  0.00    -0.371 A  
HETATM   25  F   UNL     1     -10.738  19.526  67.385  1.00  0.00    -0.497 F  
HETATM   26  C   UNL     1     -10.488  17.775  65.830  1.00  0.00    -0.251 A  
ENDBRANCH  17  19
ENDBRANCH  14  16
ENDBRANCH  10  14
BRANCH  13  27
HETATM   27  C   UNL     1     -10.461   6.045  66.775  1.00  0.00    -0.267 C  
HETATM   28  C   UNL     1     -10.328   5.250  68.085  1.00  0.00    -0.181 C  
HETATM   29  C   UNL     1      -8.903   4.697  68.051  1.00  0.00    -0.106 C  
HETATM   30  H   UNL     1     -10.292   3.698  64.575  1.00  0.00     0.000 HD 
HETATM   31  C   UNL     1      -8.698   4.336  66.558  1.00  0.00    -0.113 C  
HETATM   32  H   UNL     1      -8.775   2.714  65.383  1.00  0.00     0.000 HD 
HETATM   33  O   UNL     1     -10.734   4.256  65.205  1.00  0.00    -0.251 OA 
HETATM   34  C   UNL     1      -9.750   5.150  65.762  1.00  0.00    -0.105 C  
HETATM   35  O   UNL     1      -8.901   2.935  66.298  1.00  0.00    -0.131 OA 
BRANCH  29  36
HETATM   36  O   UNL     1      -7.938   5.677  68.455  1.00  0.00    -0.098 OA 
BRANCH  36  37
HETATM   37  C   UNL     1      -6.671   5.545  67.790  1.00  0.00    -0.055 C  
BRANCH  37  38
HETATM   38  C   UNL     1      -6.130   6.928  67.437  1.00  0.00    -0.036 C  
HETATM   39  H   UNL     1      -4.866   8.219  68.206  1.00  0.00     0.000 HD 
HETATM   40  O   UNL     1      -5.203   7.358  68.426  1.00  0.00    -0.022 OA 
ENDBRANCH  37  38
ENDBRANCH  36  37
ENDBRANCH  29  36
ENDBRANCH  13  27
ENDBRANCH   4   5
ENDBRANCH   3   4
ENDBRANCH   2   3
TORSDOF 10
ENDMDL
MODEL      128
REMARK 921   NORMALIZED FREE ENERGY PREDICTED BY IDOCK:   -4.77 KCAL/MOL
REMARK 922        TOTAL FREE ENERGY PREDICTED BY IDOCK:   -9.62 KCAL/MOL
REMARK 923 INTER-LIGAND FREE ENERGY PREDICTED BY IDOCK:   -8.42 KCAL/MOL
REMARK 924 INTRA-LIGAND FREE ENERGY PREDICTED BY IDOCK:   -1.20 KCAL/MOL
REMARK 927      BINDING AFFINITY PREDICTED BY RF-SCORE:    0.00 PKD
ROOT
HETATM    1  C   UNL     1      -9.999   6.546  72.157  1.00  0.00    -0.173 C  
HETATM    2  C   UNL     1     -11.421   7.076  72.044  1.00  0.00    -0.308 C  
ENDROOT
BRANCH   2   3
HETATM    3  C   UNL     1     -11.612   7.986  70.826  1.00  0.00    -0.242 C  
BRANCH   3   4
HETATM    4  S   UNL     1     -11.733   9.720  71.395  1.00  0.00    -0.383 SA 
BRANCH   4   5
HETATM    5  C   UNL     1     -11.535  10.583  69.852  1.00  0.00    -0.310 A  
HETATM    6  N   UNL     1     -11.945  11.872  69.843  1.00  0.00    -0.329 NA 
HETATM    7  C   UNL     1     -11.780  12.444  68.638  1.00  0.00    -0.326 A  
HETATM    8  C   UNL     1     -11.260  11.846  67.506  1.00  0.00    -0.296 A  
HETATM    9  N   UNL     1     -11.217  12.749  66.481  1.00  0.00    -0.293 NA 
HETATM   10  C   UNL     1     -10.830  10.515  67.615  1.00  0.00    -0.300 A  
HETATM   11  N   UNL     1     -10.986   9.901  68.824  1.00  0.00    -0.208 NA 
HETATM   12  N   UNL     1     -11.672  13.912  66.937  1.00  0.00    -0.376 NA 
HETATM   13  N   UNL     1     -11.986  13.743  68.249  1.00  0.00    -0.370 NA 
BRANCH  10  14
HETATM   14  N   UNL     1     -10.213   9.863  66.528  1.00  0.00    -0.234 NA 
HETATM   15  H   UNL     1     -10.462  10.099  65.567  1.00  0.00     0.000 HD 
BRANCH  14  16
HETATM   16  C   UNL     1      -9.205   8.839  66.813  1.00  0.00    -0.169 C  
HETATM   17  C   UNL     1      -8.676   7.955  65.704  1.00  0.00    -0.145 C  
HETATM   18  C   UNL     1      -7.794   9.002  66.333  1.00  0.00    -0.099 C  
BRANCH  17  19
HETATM   19  C   UNL     1      -8.522   6.482  65.988  1.00  0.00    -0.145 A  
HETATM   20  C   UNL     1      -8.424   4.151  65.297  1.00  0.00    -0.114 A  
HETATM   21  C   UNL     1      -8.556   5.505  64.982  1.00  0.00    -0.128 A  
HETATM   22  F   UNL     1      -8.448   3.244  64.312  1.00  0.00    -0.088 F  
HETATM   23  C   UNL     1      -8.264   3.749  66.617  1.00  0.00    -0.096 A  
HETATM   24  C   UNL     1      -8.366   6.043  67.319  1.00  0.00    -0.105 A  
HETATM   25  F   UNL     1      -8.140   2.449  66.914  1.00  0.00    -0.074 F  
HETATM   26  C   UNL     1      -8.237   4.689  67.635  1.00  0.00    -0.100 A  
ENDBRANCH  17  19
ENDBRANCH  14  16
ENDBRANCH  10  14
BRANCH  13  27
HETATM   27  C   UNL     1     -12.410  14.914  68.988  1.00  0.00    -0.034 C  
HETATM   28  C   UNL     1     -11.496  16.132  68.767  1.00  0.00    -0.340 C  
HETATM   29  C   UNL     1     -10.387  15.969  69.807  1.00  0.00    -0.265 C  
HETATM   30  H   UNL     1     -13.609  15.529  71.915  1.00  0.00     0.000 HD 
HETATM   31  C   UNL     1     -11.138  15.408  71.041  1.00  0.00    -0.331 C  
HETATM   32  H   UNL     1     -11.907  16.085  72.764  1.00  0.00     0.000 HD 
HETATM   33  O   UNL     1     -13.575  15.598  70.967  1.00  0.00    -0.588 OA 
HETATM   34  C   UNL     1     -12.463  14.802  70.511  1.00  0.00    -0.352 C  
HETATM   35  O   UNL     1     -11.447  16.429  72.007  1.00  0.00    -0.348 OA 
BRANCH  29  36
HETATM   36  O   UNL     1      -9.384  15.038  69.379  1.00  0.00    -0.190 OA 
BRANCH  36  37
HETATM   37  C   UNL     1      -8.098  15.639  69.161  1.00  0.00    -0.238 C  
BRANCH  37  38
HETATM   38  C   UNL     1      -7.433  15.002  67.944  1.00  0.00    -0.137 C  
HETATM   39  H   UNL     1      -7.931  13.733  66.530  1.00  0.00     0.000 HD 
HETATM   40  O   UNL     1      -8.345  14.129  67.288  1.00  0.00    -0.188 OA 
ENDBRANCH  37  38
ENDBRANCH  36  37
ENDBRANCH  29  36
ENDBRANCH  13  27
ENDBRANCH   4   5
ENDBRANCH   3   4
ENDBRANCH   2   3
TORSDOF 10
ENDMDL
MODEL      129
REMARK 921   NORMALIZED FREE ENERGY PREDICTED BY IDOCK:   -4.76 KCAL/MOL
REMARK 922        TOTAL FREE ENERGY PREDICTED BY IDOCK:   -9.61 KCAL/MOL
REMARK 923 INTER-LIGAND FREE ENERGY PREDICTED BY IDOCK:   -8.73 KCAL/MOL
REMARK 924 INTRA-LIGAND FREE ENERGY PREDICTED BY IDOCK:   -0.87 KCAL/MOL
REMARK 927      BINDING AFFINITY PREDICTED BY RF-SCORE:    0.00 PKD
ROOT
HETATM    1  C   UNL     1      -7.853  17.299  67.389  1.00  0.00    -0.198 C  
HETATM    2  C   UNL     1      -7.222  15.920  67.521  1.00  0.00    -0.204 C  
ENDROOT
BRANCH   2   3
HETATM    3  C   UNL     1      -7.435  15.309  68.910  1.00  0.00    -0.147 C  
BRANCH   3   4
HETATM    4  S   UNL     1      -6.306  13.884  69.110  1.00  0.00    -0.112 SA 
BRANCH   4   5
HETATM    5  C   UNL     1      -7.356  12.558  68.555  1.00  0.00    -0.115 A  
HETATM    6  N   UNL     1      -8.179  12.852  67.523  1.00  0.00    -0.172 NA 
HETATM    7  C   UNL     1      -8.949  11.806  67.180  1.00  0.00    -0.177 A  
HETATM    8  C   UNL     1      -8.949  10.554  67.768  1.00  0.00    -0.132 A  
HETATM    9  N   UNL     1      -9.843   9.741  67.129  1.00  0.00    -0.178 NA 
HETATM   10  C   UNL     1      -8.039  10.328  68.810  1.00  0.00    -0.120 A  
HETATM   11  N   UNL     1      -7.243  11.370  69.189  1.00  0.00    -0.116 NA 
HETATM   12  N   UNL     1     -10.394  10.433  66.136  1.00  0.00    -0.228 NA 
HETATM   13  N   UNL     1      -9.836  11.673  66.142  1.00  0.00    -0.216 NA 
BRANCH  10  14
HETATM   14  N   UNL     1      -7.922   9.054  69.404  1.00  0.00    -0.097 NA 
HETATM   15  H   UNL     1      -7.079   8.495  69.280  1.00  0.00     0.000 HD 
BRANCH  14  16
HETATM   16  C   UNL     1      -9.043   8.554  70.203  1.00  0.00    -0.152 C  
HETATM   17  C   UNL     1      -8.958   8.533  71.714  1.00  0.00    -0.288 C  
HETATM   18  C   UNL     1      -9.882   9.495  71.015  1.00  0.00    -0.236 C  
BRANCH  17  19
HETATM   19  C   UNL     1      -9.454   7.303  72.432  1.00  0.00    -0.178 A  
HETATM   20  C   UNL     1     -10.161   4.975  72.486  1.00  0.00    -0.183 A  
HETATM   21  C   UNL     1      -9.687   6.082  71.780  1.00  0.00    -0.171 A  
HETATM   22  F   UNL     1     -10.361   3.822  71.837  1.00  0.00    -0.243 F  
HETATM   23  C   UNL     1     -10.418   5.067  73.848  1.00  0.00    -0.271 A  
HETATM   24  C   UNL     1      -9.731   7.369  73.814  1.00  0.00    -0.330 A  
HETATM   25  F   UNL     1     -10.875   4.003  74.520  1.00  0.00    -0.264 F  
HETATM   26  C   UNL     1     -10.209   6.262  74.519  1.00  0.00    -0.320 A  
ENDBRANCH  17  19
ENDBRANCH  14  16
ENDBRANCH  10  14
BRANCH  13  27
HETATM   27  C   UNL     1     -10.212  12.577  65.075  1.00  0.00    -0.279 C  
HETATM   28  C   UNL     1      -9.986  14.056  65.430  1.00  0.00    -0.292 C  
HETATM   29  C   UNL     1     -11.274  14.478  66.140  1.00  0.00    -0.339 C  
HETATM   30  H   UNL     1     -12.590  12.786  62.912  1.00  0.00     0.000 HD 
HETATM   31  C   UNL     1     -12.376  13.725  65.352  1.00  0.00    -0.475 C  
HETATM   32  H   UNL     1     -13.700  14.101  63.895  1.00  0.00     0.000 HD 
HETATM   33  O   UNL     1     -11.684  12.798  63.197  1.00  0.00    -0.472 OA 
HETATM   34  C   UNL     1     -11.670  12.556  64.618  1.00  0.00    -0.359 C  
HETATM   35  O   UNL     1     -13.024  14.562  64.377  1.00  0.00    -0.510 OA 
BRANCH  29  36
HETATM   36  O   UNL     1     -11.286  14.068  67.513  1.00  0.00    -0.293 OA 
BRANCH  36  37
HETATM   37  C   UNL     1     -10.884  15.102  68.426  1.00  0.00    -0.255 C  
BRANCH  37  38
HETATM   38  C   UNL     1     -11.554  14.881  69.779  1.00  0.00    -0.303 C  
HETATM   39  H   UNL     1     -12.724  13.538  70.606  1.00  0.00     0.000 HD 
HETATM   40  O   UNL     1     -12.307  13.674  69.763  1.00  0.00    -0.305 OA 
ENDBRANCH  37  38
ENDBRANCH  36  37
ENDBRANCH  29  36
ENDBRANCH  13  27
ENDBRANCH   4   5
ENDBRANCH   3   4
ENDBRANCH   2   3
TORSDOF 10
ENDMDL
MODEL      130
REMARK 921   NORMALIZED FREE ENERGY PREDICTED BY IDOCK:   -4.75 KCAL/MOL
REMARK 922        TOTAL FREE ENERGY PREDICTED BY IDOCK:   -9.59 KCAL/MOL
REMARK 923 INTER-LIGAND FREE ENERGY PREDICTED BY IDOCK:   -8.11 KCAL/MOL
REMARK 924 INTRA-LIGAND FREE ENERGY PREDICTED BY IDOCK:   -1.48 KCAL/MOL
REMARK 927      BINDING AFFINITY PREDICTED BY RF-SCORE:    0.00 PKD
ROOT
HETATM    1  C   UNL     1     -11.221   7.058  72.925  1.00  0.00    -0.273 C  
HETATM    2  C   UNL     1      -9.988   7.928  72.726  1.00  0.00    -0.348 C  
ENDROOT
BRANCH   2   3
HETATM    3  C   UNL     1     -10.224   9.057  71.717  1.00  0.00    -0.319 C  
BRANCH   3   4
HETATM    4  S   UNL     1     -11.116   8.382  70.271  1.00  0.00    -0.167 SA 
BRANCH   4   5
HETATM    5  C   UNL     1     -10.263   9.211  68.947  1.00  0.00    -0.207 A  
HETATM    6  N   UNL     1      -9.019   8.756  68.675  1.00  0.00    -0.138 NA 
HETATM    7  C   UNL     1      -8.438   9.447  67.679  1.00  0.00    -0.119 A  
HETATM    8  C   UNL     1      -8.990  10.501  66.975  1.00  0.00    -0.140 A  
HETATM    9  N   UNL     1      -8.115  10.928  66.015  1.00  0.00    -0.159 NA 
HETATM   10  C   UNL     1     -10.298  10.884  67.303  1.00  0.00    -0.216 A  
HETATM   11  N   UNL     1     -10.918  10.207  68.313  1.00  0.00    -0.255 NA 
HETATM   12  N   UNL     1      -7.033  10.158  66.073  1.00  0.00    -0.109 NA 
HETATM   13  N   UNL     1      -7.233   9.241  67.055  1.00  0.00    -0.086 NA 
BRANCH  10  14
HETATM   14  N   UNL     1     -10.959  11.895  66.575  1.00  0.00    -0.279 NA 
HETATM   15  H   UNL     1     -10.804  12.005  65.573  1.00  0.00     0.000 HD 
BRANCH  14  16
HETATM   16  C   UNL     1     -11.874  12.784  67.295  1.00  0.00    -0.350 C  
HETATM   17  C   UNL     1     -11.335  13.914  68.145  1.00  0.00    -0.324 C  
HETATM   18  C   UNL     1     -12.059  14.206  66.858  1.00  0.00    -0.466 C  
BRANCH  17  19
HETATM   19  C   UNL     1     -11.958  14.138  69.500  1.00  0.00    -0.389 A  
HETATM   20  C   UNL     1     -12.993  13.347  71.556  1.00  0.00    -0.341 A  
HETATM   21  C   UNL     1     -12.408  13.088  70.315  1.00  0.00    -0.311 A  
HETATM   22  F   UNL     1     -13.400  12.321  72.314  1.00  0.00    -0.597 F  
HETATM   23  C   UNL     1     -13.147  14.654  72.001  1.00  0.00    -0.337 A  
HETATM   24  C   UNL     1     -12.135  15.454  69.975  1.00  0.00    -0.388 A  
HETATM   25  F   UNL     1     -13.711  14.897  73.190  1.00  0.00    -0.507 F  
HETATM   26  C   UNL     1     -12.724  15.714  71.215  1.00  0.00    -0.537 A  
ENDBRANCH  17  19
ENDBRANCH  14  16
ENDBRANCH  10  14
BRANCH  13  27
HETATM   27  C   UNL     1      -6.219   8.222  67.233  1.00  0.00    -0.056 C  
HETATM   28  C   UNL     1      -5.696   7.653  65.903  1.00  0.00    -0.037 C  
HETATM   29  C   UNL     1      -6.668   6.522  65.565  1.00  0.00    -0.047 C  
HETATM   30  H   UNL     1      -5.705   5.754  69.239  1.00  0.00     0.000 HD 
HETATM   31  C   UNL     1      -6.975   5.893  66.948  1.00  0.00    -0.068 C  
HETATM   32  H   UNL     1      -6.383   4.325  68.047  1.00  0.00     0.000 HD 
HETATM   33  O   UNL     1      -5.460   6.536  68.757  1.00  0.00    -0.014 OA 
HETATM   34  C   UNL     1      -6.614   6.966  68.007  1.00  0.00    -0.059 C  
HETATM   35  O   UNL     1      -6.195   4.710  67.199  1.00  0.00    -0.033 OA 
BRANCH  29  36
HETATM   36  O   UNL     1      -7.876   7.013  64.971  1.00  0.00    -0.111 OA 
BRANCH  36  37
HETATM   37  C   UNL     1      -7.871   6.968  63.536  1.00  0.00    -0.109 C  
BRANCH  37  38
HETATM   38  C   UNL     1      -8.249   8.338  62.978  1.00  0.00    -0.118 C  
HETATM   39  H   UNL     1      -7.323  10.000  62.492  1.00  0.00     0.000 HD 
HETATM   40  O   UNL     1      -7.087   9.148  62.839  1.00  0.00    -0.093 OA 
ENDBRANCH  37  38
ENDBRANCH  36  37
ENDBRANCH  29  36
ENDBRANCH  13  27
ENDBRANCH   4   5
ENDBRANCH   3   4
ENDBRANCH   2   3
TORSDOF 10
ENDMDL
MODEL      131
REMARK 921   NORMALIZED FREE ENERGY PREDICTED BY IDOCK:   -4.74 KCAL/MOL
REMARK 922        TOTAL FREE ENERGY PREDICTED BY IDOCK:   -9.57 KCAL/MOL
REMARK 923 INTER-LIGAND FREE ENERGY PREDICTED BY IDOCK:   -7.76 KCAL/MOL
REMARK 924 INTRA-LIGAND FREE ENERGY PREDICTED BY IDOCK:   -1.81 KCAL/MOL
REMARK 927      BINDING AFFINITY PREDICTED BY RF-SCORE:    0.00 PKD
ROOT
HETATM    1  C   UNL     1     -12.252  11.688  70.310  1.00  0.00    -0.401 C  
HETATM    2  C   UNL     1     -12.684  10.275  70.676  1.00  0.00    -0.382 C  
ENDROOT
BRANCH   2   3
HETATM    3  C   UNL     1     -11.680   9.578  71.602  1.00  0.00    -0.390 C  
BRANCH   3   4
HETATM    4  S   UNL     1     -11.222   7.965  70.871  1.00  0.00    -0.271 SA 
BRANCH   4   5
HETATM    5  C   UNL     1      -9.694   8.396  70.066  1.00  0.00    -0.176 A  
HETATM    6  N   UNL     1      -8.997   7.365  69.537  1.00  0.00    -0.144 NA 
HETATM    7  C   UNL     1      -7.850   7.772  68.968  1.00  0.00    -0.118 A  
HETATM    8  C   UNL     1      -7.382   9.070  68.895  1.00  0.00    -0.074 A  
HETATM    9  N   UNL     1      -6.197   9.100  68.213  1.00  0.00    -0.053 NA 
HETATM   10  C   UNL     1      -8.186  10.081  69.441  1.00  0.00    -0.155 A  
HETATM   11  N   UNL     1      -9.357   9.703  70.032  1.00  0.00    -0.228 NA 
HETATM   12  N   UNL     1      -5.913   7.859  67.828  1.00  0.00    -0.041 NA 
HETATM   13  N   UNL     1      -6.923   7.056  68.255  1.00  0.00    -0.077 NA 
BRANCH  10  14
HETATM   14  N   UNL     1      -7.815  11.437  69.333  1.00  0.00    -0.363 NA 
HETATM   15  H   UNL     1      -7.291  11.897  70.076  1.00  0.00     0.000 HD 
BRANCH  14  16
HETATM   16  C   UNL     1      -8.203  12.169  68.125  1.00  0.00    -0.164 C  
HETATM   17  C   UNL     1      -9.510  12.931  68.076  1.00  0.00    -0.213 C  
HETATM   18  C   UNL     1      -8.197  13.668  68.104  1.00  0.00    -0.158 C  
BRANCH  17  19
HETATM   19  C   UNL     1     -10.351  12.812  66.830  1.00  0.00    -0.248 A  
HETATM   20  C   UNL     1     -12.339  13.301  65.515  1.00  0.00    -0.480 A  
HETATM   21  C   UNL     1     -11.590  13.454  66.683  1.00  0.00    -0.399 A  
HETATM   22  F   UNL     1     -13.512  13.937  65.402  1.00  0.00    -0.395 F  
HETATM   23  C   UNL     1     -11.872  12.501  64.480  1.00  0.00    -0.383 A  
HETATM   24  C   UNL     1      -9.906  12.001  65.766  1.00  0.00    -0.263 A  
HETATM   25  F   UNL     1     -12.596  12.356  63.363  1.00  0.00    -0.563 F  
HETATM   26  C   UNL     1     -10.657  11.845  64.598  1.00  0.00    -0.353 A  
ENDBRANCH  17  19
ENDBRANCH  14  16
ENDBRANCH  10  14
BRANCH  13  27
HETATM   27  C   UNL     1      -6.878   5.663  67.859  1.00  0.00    -0.064 C  
HETATM   28  C   UNL     1      -6.651   5.472  66.350  1.00  0.00    -0.056 C  
HETATM   29  C   UNL     1      -8.054   5.522  65.744  1.00  0.00    -0.112 C  
HETATM   30  H   UNL     1      -8.456   2.960  68.623  1.00  0.00     0.000 HD 
HETATM   31  C   UNL     1      -8.921   4.783  66.795  1.00  0.00    -0.111 C  
HETATM   32  H   UNL     1      -9.700   2.959  67.081  1.00  0.00     0.000 HD 
HETATM   33  O   UNL     1      -7.682   3.487  68.458  1.00  0.00    -0.056 OA 
HETATM   34  C   UNL     1      -8.123   4.818  68.124  1.00  0.00    -0.085 C  
HETATM   35  O   UNL     1      -9.168   3.412  66.437  1.00  0.00    -0.154 OA 
BRANCH  29  36
HETATM   36  O   UNL     1      -8.520   6.868  65.583  1.00  0.00    -0.143 OA 
BRANCH  36  37
HETATM   37  C   UNL     1      -7.798   7.612  64.590  1.00  0.00    -0.126 C  
BRANCH  37  38
HETATM   38  C   UNL     1      -8.498   8.945  64.336  1.00  0.00    -0.153 C  
HETATM   39  H   UNL     1      -9.080   9.991  62.780  1.00  0.00     0.000 HD 
HETATM   40  O   UNL     1      -8.645   9.162  62.938  1.00  0.00    -0.205 OA 
ENDBRANCH  37  38
ENDBRANCH  36  37
ENDBRANCH  29  36
ENDBRANCH  13  27
ENDBRANCH   4   5
ENDBRANCH   3   4
ENDBRANCH   2   3
TORSDOF 10
ENDMDL
MODEL      132
REMARK 921   NORMALIZED FREE ENERGY PREDICTED BY IDOCK:   -4.72 KCAL/MOL
REMARK 922        TOTAL FREE ENERGY PREDICTED BY IDOCK:   -9.54 KCAL/MOL
REMARK 923 INTER-LIGAND FREE ENERGY PREDICTED BY IDOCK:   -8.00 KCAL/MOL
REMARK 924 INTRA-LIGAND FREE ENERGY PREDICTED BY IDOCK:   -1.55 KCAL/MOL
REMARK 927      BINDING AFFINITY PREDICTED BY RF-SCORE:    0.00 PKD
ROOT
HETATM    1  C   UNL     1     -14.258   8.837  72.111  1.00  0.00    -0.504 C  
HETATM    2  C   UNL     1     -13.848   7.452  71.629  1.00  0.00    -0.490 C  
ENDROOT
BRANCH   2   3
HETATM    3  C   UNL     1     -12.431   7.432  71.046  1.00  0.00    -0.250 C  
BRANCH   3   4
HETATM    4  S   UNL     1     -11.743   9.125  71.101  1.00  0.00    -0.333 SA 
BRANCH   4   5
HETATM    5  C   UNL     1     -10.510   9.017  69.823  1.00  0.00    -0.218 A  
HETATM    6  N   UNL     1     -10.555   7.905  69.055  1.00  0.00    -0.200 NA 
HETATM    7  C   UNL     1      -9.580   7.892  68.130  1.00  0.00    -0.152 A  
HETATM    8  C   UNL     1      -8.619   8.865  67.932  1.00  0.00    -0.126 A  
HETATM    9  N   UNL     1      -7.819   8.522  66.878  1.00  0.00    -0.091 NA 
HETATM   10  C   UNL     1      -8.668  10.001  68.753  1.00  0.00    -0.136 A  
HETATM   11  N   UNL     1      -9.642  10.046  69.708  1.00  0.00    -0.229 NA 
HETATM   12  N   UNL     1      -8.261   7.369  66.385  1.00  0.00    -0.117 NA 
HETATM   13  N   UNL     1      -9.344   6.998  67.117  1.00  0.00    -0.138 NA 
BRANCH  10  14
HETATM   14  N   UNL     1      -7.773  11.074  68.558  1.00  0.00    -0.114 NA 
HETATM   15  H   UNL     1      -6.997  11.230  69.200  1.00  0.00     0.000 HD 
BRANCH  14  16
HETATM   16  C   UNL     1      -7.987  11.957  67.409  1.00  0.00    -0.162 C  
HETATM   17  C   UNL     1      -9.053  13.031  67.457  1.00  0.00    -0.191 C  
HETATM   18  C   UNL     1      -7.594  13.402  67.473  1.00  0.00    -0.176 C  
BRANCH  17  19
HETATM   19  C   UNL     1      -9.926  13.213  66.240  1.00  0.00    -0.285 A  
HETATM   20  C   UNL     1     -11.194  14.586  64.682  1.00  0.00    -0.353 A  
HETATM   21  C   UNL     1     -10.374  14.470  65.806  1.00  0.00    -0.347 A  
HETATM   22  F   UNL     1     -11.593  15.801  64.286  1.00  0.00    -0.431 F  
HETATM   23  C   UNL     1     -11.587  13.455  63.978  1.00  0.00    -0.385 A  
HETATM   24  C   UNL     1     -10.348  12.082  65.511  1.00  0.00    -0.298 A  
HETATM   25  F   UNL     1     -12.375  13.571  62.903  1.00  0.00    -0.554 F  
HETATM   26  C   UNL     1     -11.171  12.198  64.388  1.00  0.00    -0.400 A  
ENDBRANCH  17  19
ENDBRANCH  14  16
ENDBRANCH  10  14
BRANCH  13  27
HETATM   27  C   UNL     1     -10.060   5.812  66.693  1.00  0.00    -0.193 C  
HETATM   28  C   UNL     1     -10.591   4.974  67.869  1.00  0.00     0.055 C  
HETATM   29  C   UNL     1      -9.428   4.051  68.235  1.00  0.00    -0.156 C  
HETATM   30  H   UNL     1      -9.729   3.571  64.402  1.00  0.00     0.000 HD 
HETATM   31  C   UNL     1      -8.816   3.690  66.858  1.00  0.00    -0.130 C  
HETATM   32  H   UNL     1      -8.882   2.185  65.536  1.00  0.00     0.000 HD 
HETATM   33  O   UNL     1     -10.209   4.211  64.916  1.00  0.00    -0.219 OA 
HETATM   34  C   UNL     1      -9.288   4.784  65.867  1.00  0.00    -0.159 C  
HETATM   35  O   UNL     1      -9.258   2.407  66.379  1.00  0.00    -0.108 OA 
BRANCH  29  36
HETATM   36  O   UNL     1      -8.451   4.716  69.046  1.00  0.00    -0.080 OA 
BRANCH  36  37
HETATM   37  C   UNL     1      -8.545   4.391  70.442  1.00  0.00    -0.077 C  
BRANCH  37  38
HETATM   38  C   UNL     1      -9.018   5.614  71.223  1.00  0.00    -0.139 C  
HETATM   39  H   UNL     1      -8.420   7.464  71.504  1.00  0.00     0.000 HD 
HETATM   40  O   UNL     1      -8.125   6.703  71.017  1.00  0.00    -0.116 OA 
ENDBRANCH  37  38
ENDBRANCH  36  37
ENDBRANCH  29  36
ENDBRANCH  13  27
ENDBRANCH   4   5
ENDBRANCH   3   4
ENDBRANCH   2   3
TORSDOF 10
ENDMDL
MODEL      133
REMARK 921   NORMALIZED FREE ENERGY PREDICTED BY IDOCK:   -4.71 KCAL/MOL
REMARK 922        TOTAL FREE ENERGY PREDICTED BY IDOCK:   -9.53 KCAL/MOL
REMARK 923 INTER-LIGAND FREE ENERGY PREDICTED BY IDOCK:   -8.12 KCAL/MOL
REMARK 924 INTRA-LIGAND FREE ENERGY PREDICTED BY IDOCK:   -1.41 KCAL/MOL
REMARK 927      BINDING AFFINITY PREDICTED BY RF-SCORE:    0.00 PKD
ROOT
HETATM    1  C   UNL     1      -8.644   3.278  63.706  1.00  0.00    -0.089 C  
HETATM    2  C   UNL     1      -8.859   2.938  65.174  1.00  0.00    -0.129 C  
ENDROOT
BRANCH   2   3
HETATM    3  C   UNL     1      -8.161   3.928  66.113  1.00  0.00    -0.101 C  
BRANCH   3   4
HETATM    4  S   UNL     1      -8.242   3.281  67.821  1.00  0.00    -0.081 SA 
BRANCH   4   5
HETATM    5  C   UNL     1      -9.359   4.453  68.560  1.00  0.00    -0.145 A  
HETATM    6  N   UNL     1      -9.535   4.336  69.896  1.00  0.00    -0.171 NA 
HETATM    7  C   UNL     1     -10.406   5.243  70.370  1.00  0.00    -0.275 A  
HETATM    8  C   UNL     1     -11.074   6.206  69.637  1.00  0.00    -0.419 A  
HETATM    9  N   UNL     1     -11.850   6.967  70.467  1.00  0.00    -0.352 NA 
HETATM   10  C   UNL     1     -10.806   6.276  68.263  1.00  0.00    -0.319 A  
HETATM   11  N   UNL     1      -9.928   5.368  67.745  1.00  0.00    -0.150 NA 
HETATM   12  N   UNL     1     -11.674   6.530  71.710  1.00  0.00    -0.311 NA 
HETATM   13  N   UNL     1     -10.779   5.507  71.663  1.00  0.00    -0.245 NA 
BRANCH  10  14
HETATM   14  N   UNL     1     -11.385   7.284  67.464  1.00  0.00    -0.432 NA 
HETATM   15  H   UNL     1     -12.370   7.244  67.205  1.00  0.00     0.000 HD 
BRANCH  14  16
HETATM   16  C   UNL     1     -10.535   8.388  67.014  1.00  0.00    -0.305 C  
HETATM   17  C   UNL     1     -10.578   9.726  67.722  1.00  0.00    -0.320 C  
HETATM   18  C   UNL     1      -9.367   8.839  67.840  1.00  0.00    -0.155 C  
BRANCH  17  19
HETATM   19  C   UNL     1     -10.594  10.973  66.874  1.00  0.00    -0.307 A  
HETATM   20  C   UNL     1     -11.177  13.302  66.475  1.00  0.00    -0.304 A  
HETATM   21  C   UNL     1     -11.173  12.178  67.302  1.00  0.00    -0.366 A  
HETATM   22  F   UNL     1     -11.726  14.439  66.918  1.00  0.00    -0.343 F  
HETATM   23  C   UNL     1     -10.613  13.243  65.206  1.00  0.00    -0.315 A  
HETATM   24  C   UNL     1     -10.037  10.941  65.579  1.00  0.00    -0.325 A  
HETATM   25  F   UNL     1     -10.622  14.323  64.415  1.00  0.00    -0.406 F  
HETATM   26  C   UNL     1     -10.043  12.065  64.749  1.00  0.00    -0.286 A  
ENDBRANCH  17  19
ENDBRANCH  14  16
ENDBRANCH  10  14
BRANCH  13  27
HETATM   27  C   UNL     1     -10.353   4.937  72.924  1.00  0.00    -0.188 C  
HETATM   28  C   UNL     1     -10.074   5.997  74.003  1.00  0.00    -0.265 C  
HETATM   29  C   UNL     1      -8.615   6.396  73.775  1.00  0.00    -0.123 C  
HETATM   30  H   UNL     1      -8.438   2.527  73.876  1.00  0.00     0.000 HD 
HETATM   31  C   UNL     1      -7.936   5.057  73.395  1.00  0.00    -0.104 C  
HETATM   32  H   UNL     1      -6.840   3.628  74.275  1.00  0.00     0.000 HD 
HETATM   33  O   UNL     1      -9.237   3.042  73.877  1.00  0.00    -0.081 OA 
HETATM   34  C   UNL     1      -9.069   4.109  72.922  1.00  0.00    -0.111 C  
HETATM   35  O   UNL     1      -7.257   4.449  74.509  1.00  0.00    -0.069 OA 
BRANCH  29  36
HETATM   36  O   UNL     1      -8.478   7.337  72.703  1.00  0.00    -0.106 OA 
BRANCH  36  37
HETATM   37  C   UNL     1      -7.197   7.289  72.055  1.00  0.00    -0.071 C  
BRANCH  37  38
HETATM   38  C   UNL     1      -7.227   8.145  70.792  1.00  0.00    -0.050 C  
HETATM   39  H   UNL     1      -7.218  10.058  70.348  1.00  0.00     0.000 HD 
HETATM   40  O   UNL     1      -7.199   9.525  71.135  1.00  0.00    -0.304 OA 
ENDBRANCH  37  38
ENDBRANCH  36  37
ENDBRANCH  29  36
ENDBRANCH  13  27
ENDBRANCH   4   5
ENDBRANCH   3   4
ENDBRANCH   2   3
TORSDOF 10
ENDMDL
MODEL      134
REMARK 921   NORMALIZED FREE ENERGY PREDICTED BY IDOCK:   -4.71 KCAL/MOL
REMARK 922        TOTAL FREE ENERGY PREDICTED BY IDOCK:   -9.52 KCAL/MOL
REMARK 923 INTER-LIGAND FREE ENERGY PREDICTED BY IDOCK:   -9.17 KCAL/MOL
REMARK 924 INTRA-LIGAND FREE ENERGY PREDICTED BY IDOCK:   -0.35 KCAL/MOL
REMARK 927      BINDING AFFINITY PREDICTED BY RF-SCORE:    0.00 PKD
ROOT
HETATM    1  C   UNL     1     -12.486  12.300  63.260  1.00  0.00    -0.490 C  
HETATM    2  C   UNL     1     -12.876  13.084  64.506  1.00  0.00    -0.225 C  
ENDROOT
BRANCH   2   3
HETATM    3  C   UNL     1     -12.233  14.474  64.548  1.00  0.00    -0.465 C  
BRANCH   3   4
HETATM    4  S   UNL     1     -10.555  14.328  65.260  1.00  0.00    -0.407 SA 
BRANCH   4   5
HETATM    5  C   UNL     1     -10.871  13.213  66.611  1.00  0.00    -0.280 A  
HETATM    6  N   UNL     1     -11.415  13.770  67.717  1.00  0.00    -0.303 NA 
HETATM    7  C   UNL     1     -11.602  12.866  68.694  1.00  0.00    -0.316 A  
HETATM    8  C   UNL     1     -11.300  11.519  68.640  1.00  0.00    -0.269 A  
HETATM    9  N   UNL     1     -11.661  10.913  69.811  1.00  0.00    -0.307 NA 
HETATM   10  C   UNL     1     -10.768  11.021  67.441  1.00  0.00    -0.257 A  
HETATM   11  N   UNL     1     -10.560  11.912  66.428  1.00  0.00    -0.240 NA 
HETATM   12  N   UNL     1     -12.208  11.834  70.599  1.00  0.00    -0.380 NA 
HETATM   13  N   UNL     1     -12.204  13.011  69.918  1.00  0.00    -0.248 NA 
BRANCH  10  14
HETATM   14  N   UNL     1     -10.511   9.644  67.280  1.00  0.00    -0.255 NA 
HETATM   15  H   UNL     1     -11.000   9.100  66.570  1.00  0.00     0.000 HD 
BRANCH  14  16
HETATM   16  C   UNL     1      -9.524   9.014  68.160  1.00  0.00    -0.142 C  
HETATM   17  C   UNL     1      -8.415   8.161  67.582  1.00  0.00    -0.131 C  
HETATM   18  C   UNL     1      -8.107   9.503  68.192  1.00  0.00    -0.102 C  
BRANCH  17  19
HETATM   19  C   UNL     1      -8.093   6.859  68.272  1.00  0.00    -0.119 A  
HETATM   20  C   UNL     1      -8.701   4.664  69.127  1.00  0.00    -0.087 A  
HETATM   21  C   UNL     1      -9.044   5.846  68.469  1.00  0.00    -0.111 A  
HETATM   22  F   UNL     1      -9.629   3.712  69.288  1.00  0.00    -0.226 F  
HETATM   23  C   UNL     1      -7.411   4.475  69.606  1.00  0.00    -0.051 A  
HETATM   24  C   UNL     1      -6.794   6.642  68.775  1.00  0.00    -0.070 A  
HETATM   25  F   UNL     1      -7.088   3.340  70.239  1.00  0.00    -0.036 F  
HETATM   26  C   UNL     1      -6.451   5.461  69.437  1.00  0.00    -0.038 A  
ENDBRANCH  17  19
ENDBRANCH  14  16
ENDBRANCH  10  14
BRANCH  13  27
HETATM   27  C   UNL     1     -12.849  14.145  70.546  1.00  0.00    -0.247 C  
HETATM   28  C   UNL     1     -12.485  15.487  69.889  1.00  0.00    -0.243 C  
HETATM   29  C   UNL     1     -11.200  15.921  70.597  1.00  0.00    -0.378 C  
HETATM   30  H   UNL     1     -13.559  15.068  73.550  1.00  0.00     0.000 HD 
HETATM   31  C   UNL     1     -11.437  15.480  72.063  1.00  0.00    -0.428 C  
HETATM   32  H   UNL     1     -12.024  16.295  73.798  1.00  0.00     0.000 HD 
HETATM   33  O   UNL     1     -13.747  14.911  72.632  1.00  0.00    -0.444 OA 
HETATM   34  C   UNL     1     -12.546  14.397  72.022  1.00  0.00    -0.314 C  
HETATM   35  O   UNL     1     -11.879  16.566  72.899  1.00  0.00    -0.519 OA 
BRANCH  29  36
HETATM   36  O   UNL     1     -10.046  15.257  70.066  1.00  0.00    -0.256 OA 
BRANCH  36  37
HETATM   37  C   UNL     1      -9.157  16.130  69.352  1.00  0.00    -0.147 C  
BRANCH  37  38
HETATM   38  C   UNL     1      -9.948  17.292  68.756  1.00  0.00    -0.325 C  
HETATM   39  H   UNL     1      -9.574  19.114  68.125  1.00  0.00     0.000 HD 
HETATM   40  O   UNL     1      -9.082  18.391  68.496  1.00  0.00    -0.317 OA 
ENDBRANCH  37  38
ENDBRANCH  36  37
ENDBRANCH  29  36
ENDBRANCH  13  27
ENDBRANCH   4   5
ENDBRANCH   3   4
ENDBRANCH   2   3
TORSDOF 10
ENDMDL
MODEL      135
REMARK 921   NORMALIZED FREE ENERGY PREDICTED BY IDOCK:   -4.70 KCAL/MOL
REMARK 922        TOTAL FREE ENERGY PREDICTED BY IDOCK:   -9.51 KCAL/MOL
REMARK 923 INTER-LIGAND FREE ENERGY PREDICTED BY IDOCK:   -7.75 KCAL/MOL
REMARK 924 INTRA-LIGAND FREE ENERGY PREDICTED BY IDOCK:   -1.76 KCAL/MOL
REMARK 927      BINDING AFFINITY PREDICTED BY RF-SCORE:    0.00 PKD
ROOT
HETATM    1  C   UNL     1     -13.721   9.020  71.633  1.00  0.00    -0.442 C  
HETATM    2  C   UNL     1     -12.498   8.318  72.208  1.00  0.00    -0.384 C  
ENDROOT
BRANCH   2   3
HETATM    3  C   UNL     1     -11.185   8.958  71.747  1.00  0.00    -0.362 C  
BRANCH   3   4
HETATM    4  S   UNL     1     -11.550  10.182  70.438  1.00  0.00    -0.333 SA 
BRANCH   4   5
HETATM    5  C   UNL     1     -10.864   9.355  69.019  1.00  0.00    -0.136 A  
HETATM    6  N   UNL     1     -10.472   8.076  69.217  1.00  0.00    -0.221 NA 
HETATM    7  C   UNL     1      -9.949   7.532  68.105  1.00  0.00    -0.172 A  
HETATM    8  C   UNL     1      -9.801   8.150  66.877  1.00  0.00    -0.247 A  
HETATM    9  N   UNL     1      -9.260   7.273  65.978  1.00  0.00    -0.089 NA 
HETATM   10  C   UNL     1     -10.265   9.467  66.754  1.00  0.00    -0.243 A  
HETATM   11  N   UNL     1     -10.799  10.053  67.864  1.00  0.00    -0.270 NA 
HETATM   12  N   UNL     1      -9.083   6.108  66.594  1.00  0.00    -0.135 NA 
HETATM   13  N   UNL     1      -9.525   6.249  67.872  1.00  0.00    -0.116 NA 
BRANCH  10  14
HETATM   14  N   UNL     1     -10.225  10.135  65.512  1.00  0.00    -0.264 NA 
HETATM   15  H   UNL     1      -9.769   9.711  64.705  1.00  0.00     0.000 HD 
BRANCH  14  16
HETATM   16  C   UNL     1     -10.854  11.453  65.411  1.00  0.00    -0.229 C  
HETATM   17  C   UNL     1     -10.039  12.663  65.008  1.00  0.00    -0.252 C  
HETATM   18  C   UNL     1     -11.075  12.095  64.074  1.00  0.00    -0.449 C  
BRANCH  17  19
HETATM   19  C   UNL     1     -10.251  13.945  65.775  1.00  0.00    -0.331 A  
HETATM   20  C   UNL     1     -10.660  16.340  65.902  1.00  0.00    -0.297 A  
HETATM   21  C   UNL     1     -10.485  15.178  65.149  1.00  0.00    -0.437 A  
HETATM   22  F   UNL     1     -10.894  17.499  65.274  1.00  0.00    -0.395 F  
HETATM   23  C   UNL     1     -10.596  16.295  67.289  1.00  0.00    -0.298 A  
HETATM   24  C   UNL     1     -10.184  13.930  67.184  1.00  0.00    -0.258 A  
HETATM   25  F   UNL     1     -10.761  17.412  68.007  1.00  0.00    -0.354 F  
HETATM   26  C   UNL     1     -10.355  15.094  67.938  1.00  0.00    -0.241 A  
ENDBRANCH  17  19
ENDBRANCH  14  16
ENDBRANCH  10  14
BRANCH  13  27
HETATM   27  C   UNL     1      -9.525   5.068  68.710  1.00  0.00    -0.139 C  
HETATM   28  C   UNL     1      -8.655   5.221  69.969  1.00  0.00    -0.117 C  
HETATM   29  C   UNL     1      -7.254   4.809  69.515  1.00  0.00    -0.055 C  
HETATM   30  H   UNL     1      -9.457   1.878  68.261  1.00  0.00     0.000 HD 
HETATM   31  C   UNL     1      -7.527   3.633  68.544  1.00  0.00    -0.054 C  
HETATM   32  H   UNL     1      -7.516   1.629  68.574  1.00  0.00     0.000 HD 
HETATM   33  O   UNL     1      -9.780   2.686  68.643  1.00  0.00    -0.087 OA 
HETATM   34  C   UNL     1      -9.005   3.770  68.094  1.00  0.00    -0.125 C  
HETATM   35  O   UNL     1      -7.349   2.349  69.170  1.00  0.00    -0.044 OA 
BRANCH  29  36
HETATM   36  O   UNL     1      -6.581   5.869  68.825  1.00  0.00    -0.050 OA 
BRANCH  36  37
HETATM   37  C   UNL     1      -6.532   7.098  69.566  1.00  0.00    -0.040 C  
BRANCH  37  38
HETATM   38  C   UNL     1      -6.138   8.243  68.636  1.00  0.00    -0.045 C  
HETATM   39  H   UNL     1      -5.770   8.482  66.722  1.00  0.00     0.000 HD 
HETATM   40  O   UNL     1      -6.015   7.769  67.300  1.00  0.00    -0.045 OA 
ENDBRANCH  37  38
ENDBRANCH  36  37
ENDBRANCH  29  36
ENDBRANCH  13  27
ENDBRANCH   4   5
ENDBRANCH   3   4
ENDBRANCH   2   3
TORSDOF 10
ENDMDL
MODEL      136
REMARK 921   NORMALIZED FREE ENERGY PREDICTED BY IDOCK:   -4.68 KCAL/MOL
REMARK 922        TOTAL FREE ENERGY PREDICTED BY IDOCK:   -9.48 KCAL/MOL
REMARK 923 INTER-LIGAND FREE ENERGY PREDICTED BY IDOCK:   -7.95 KCAL/MOL
REMARK 924 INTRA-LIGAND FREE ENERGY PREDICTED BY IDOCK:   -1.53 KCAL/MOL
REMARK 927      BINDING AFFINITY PREDICTED BY RF-SCORE:    0.00 PKD
ROOT
HETATM    1  C   UNL     1      -7.608  10.881  66.781  1.00  0.00    -0.134 C  
HETATM    2  C   UNL     1      -8.247  10.422  65.477  1.00  0.00    -0.162 C  
ENDROOT
BRANCH   2   3
HETATM    3  C   UNL     1      -9.751  10.166  65.620  1.00  0.00    -0.259 C  
BRANCH   3   4
HETATM    4  S   UNL     1     -10.002   8.650  66.612  1.00  0.00    -0.291 SA 
BRANCH   4   5
HETATM    5  C   UNL     1     -10.762   9.337  68.068  1.00  0.00    -0.174 A  
HETATM    6  N   UNL     1     -10.757   8.543  69.163  1.00  0.00    -0.165 NA 
HETATM    7  C   UNL     1     -11.367   9.126  70.209  1.00  0.00    -0.188 A  
HETATM    8  C   UNL     1     -11.946  10.381  70.231  1.00  0.00    -0.302 A  
HETATM    9  N   UNL     1     -12.437  10.645  71.480  1.00  0.00    -0.380 NA 
HETATM   10  C   UNL     1     -11.875  11.148  69.059  1.00  0.00    -0.348 A  
HETATM   11  N   UNL     1     -11.266  10.586  67.975  1.00  0.00    -0.304 NA 
HETATM   12  N   UNL     1     -12.163   9.602  72.258  1.00  0.00    -0.139 NA 
HETATM   13  N   UNL     1     -11.490   8.693  71.505  1.00  0.00    -0.274 NA 
BRANCH  10  14
HETATM   14  N   UNL     1     -12.369  12.469  69.029  1.00  0.00     0.055 NA 
HETATM   15  H   UNL     1     -13.363  12.652  68.897  1.00  0.00     0.000 HD 
BRANCH  14  16
HETATM   16  C   UNL     1     -11.418  13.570  69.192  1.00  0.00    -0.295 C  
HETATM   17  C   UNL     1     -11.550  14.827  68.358  1.00  0.00    -0.350 C  
HETATM   18  C   UNL     1     -11.841  14.857  69.835  1.00  0.00    -0.355 C  
BRANCH  17  19
HETATM   19  C   UNL     1     -10.295  15.415  67.764  1.00  0.00    -0.253 A  
HETATM   20  C   UNL     1      -8.972  17.280  66.932  1.00  0.00    -0.240 A  
HETATM   21  C   UNL     1     -10.148  16.785  67.498  1.00  0.00    -0.276 A  
HETATM   22  F   UNL     1      -8.858  18.595  66.703  1.00  0.00    -0.265 F  
HETATM   23  C   UNL     1      -7.928  16.420  66.614  1.00  0.00    -0.288 A  
HETATM   24  C   UNL     1      -9.222  14.566  67.423  1.00  0.00    -0.202 A  
HETATM   25  F   UNL     1      -6.803  16.900  66.070  1.00  0.00    -0.234 F  
HETATM   26  C   UNL     1      -8.047  15.060  66.854  1.00  0.00    -0.161 A  
ENDBRANCH  17  19
ENDBRANCH  14  16
ENDBRANCH  10  14
BRANCH  13  27
HETATM   27  C   UNL     1     -10.995   7.509  72.175  1.00  0.00    -0.250 C  
HETATM   28  C   UNL     1      -9.912   7.816  73.223  1.00  0.00    -0.370 C  
HETATM   29  C   UNL     1      -8.605   7.821  72.428  1.00  0.00    -0.132 C  
HETATM   30  H   UNL     1     -10.252   4.486  71.344  1.00  0.00     0.000 HD 
HETATM   31  C   UNL     1      -8.806   6.674  71.406  1.00  0.00    -0.139 C  
HETATM   32  H   UNL     1      -8.294   4.748  71.193  1.00  0.00     0.000 HD 
HETATM   33  O   UNL     1     -10.663   5.153  71.882  1.00  0.00    -0.213 OA 
HETATM   34  C   UNL     1     -10.335   6.436  71.310  1.00  0.00    -0.207 C  
HETATM   35  O   UNL     1      -8.171   5.451  71.820  1.00  0.00    -0.115 OA 
BRANCH  29  36
HETATM   36  O   UNL     1      -8.402   9.061  71.739  1.00  0.00    -0.353 OA 
BRANCH  36  37
HETATM   37  C   UNL     1      -7.259   9.056  70.870  1.00  0.00    -0.103 C  
BRANCH  37  38
HETATM   38  C   UNL     1      -5.996   8.787  71.684  1.00  0.00    -0.059 C  
HETATM   39  H   UNL     1      -4.607   7.401  71.771  1.00  0.00     0.000 HD 
HETATM   40  O   UNL     1      -5.393   7.568  71.264  1.00  0.00    -0.030 OA 
ENDBRANCH  37  38
ENDBRANCH  36  37
ENDBRANCH  29  36
ENDBRANCH  13  27
ENDBRANCH   4   5
ENDBRANCH   3   4
ENDBRANCH   2   3
TORSDOF 10
ENDMDL
MODEL      137
REMARK 921   NORMALIZED FREE ENERGY PREDICTED BY IDOCK:   -4.63 KCAL/MOL
REMARK 922        TOTAL FREE ENERGY PREDICTED BY IDOCK:   -9.40 KCAL/MOL
REMARK 923 INTER-LIGAND FREE ENERGY PREDICTED BY IDOCK:   -8.00 KCAL/MOL
REMARK 924 INTRA-LIGAND FREE ENERGY PREDICTED BY IDOCK:   -1.40 KCAL/MOL
REMARK 927      BINDING AFFINITY PREDICTED BY RF-SCORE:    0.00 PKD
ROOT
HETATM    1  C   UNL     1      -5.996  13.748  70.066  1.00  0.00    -0.144 C  
HETATM    2  C   UNL     1      -5.482  13.936  68.645  1.00  0.00    -0.087 C  
ENDROOT
BRANCH   2   3
HETATM    3  C   UNL     1      -5.589  12.655  67.810  1.00  0.00    -0.122 C  
BRANCH   3   4
HETATM    4  S   UNL     1      -6.383  11.354  68.820  1.00  0.00    -0.057 SA 
BRANCH   4   5
HETATM    5  C   UNL     1      -8.050  11.434  68.202  1.00  0.00    -0.137 A  
HETATM    6  N   UNL     1      -8.401  12.598  67.609  1.00  0.00    -0.161 NA 
HETATM    7  C   UNL     1      -9.678  12.583  67.189  1.00  0.00    -0.205 A  
HETATM    8  C   UNL     1     -10.575  11.539  67.315  1.00  0.00    -0.228 A  
HETATM    9  N   UNL     1     -11.768  11.879  66.741  1.00  0.00    -0.590 NA 
HETATM   10  C   UNL     1     -10.114  10.358  67.915  1.00  0.00    -0.171 A  
HETATM   11  N   UNL     1      -8.823  10.338  68.357  1.00  0.00    -0.126 NA 
HETATM   12  N   UNL     1     -11.646  13.101  66.232  1.00  0.00    -0.339 NA 
HETATM   13  N   UNL     1     -10.376  13.521  66.472  1.00  0.00    -0.277 NA 
BRANCH  10  14
HETATM   14  N   UNL     1     -10.945   9.221  68.004  1.00  0.00    -0.499 NA 
HETATM   15  H   UNL     1     -11.685   9.168  68.704  1.00  0.00     0.000 HD 
BRANCH  14  16
HETATM   16  C   UNL     1     -10.718   8.119  67.067  1.00  0.00    -0.177 C  
HETATM   17  C   UNL     1      -9.643   7.089  67.340  1.00  0.00    -0.164 C  
HETATM   18  C   UNL     1     -11.099   6.716  67.431  1.00  0.00    -0.398 C  
BRANCH  17  19
HETATM   19  C   UNL     1      -8.763   6.665  66.191  1.00  0.00    -0.154 A  
HETATM   20  C   UNL     1      -7.925   5.013  64.613  1.00  0.00    -0.102 A  
HETATM   21  C   UNL     1      -8.769   5.362  65.668  1.00  0.00    -0.152 A  
HETATM   22  F   UNL     1      -7.964   3.765  64.128  1.00  0.00    -0.081 F  
HETATM   23  C   UNL     1      -7.057   5.950  64.067  1.00  0.00    -0.053 A  
HETATM   24  C   UNL     1      -7.866   7.592  65.622  1.00  0.00    -0.109 A  
HETATM   25  F   UNL     1      -6.247   5.610  63.057  1.00  0.00    -0.020 F  
HETATM   26  C   UNL     1      -7.019   7.242  64.568  1.00  0.00    -0.052 A  
ENDBRANCH  17  19
ENDBRANCH  14  16
ENDBRANCH  10  14
BRANCH  13  27
HETATM   27  C   UNL     1      -9.979  14.797  65.913  1.00  0.00    -0.326 C  
HETATM   28  C   UNL     1      -8.809  15.450  66.668  1.00  0.00    -0.330 C  
HETATM   29  C   UNL     1      -9.478  16.236  67.797  1.00  0.00    -0.221 C  
HETATM   30  H   UNL     1     -11.464  17.371  64.670  1.00  0.00     0.000 HD 
HETATM   31  C   UNL     1     -10.761  16.793  67.130  1.00  0.00    -0.189 C  
HETATM   32  H   UNL     1     -11.398  18.501  66.296  1.00  0.00     0.000 HD 
HETATM   33  O   UNL     1     -10.812  16.680  64.687  1.00  0.00    -0.784 OA 
HETATM   34  C   UNL     1     -11.027  15.908  65.885  1.00  0.00    -0.151 C  
HETATM   35  O   UNL     1     -10.611  18.160  66.705  1.00  0.00    -0.351 OA 
BRANCH  29  36
HETATM   36  O   UNL     1      -9.826  15.394  68.903  1.00  0.00    -0.196 OA 
BRANCH  36  37
HETATM   37  C   UNL     1     -11.064  15.757  69.535  1.00  0.00    -0.306 C  
BRANCH  37  38
HETATM   38  C   UNL     1     -11.584  14.582  70.359  1.00  0.00    -0.248 C  
HETATM   39  H   UNL     1     -12.685  12.984  70.054  1.00  0.00     0.000 HD 
HETATM   40  O   UNL     1     -12.361  13.715  69.540  1.00  0.00    -0.294 OA 
ENDBRANCH  37  38
ENDBRANCH  36  37
ENDBRANCH  29  36
ENDBRANCH  13  27
ENDBRANCH   4   5
ENDBRANCH   3   4
ENDBRANCH   2   3
TORSDOF 10
ENDMDL
MODEL      138
REMARK 921   NORMALIZED FREE ENERGY PREDICTED BY IDOCK:   -4.59 KCAL/MOL
REMARK 922        TOTAL FREE ENERGY PREDICTED BY IDOCK:   -9.33 KCAL/MOL
REMARK 923 INTER-LIGAND FREE ENERGY PREDICTED BY IDOCK:   -7.89 KCAL/MOL
REMARK 924 INTRA-LIGAND FREE ENERGY PREDICTED BY IDOCK:   -1.44 KCAL/MOL
REMARK 927      BINDING AFFINITY PREDICTED BY RF-SCORE:    0.00 PKD
ROOT
HETATM    1  C   UNL     1      -7.687  14.603  67.485  1.00  0.00    -0.216 C  
HETATM    2  C   UNL     1      -9.002  14.035  68.000  1.00  0.00    -0.182 C  
ENDROOT
BRANCH   2   3
HETATM    3  C   UNL     1      -8.975  12.507  68.116  1.00  0.00    -0.199 C  
BRANCH   3   4
HETATM    4  S   UNL     1      -9.833  11.787  66.670  1.00  0.00    -0.207 SA 
BRANCH   4   5
HETATM    5  C   UNL     1     -10.090  10.121  67.241  1.00  0.00    -0.206 A  
HETATM    6  N   UNL     1      -9.567   9.147  66.463  1.00  0.00    -0.206 NA 
HETATM    7  C   UNL     1      -9.822   7.921  66.953  1.00  0.00    -0.239 A  
HETATM    8  C   UNL     1     -10.525   7.624  68.105  1.00  0.00    -0.181 A  
HETATM    9  N   UNL     1     -10.551   6.271  68.298  1.00  0.00    -0.229 NA 
HETATM   10  C   UNL     1     -11.004   8.699  68.867  1.00  0.00     0.120 A  
HETATM   11  N   UNL     1     -10.767   9.959  68.398  1.00  0.00    -0.229 NA 
HETATM   12  N   UNL     1      -9.863   5.701  67.313  1.00  0.00    -0.134 NA 
HETATM   13  N   UNL     1      -9.393   6.695  66.513  1.00  0.00    -0.161 NA 
BRANCH  10  14
HETATM   14  N   UNL     1     -11.659   8.478  70.097  1.00  0.00    -0.461 NA 
HETATM   15  H   UNL     1     -12.016   7.555  70.341  1.00  0.00     0.000 HD 
BRANCH  14  16
HETATM   16  C   UNL     1     -11.813   9.609  71.014  1.00  0.00    -0.347 C  
HETATM   17  C   UNL     1     -13.060  10.467  70.971  1.00  0.00    -0.450 C  
HETATM   18  C   UNL     1     -12.804   9.551  72.139  1.00  0.00    -0.471 C  
BRANCH  17  19
HETATM   19  C   UNL     1     -12.890  11.963  71.057  1.00  0.00    -0.291 A  
HETATM   20  C   UNL     1     -13.281  14.121  72.112  1.00  0.00    -0.420 A  
HETATM   21  C   UNL     1     -13.453  12.736  72.085  1.00  0.00    -0.591 A  
HETATM   22  F   UNL     1     -13.821  14.827  73.114  1.00  0.00    -0.457 F  
HETATM   23  C   UNL     1     -12.555  14.759  71.115  1.00  0.00    -0.337 A  
HETATM   24  C   UNL     1     -12.164  12.640  70.055  1.00  0.00    -0.267 A  
HETATM   25  F   UNL     1     -12.395  16.088  71.145  1.00  0.00    -0.425 F  
HETATM   26  C   UNL     1     -11.995  14.026  70.081  1.00  0.00    -0.399 A  
ENDBRANCH  17  19
ENDBRANCH  14  16
ENDBRANCH  10  14
BRANCH  13  27
HETATM   27  C   UNL     1      -8.521   6.314  65.421  1.00  0.00    -0.129 C  
HETATM   28  C   UNL     1      -7.501   5.232  65.813  1.00  0.00    -0.082 C  
HETATM   29  C   UNL     1      -6.318   6.013  66.387  1.00  0.00    -0.042 C  
HETATM   30  H   UNL     1      -6.981   7.815  63.022  1.00  0.00     0.000 HD 
HETATM   31  C   UNL     1      -6.248   7.267  65.480  1.00  0.00    -0.038 C  
HETATM   32  H   UNL     1      -5.206   7.916  63.896  1.00  0.00     0.000 HD 
HETATM   33  O   UNL     1      -7.529   7.137  63.401  1.00  0.00    -0.082 OA 
HETATM   34  C   UNL     1      -7.640   7.405  64.813  1.00  0.00    -0.103 C  
HETATM   35  O   UNL     1      -5.249   7.147  64.451  1.00  0.00    -0.027 OA 
BRANCH  29  36
HETATM   36  O   UNL     1      -6.544   6.404  67.747  1.00  0.00    -0.056 OA 
BRANCH  36  37
HETATM   37  C   UNL     1      -5.900   5.551  68.706  1.00  0.00    -0.019 C  
BRANCH  37  38
HETATM   38  C   UNL     1      -6.953   4.770  69.489  1.00  0.00    -0.053 C  
HETATM   39  H   UNL     1      -8.140   5.092  71.020  1.00  0.00     0.000 HD 
HETATM   40  O   UNL     1      -7.485   5.578  70.533  1.00  0.00    -0.075 OA 
ENDBRANCH  37  38
ENDBRANCH  36  37
ENDBRANCH  29  36
ENDBRANCH  13  27
ENDBRANCH   4   5
ENDBRANCH   3   4
ENDBRANCH   2   3
TORSDOF 10
ENDMDL
MODEL      139
REMARK 921   NORMALIZED FREE ENERGY PREDICTED BY IDOCK:   -4.57 KCAL/MOL
REMARK 922        TOTAL FREE ENERGY PREDICTED BY IDOCK:   -9.31 KCAL/MOL
REMARK 923 INTER-LIGAND FREE ENERGY PREDICTED BY IDOCK:   -8.19 KCAL/MOL
REMARK 924 INTRA-LIGAND FREE ENERGY PREDICTED BY IDOCK:   -1.12 KCAL/MOL
REMARK 927      BINDING AFFINITY PREDICTED BY RF-SCORE:    0.00 PKD
ROOT
HETATM    1  C   UNL     1     -11.455   8.109  72.410  1.00  0.00    -0.462 C  
HETATM    2  C   UNL     1      -9.943   8.281  72.356  1.00  0.00    -0.379 C  
ENDROOT
BRANCH   2   3
HETATM    3  C   UNL     1      -9.487   9.060  71.117  1.00  0.00    -0.278 C  
BRANCH   3   4
HETATM    4  S   UNL     1     -10.892   9.199  69.955  1.00  0.00    -0.206 SA 
BRANCH   4   5
HETATM    5  C   UNL     1     -10.123   8.646  68.448  1.00  0.00    -0.191 A  
HETATM    6  N   UNL     1      -9.408   7.501  68.539  1.00  0.00    -0.143 NA 
HETATM    7  C   UNL     1      -8.845   7.165  67.366  1.00  0.00    -0.119 A  
HETATM    8  C   UNL     1      -8.947   7.858  66.174  1.00  0.00    -0.175 A  
HETATM    9  N   UNL     1      -8.269   7.194  65.190  1.00  0.00    -0.132 NA 
HETATM   10  C   UNL     1      -9.736   9.017  66.164  1.00  0.00    -0.283 A  
HETATM   11  N   UNL     1     -10.320   9.392  67.339  1.00  0.00    -0.245 NA 
HETATM   12  N   UNL     1      -7.759   6.085  65.719  1.00  0.00    -0.093 NA 
HETATM   13  N   UNL     1      -8.130   6.046  67.026  1.00  0.00    -0.105 NA 
BRANCH  10  14
HETATM   14  N   UNL     1      -9.955   9.732  64.968  1.00  0.00    -0.403 NA 
HETATM   15  H   UNL     1      -9.620   9.372  64.075  1.00  0.00     0.000 HD 
BRANCH  14  16
HETATM   16  C   UNL     1     -10.678  11.004  65.041  1.00  0.00    -0.194 C  
HETATM   17  C   UNL     1      -9.922  12.315  65.056  1.00  0.00    -0.227 C  
HETATM   18  C   UNL     1     -10.738  11.918  63.855  1.00  0.00    -0.450 C  
BRANCH  17  19
HETATM   19  C   UNL     1     -10.369  13.377  66.030  1.00  0.00    -0.297 A  
HETATM   20  C   UNL     1     -11.663  14.141  67.943  1.00  0.00    -0.367 A  
HETATM   21  C   UNL     1     -11.267  13.121  67.077  1.00  0.00    -0.325 A  
HETATM   22  F   UNL     1     -12.512  13.860  68.940  1.00  0.00    -0.375 F  
HETATM   23  C   UNL     1     -11.179  15.432  67.777  1.00  0.00    -0.321 A  
HETATM   24  C   UNL     1      -9.899  14.698  65.881  1.00  0.00    -0.358 A  
HETATM   25  F   UNL     1     -11.563  16.408  68.609  1.00  0.00    -0.354 F  
HETATM   26  C   UNL     1     -10.298  15.720  66.746  1.00  0.00    -0.293 A  
ENDBRANCH  17  19
ENDBRANCH  14  16
ENDBRANCH  10  14
BRANCH  13  27
HETATM   27  C   UNL     1      -7.771   4.865  67.784  1.00  0.00    -0.083 C  
HETATM   28  C   UNL     1      -7.471   3.645  66.896  1.00  0.00    -0.079 C  
HETATM   29  C   UNL     1      -8.836   2.994  66.670  1.00  0.00    -0.147 C  
HETATM   30  H   UNL     1      -8.735   3.454  70.516  1.00  0.00     0.000 HD 
HETATM   31  C   UNL     1      -9.544   3.171  68.037  1.00  0.00    -0.075 C  
HETATM   32  H   UNL     1      -9.911   2.093  69.686  1.00  0.00     0.000 HD 
HETATM   33  O   UNL     1      -8.091   3.793  69.904  1.00  0.00    -0.053 OA 
HETATM   34  C   UNL     1      -8.806   4.321  68.768  1.00  0.00    -0.101 C  
HETATM   35  O   UNL     1      -9.476   1.984  68.849  1.00  0.00    -0.150 OA 
BRANCH  29  36
HETATM   36  O   UNL     1      -9.582   3.659  65.642  1.00  0.00    -0.171 OA 
BRANCH  36  37
HETATM   37  C   UNL     1      -9.688   2.901  64.427  1.00  0.00    -0.136 C  
BRANCH  37  38
HETATM   38  C   UNL     1     -10.772   3.505  63.537  1.00  0.00    -0.249 C  
HETATM   39  H   UNL     1     -10.859   4.480  61.835  1.00  0.00     0.000 HD 
HETATM   40  O   UNL     1     -10.185   4.104  62.388  1.00  0.00    -0.170 OA 
ENDBRANCH  37  38
ENDBRANCH  36  37
ENDBRANCH  29  36
ENDBRANCH  13  27
ENDBRANCH   4   5
ENDBRANCH   3   4
ENDBRANCH   2   3
TORSDOF 10
ENDMDL
MODEL      140
REMARK 921   NORMALIZED FREE ENERGY PREDICTED BY IDOCK:   -4.55 KCAL/MOL
REMARK 922        TOTAL FREE ENERGY PREDICTED BY IDOCK:   -9.27 KCAL/MOL
REMARK 923 INTER-LIGAND FREE ENERGY PREDICTED BY IDOCK:   -8.15 KCAL/MOL
REMARK 924 INTRA-LIGAND FREE ENERGY PREDICTED BY IDOCK:   -1.12 KCAL/MOL
REMARK 927      BINDING AFFINITY PREDICTED BY RF-SCORE:    0.00 PKD
ROOT
HETATM    1  C   UNL     1     -12.701  11.853  63.639  1.00  0.00    -0.509 C  
HETATM    2  C   UNL     1     -12.471  13.265  63.118  1.00  0.00    -0.063 C  
ENDROOT
BRANCH   2   3
HETATM    3  C   UNL     1     -11.993  14.224  64.214  1.00  0.00    -0.425 C  
BRANCH   3   4
HETATM    4  S   UNL     1     -12.530  13.581  65.839  1.00  0.00    -0.394 SA 
BRANCH   4   5
HETATM    5  C   UNL     1     -10.955  13.212  66.581  1.00  0.00    -0.283 A  
HETATM    6  N   UNL     1     -10.069  14.234  66.616  1.00  0.00    -0.266 NA 
HETATM    7  C   UNL     1      -8.901  13.868  67.172  1.00  0.00    -0.226 A  
HETATM    8  C   UNL     1      -8.580  12.618  67.668  1.00  0.00    -0.180 A  
HETATM    9  N   UNL     1      -7.315  12.634  68.184  1.00  0.00    -0.101 NA 
HETATM   10  C   UNL     1      -9.572  11.628  67.619  1.00  0.00    -0.181 A  
HETATM   11  N   UNL     1     -10.770  11.963  67.058  1.00  0.00    -0.230 NA 
HETATM   12  N   UNL     1      -6.832  13.866  68.053  1.00  0.00    -0.125 NA 
HETATM   13  N   UNL     1      -7.797  14.625  67.469  1.00  0.00    -0.178 NA 
BRANCH  10  14
HETATM   14  N   UNL     1      -9.348  10.353  68.180  1.00  0.00    -0.143 NA 
HETATM   15  H   UNL     1      -9.536  10.175  69.166  1.00  0.00     0.000 HD 
BRANCH  14  16
HETATM   16  C   UNL     1      -8.838   9.291  67.310  1.00  0.00    -0.124 C  
HETATM   17  C   UNL     1      -9.763   8.204  66.805  1.00  0.00    -0.303 C  
HETATM   18  C   UNL     1      -9.218   9.243  65.860  1.00  0.00    -0.277 C  
BRANCH  17  19
HETATM   19  C   UNL     1      -9.260   6.782  66.829  1.00  0.00    -0.172 A  
HETATM   20  C   UNL     1      -9.224   4.523  67.733  1.00  0.00    -0.131 A  
HETATM   21  C   UNL     1      -9.732   5.823  67.739  1.00  0.00    -0.130 A  
HETATM   22  F   UNL     1      -9.705   3.629  68.606  1.00  0.00    -0.230 F  
HETATM   23  C   UNL     1      -8.236   4.158  66.828  1.00  0.00    -0.101 A  
HETATM   24  C   UNL     1      -8.252   6.385  65.927  1.00  0.00    -0.130 A  
HETATM   25  F   UNL     1      -7.751   2.911  66.827  1.00  0.00    -0.072 F  
HETATM   26  C   UNL     1      -7.741   5.085  65.923  1.00  0.00    -0.091 A  
ENDBRANCH  17  19
ENDBRANCH  14  16
ENDBRANCH  10  14
BRANCH  13  27
HETATM   27  C   UNL     1      -7.530  16.040  67.318  1.00  0.00    -0.201 C  
HETATM   28  C   UNL     1      -7.452  16.787  68.660  1.00  0.00    -0.219 C  
HETATM   29  C   UNL     1      -8.901  17.168  68.969  1.00  0.00    -0.105 C  
HETATM   30  H   UNL     1      -8.449  18.395  65.321  1.00  0.00     0.000 HD 
HETATM   31  C   UNL     1      -9.475  17.533  67.577  1.00  0.00    -0.255 C  
HETATM   32  H   UNL     1      -9.845  19.177  66.491  1.00  0.00     0.000 HD 
HETATM   33  O   UNL     1      -7.818  17.882  65.811  1.00  0.00    -0.542 OA 
HETATM   34  C   UNL     1      -8.546  16.866  66.530  1.00  0.00    -0.270 C  
HETATM   35  O   UNL     1      -9.492  18.953  67.344  1.00  0.00    -0.293 OA 
BRANCH  29  36
HETATM   36  O   UNL     1      -9.635  16.073  69.530  1.00  0.00    -0.254 OA 
BRANCH  36  37
HETATM   37  C   UNL     1     -11.058  16.270  69.521  1.00  0.00    -0.330 C  
BRANCH  37  38
HETATM   38  C   UNL     1     -11.586  16.267  70.953  1.00  0.00    -0.286 C  
HETATM   39  H   UNL     1     -11.558  15.052  72.496  1.00  0.00     0.000 HD 
HETATM   40  O   UNL     1     -11.229  15.054  71.605  1.00  0.00    -0.333 OA 
ENDBRANCH  37  38
ENDBRANCH  36  37
ENDBRANCH  29  36
ENDBRANCH  13  27
ENDBRANCH   4   5
ENDBRANCH   3   4
ENDBRANCH   2   3
TORSDOF 10
ENDMDL
MODEL      141
REMARK 921   NORMALIZED FREE ENERGY PREDICTED BY IDOCK:   -4.55 KCAL/MOL
REMARK 922        TOTAL FREE ENERGY PREDICTED BY IDOCK:   -9.27 KCAL/MOL
REMARK 923 INTER-LIGAND FREE ENERGY PREDICTED BY IDOCK:   -8.02 KCAL/MOL
REMARK 924 INTRA-LIGAND FREE ENERGY PREDICTED BY IDOCK:   -1.25 KCAL/MOL
REMARK 927      BINDING AFFINITY PREDICTED BY RF-SCORE:    0.00 PKD
ROOT
HETATM    1  C   UNL     1     -12.282  14.604  64.298  1.00  0.00    -0.432 C  
HETATM    2  C   UNL     1     -12.158  13.251  63.612  1.00  0.00    -0.551 C  
ENDROOT
BRANCH   2   3
HETATM    3  C   UNL     1     -10.740  12.677  63.701  1.00  0.00    -0.372 C  
BRANCH   3   4
HETATM    4  S   UNL     1     -10.786  11.133  64.681  1.00  0.00    -0.229 SA 
BRANCH   4   5
HETATM    5  C   UNL     1      -9.717  11.575  66.034  1.00  0.00    -0.226 A  
HETATM    6  N   UNL     1      -9.368  12.879  66.106  1.00  0.00    -0.156 NA 
HETATM    7  C   UNL     1      -8.546  13.124  67.141  1.00  0.00    -0.192 A  
HETATM    8  C   UNL     1      -8.078  12.202  68.057  1.00  0.00    -0.155 A  
HETATM    9  N   UNL     1      -7.291  12.826  68.985  1.00  0.00    -0.008 NA 
HETATM   10  C   UNL     1      -8.518  10.876  67.925  1.00  0.00    -0.129 A  
HETATM   11  N   UNL     1      -9.351  10.590  66.883  1.00  0.00    -0.158 NA 
HETATM   12  N   UNL     1      -7.267  14.124  68.697  1.00  0.00    -0.110 NA 
HETATM   13  N   UNL     1      -8.048  14.316  67.602  1.00  0.00    -0.164 NA 
BRANCH  10  14
HETATM   14  N   UNL     1      -8.150   9.895  68.869  1.00  0.00    -0.100 NA 
HETATM   15  H   UNL     1      -7.242   9.930  69.332  1.00  0.00     0.000 HD 
BRANCH  14  16
HETATM   16  C   UNL     1      -9.105   8.826  69.168  1.00  0.00    -0.141 C  
HETATM   17  C   UNL     1      -9.221   8.272  70.572  1.00  0.00    -0.160 C  
HETATM   18  C   UNL     1     -10.331   9.103  69.985  1.00  0.00    -0.231 C  
BRANCH  17  19
HETATM   19  C   UNL     1      -9.322   6.776  70.735  1.00  0.00    -0.161 A  
HETATM   20  C   UNL     1      -8.838   4.696  71.901  1.00  0.00    -0.123 A  
HETATM   21  C   UNL     1      -8.729   6.084  71.802  1.00  0.00    -0.138 A  
HETATM   22  F   UNL     1      -8.271   4.067  72.938  1.00  0.00    -0.086 F  
HETATM   23  C   UNL     1      -9.530   3.974  70.937  1.00  0.00    -0.166 A  
HETATM   24  C   UNL     1     -10.012   6.017  69.767  1.00  0.00    -0.223 A  
HETATM   25  F   UNL     1      -9.629   2.643  71.035  1.00  0.00    -0.195 F  
HETATM   26  C   UNL     1     -10.118   4.627  69.864  1.00  0.00    -0.257 A  
ENDBRANCH  17  19
ENDBRANCH  14  16
ENDBRANCH  10  14
BRANCH  13  27
HETATM   27  C   UNL     1      -8.255  15.681  67.162  1.00  0.00    -0.213 C  
HETATM   28  C   UNL     1      -8.061  16.712  68.286  1.00  0.00    -0.198 C  
HETATM   29  C   UNL     1      -9.431  16.801  68.962  1.00  0.00    -0.217 C  
HETATM   30  H   UNL     1     -10.298  17.227  65.210  1.00  0.00     0.000 HD 
HETATM   31  C   UNL     1     -10.420  16.690  67.774  1.00  0.00    -0.316 C  
HETATM   32  H   UNL     1     -11.517  17.904  66.617  1.00  0.00     0.000 HD 
HETATM   33  O   UNL     1      -9.441  17.004  65.555  1.00  0.00    -0.496 OA 
HETATM   34  C   UNL     1      -9.633  16.038  66.608  1.00  0.00    -0.239 C  
HETATM   35  O   UNL     1     -10.910  17.972  67.345  1.00  0.00    -0.356 OA 
BRANCH  29  36
HETATM   36  O   UNL     1      -9.645  15.722  69.881  1.00  0.00    -0.226 OA 
BRANCH  36  37
HETATM   37  C   UNL     1     -11.018  15.310  69.974  1.00  0.00    -0.288 C  
BRANCH  37  38
HETATM   38  C   UNL     1     -11.335  14.901  71.410  1.00  0.00    -0.189 C  
HETATM   39  H   UNL     1     -12.347  15.634  72.926  1.00  0.00     0.000 HD 
HETATM   40  O   UNL     1     -12.150  15.888  72.032  1.00  0.00    -0.415 OA 
ENDBRANCH  37  38
ENDBRANCH  36  37
ENDBRANCH  29  36
ENDBRANCH  13  27
ENDBRANCH   4   5
ENDBRANCH   3   4
ENDBRANCH   2   3
TORSDOF 10
ENDMDL
MODEL      142
REMARK 921   NORMALIZED FREE ENERGY PREDICTED BY IDOCK:   -4.54 KCAL/MOL
REMARK 922        TOTAL FREE ENERGY PREDICTED BY IDOCK:   -9.26 KCAL/MOL
REMARK 923 INTER-LIGAND FREE ENERGY PREDICTED BY IDOCK:   -7.28 KCAL/MOL
REMARK 924 INTRA-LIGAND FREE ENERGY PREDICTED BY IDOCK:   -1.98 KCAL/MOL
REMARK 927      BINDING AFFINITY PREDICTED BY RF-SCORE:    0.00 PKD
ROOT
HETATM    1  C   UNL     1      -8.213   5.803  67.111  1.00  0.00    -0.102 C  
HETATM    2  C   UNL     1      -8.563   6.279  65.707  1.00  0.00    -0.153 C  
ENDROOT
BRANCH   2   3
HETATM    3  C   UNL     1      -7.583   7.336  65.187  1.00  0.00    -0.105 C  
BRANCH   3   4
HETATM    4  S   UNL     1      -8.529   8.802  64.638  1.00  0.00    -0.114 SA 
BRANCH   4   5
HETATM    5  C   UNL     1      -8.143   9.946  65.945  1.00  0.00    -0.121 A  
HETATM    6  N   UNL     1      -8.696  11.175  65.833  1.00  0.00    -0.182 NA 
HETATM    7  C   UNL     1      -8.339  11.982  66.847  1.00  0.00    -0.159 A  
HETATM    8  C   UNL     1      -7.514  11.658  67.907  1.00  0.00    -0.105 A  
HETATM    9  N   UNL     1      -7.408  12.723  68.757  1.00  0.00    -0.097 NA 
HETATM   10  C   UNL     1      -7.011  10.350  67.960  1.00  0.00    -0.078 A  
HETATM   11  N   UNL     1      -7.349   9.503  66.944  1.00  0.00    -0.087 NA 
HETATM   12  N   UNL     1      -8.164  13.707  68.279  1.00  0.00    -0.151 NA 
HETATM   13  N   UNL     1      -8.754  13.256  67.141  1.00  0.00    -0.214 NA 
BRANCH  10  14
HETATM   14  N   UNL     1      -6.230   9.919  69.053  1.00  0.00    -0.040 NA 
HETATM   15  H   UNL     1      -5.222  10.071  69.067  1.00  0.00     0.000 HD 
BRANCH  14  16
HETATM   16  C   UNL     1      -6.904   9.249  70.167  1.00  0.00    -0.063 C  
HETATM   17  C   UNL     1      -7.203   7.766  70.102  1.00  0.00    -0.062 C  
HETATM   18  C   UNL     1      -6.156   8.293  71.048  1.00  0.00    -0.034 C  
BRANCH  17  19
HETATM   19  C   UNL     1      -8.559   7.298  70.566  1.00  0.00    -0.143 A  
HETATM   20  C   UNL     1     -10.033   5.690  71.643  1.00  0.00    -0.174 A  
HETATM   21  C   UNL     1      -8.755   6.087  71.247  1.00  0.00    -0.136 A  
HETATM   22  F   UNL     1     -10.185   4.534  72.302  1.00  0.00    -0.221 F  
HETATM   23  C   UNL     1     -11.136   6.486  71.361  1.00  0.00    -0.268 A  
HETATM   24  C   UNL     1      -9.698   8.082  70.287  1.00  0.00    -0.175 A  
HETATM   25  F   UNL     1     -12.360   6.099  71.741  1.00  0.00    -0.366 F  
HETATM   26  C   UNL     1     -10.978   7.683  70.681  1.00  0.00    -0.259 A  
ENDBRANCH  17  19
ENDBRANCH  14  16
ENDBRANCH  10  14
BRANCH  13  27
HETATM   27  C   UNL     1      -9.711  14.130  66.495  1.00  0.00    -0.295 C  
HETATM   28  C   UNL     1     -10.645  14.841  67.488  1.00  0.00    -0.259 C  
HETATM   29  C   UNL     1     -11.797  13.858  67.698  1.00  0.00    -0.386 C  
HETATM   30  H   UNL     1     -11.531  14.053  63.838  1.00  0.00     0.000 HD 
HETATM   31  C   UNL     1     -12.004  13.248  66.289  1.00  0.00    -0.417 C  
HETATM   32  H   UNL     1     -13.217  13.491  64.713  1.00  0.00     0.000 HD 
HETATM   33  O   UNL     1     -10.923  14.448  64.452  1.00  0.00    -0.312 OA 
HETATM   34  C   UNL     1     -10.688  13.494  65.507  1.00  0.00    -0.290 C  
HETATM   35  O   UNL     1     -13.091  13.865  65.576  1.00  0.00    -0.699 OA 
BRANCH  29  36
HETATM   36  O   UNL     1     -11.457  12.827  68.634  1.00  0.00    -0.257 OA 
BRANCH  36  37
HETATM   37  C   UNL     1     -11.896  11.519  68.234  1.00  0.00    -0.256 C  
BRANCH  37  38
HETATM   38  C   UNL     1     -12.252  10.696  69.469  1.00  0.00    -0.159 C  
HETATM   39  H   UNL     1     -12.692  11.040  71.351  1.00  0.00     0.000 HD 
HETATM   40  O   UNL     1     -12.471  11.553  70.583  1.00  0.00    -0.339 OA 
ENDBRANCH  37  38
ENDBRANCH  36  37
ENDBRANCH  29  36
ENDBRANCH  13  27
ENDBRANCH   4   5
ENDBRANCH   3   4
ENDBRANCH   2   3
TORSDOF 10
ENDMDL
MODEL      143
REMARK 921   NORMALIZED FREE ENERGY PREDICTED BY IDOCK:   -4.51 KCAL/MOL
REMARK 922        TOTAL FREE ENERGY PREDICTED BY IDOCK:   -9.20 KCAL/MOL
REMARK 923 INTER-LIGAND FREE ENERGY PREDICTED BY IDOCK:   -7.91 KCAL/MOL
REMARK 924 INTRA-LIGAND FREE ENERGY PREDICTED BY IDOCK:   -1.29 KCAL/MOL
REMARK 927      BINDING AFFINITY PREDICTED BY RF-SCORE:    0.00 PKD
ROOT
HETATM    1  C   UNL     1      -7.099   8.512  63.287  1.00  0.00    -0.090 C  
HETATM    2  C   UNL     1      -8.096   9.582  62.865  1.00  0.00    -0.143 C  
ENDROOT
BRANCH   2   3
HETATM    3  C   UNL     1      -9.190   9.809  63.914  1.00  0.00    -0.198 C  
BRANCH   3   4
HETATM    4  S   UNL     1      -8.786   8.840  65.411  1.00  0.00    -0.168 SA 
BRANCH   4   5
HETATM    5  C   UNL     1      -9.877   9.598  66.594  1.00  0.00    -0.224 A  
HETATM    6  N   UNL     1     -10.023   8.939  67.766  1.00  0.00    -0.181 NA 
HETATM    7  C   UNL     1     -10.877   9.566  68.593  1.00  0.00    -0.139 A  
HETATM    8  C   UNL     1     -11.554  10.743  68.340  1.00  0.00    -0.239 A  
HETATM    9  N   UNL     1     -12.306  11.091  69.428  1.00  0.00    -0.369 NA 
HETATM   10  C   UNL     1     -11.317  11.376  67.111  1.00  0.00    -0.255 A  
HETATM   11  N   UNL     1     -10.459  10.766  66.244  1.00  0.00    -0.245 NA 
HETATM   12  N   UNL     1     -12.105  10.179  70.375  1.00  0.00    -0.265 NA 
HETATM   13  N   UNL     1     -11.219   9.271  69.888  1.00  0.00    -0.180 NA 
BRANCH  10  14
HETATM   14  N   UNL     1     -11.907  12.623  66.814  1.00  0.00    -0.473 NA 
HETATM   15  H   UNL     1     -12.903  12.694  66.606  1.00  0.00     0.000 HD 
BRANCH  14  16
HETATM   16  C   UNL     1     -11.053  13.813  66.813  1.00  0.00    -0.308 C  
HETATM   17  C   UNL     1      -9.547  13.676  66.754  1.00  0.00    -0.277 C  
HETATM   18  C   UNL     1     -10.311  14.219  65.575  1.00  0.00    -0.374 C  
BRANCH  17  19
HETATM   19  C   UNL     1      -8.722  14.551  67.663  1.00  0.00    -0.186 A  
HETATM   20  C   UNL     1      -8.077  16.714  68.573  1.00  0.00    -0.226 A  
HETATM   21  C   UNL     1      -8.876  15.944  67.725  1.00  0.00    -0.176 A  
HETATM   22  F   UNL     1      -8.258  18.040  68.617  1.00  0.00    -0.285 F  
HETATM   23  C   UNL     1      -7.109  16.111  69.365  1.00  0.00    -0.215 A  
HETATM   24  C   UNL     1      -7.726  13.968  68.473  1.00  0.00    -0.139 A  
HETATM   25  F   UNL     1      -6.344  16.854  70.174  1.00  0.00    -0.219 F  
HETATM   26  C   UNL     1      -6.924  14.738  69.319  1.00  0.00    -0.149 A  
ENDBRANCH  17  19
ENDBRANCH  14  16
ENDBRANCH  10  14
BRANCH  13  27
HETATM   27  C   UNL     1     -10.768   8.231  70.790  1.00  0.00    -0.218 C  
HETATM   28  C   UNL     1      -9.918   8.768  71.954  1.00  0.00    -0.401 C  
HETATM   29  C   UNL     1      -8.493   8.803  71.400  1.00  0.00    -0.188 C  
HETATM   30  H   UNL     1      -9.666   5.215  70.523  1.00  0.00     0.000 HD 
HETATM   31  C   UNL     1      -8.420   7.524  70.527  1.00  0.00    -0.133 C  
HETATM   32  H   UNL     1      -7.738   5.646  70.672  1.00  0.00     0.000 HD 
HETATM   33  O   UNL     1     -10.215   5.901  70.885  1.00  0.00    -0.195 OA 
HETATM   34  C   UNL     1      -9.885   7.129  70.206  1.00  0.00    -0.176 C  
HETATM   35  O   UNL     1      -7.782   6.429  71.208  1.00  0.00    -0.093 OA 
BRANCH  29  36
HETATM   36  O   UNL     1      -8.260   9.962  70.591  1.00  0.00    -0.210 OA 
BRANCH  36  37
HETATM   37  C   UNL     1      -7.044   9.899  69.830  1.00  0.00    -0.106 C  
BRANCH  37  38
HETATM   38  C   UNL     1      -5.864  10.300  70.711  1.00  0.00    -0.094 C  
HETATM   39  H   UNL     1      -5.206  11.934  71.579  1.00  0.00     0.000 HD 
HETATM   40  O   UNL     1      -5.941  11.685  71.030  1.00  0.00    -0.374 OA 
ENDBRANCH  37  38
ENDBRANCH  36  37
ENDBRANCH  29  36
ENDBRANCH  13  27
ENDBRANCH   4   5
ENDBRANCH   3   4
ENDBRANCH   2   3
TORSDOF 10
ENDMDL
MODEL      144
REMARK 921   NORMALIZED FREE ENERGY PREDICTED BY IDOCK:   -4.50 KCAL/MOL
REMARK 922        TOTAL FREE ENERGY PREDICTED BY IDOCK:   -9.20 KCAL/MOL
REMARK 923 INTER-LIGAND FREE ENERGY PREDICTED BY IDOCK:   -8.55 KCAL/MOL
REMARK 924 INTRA-LIGAND FREE ENERGY PREDICTED BY IDOCK:   -0.65 KCAL/MOL
REMARK 927      BINDING AFFINITY PREDICTED BY RF-SCORE:    0.00 PKD
ROOT
HETATM    1  C   UNL     1     -11.879  12.014  65.481  1.00  0.00    -0.250 C  
HETATM    2  C   UNL     1     -11.957  12.835  66.761  1.00  0.00    -0.389 C  
ENDROOT
BRANCH   2   3
HETATM    3  C   UNL     1     -11.676  11.997  68.013  1.00  0.00    -0.331 C  
BRANCH   3   4
HETATM    4  S   UNL     1     -11.050  13.097  69.333  1.00  0.00    -0.003 SA 
BRANCH   4   5
HETATM    5  C   UNL     1      -9.566  13.713  68.567  1.00  0.00    -0.165 A  
HETATM    6  N   UNL     1      -9.458  15.059  68.493  1.00  0.00    -0.197 NA 
HETATM    7  C   UNL     1      -8.322  15.440  67.885  1.00  0.00    -0.144 A  
HETATM    8  C   UNL     1      -7.342  14.609  67.375  1.00  0.00    -0.168 A  
HETATM    9  N   UNL     1      -6.320  15.357  66.860  1.00  0.00    -0.064 NA 
HETATM   10  C   UNL     1      -7.522  13.226  67.524  1.00  0.00    -0.157 A  
HETATM   11  N   UNL     1      -8.667  12.803  68.134  1.00  0.00    -0.190 NA 
HETATM   12  N   UNL     1      -6.613  16.640  67.051  1.00  0.00    -0.189 NA 
HETATM   13  N   UNL     1      -7.807  16.697  67.697  1.00  0.00    -0.170 NA 
BRANCH  10  14
HETATM   14  N   UNL     1      -6.527  12.319  67.104  1.00  0.00    -0.262 NA 
HETATM   15  H   UNL     1      -5.580  12.637  66.903  1.00  0.00     0.000 HD 
BRANCH  14  16
HETATM   16  C   UNL     1      -6.890  10.907  66.964  1.00  0.00    -0.100 C  
HETATM   17  C   UNL     1      -8.245  10.514  66.416  1.00  0.00    -0.140 C  
HETATM   18  C   UNL     1      -6.997  10.276  65.609  1.00  0.00    -0.133 C  
BRANCH  17  19
HETATM   19  C   UNL     1      -8.992   9.401  67.109  1.00  0.00    -0.144 A  
HETATM   20  C   UNL     1      -9.365   7.895  68.984  1.00  0.00    -0.151 A  
HETATM   21  C   UNL     1      -8.653   8.939  68.390  1.00  0.00    -0.134 A  
HETATM   22  F   UNL     1      -9.024   7.486  70.212  1.00  0.00    -0.142 F  
HETATM   23  C   UNL     1     -10.419   7.290  68.310  1.00  0.00    -0.199 A  
HETATM   24  C   UNL     1     -10.061   8.764  66.447  1.00  0.00    -0.313 A  
HETATM   25  F   UNL     1     -11.097   6.288  68.883  1.00  0.00    -0.310 F  
HETATM   26  C   UNL     1     -10.772   7.717  67.039  1.00  0.00    -0.316 A  
ENDBRANCH  17  19
ENDBRANCH  14  16
ENDBRANCH  10  14
BRANCH  13  27
HETATM   27  C   UNL     1      -8.282  18.003  68.105  1.00  0.00    -0.271 C  
HETATM   28  C   UNL     1      -9.730  17.984  68.625  1.00  0.00    -0.356 C  
HETATM   29  C   UNL     1     -10.587  18.146  67.369  1.00  0.00    -0.388 C  
HETATM   30  H   UNL     1      -8.021  21.029  67.032  1.00  0.00     0.000 HD 
HETATM   31  C   UNL     1      -9.775  19.148  66.512  1.00  0.00    -0.359 C  
HETATM   32  H   UNL     1      -9.768  21.110  66.101  1.00  0.00     0.000 HD 
HETATM   33  O   UNL     1      -7.999  20.347  67.692  1.00  0.00    -0.304 OA 
HETATM   34  C   UNL     1      -8.319  19.100  67.042  1.00  0.00    -0.276 C  
HETATM   35  O   UNL     1     -10.267  20.496  66.627  1.00  0.00    -0.357 OA 
BRANCH  29  36
HETATM   36  O   UNL     1     -10.741  16.908  66.662  1.00  0.00    -0.228 OA 
BRANCH  36  37
HETATM   37  C   UNL     1     -10.632  17.043  65.236  1.00  0.00    -0.080 C  
BRANCH  37  38
HETATM   38  C   UNL     1     -11.134  15.770  64.560  1.00  0.00    -0.277 C  
HETATM   39  H   UNL     1     -12.560  15.273  63.303  1.00  0.00     0.000 HD 
HETATM   40  O   UNL     1     -12.247  16.066  63.724  1.00  0.00    -0.895 OA 
ENDBRANCH  37  38
ENDBRANCH  36  37
ENDBRANCH  29  36
ENDBRANCH  13  27
ENDBRANCH   4   5
ENDBRANCH   3   4
ENDBRANCH   2   3
TORSDOF 10
ENDMDL
MODEL      145
REMARK 921   NORMALIZED FREE ENERGY PREDICTED BY IDOCK:   -4.47 KCAL/MOL
REMARK 922        TOTAL FREE ENERGY PREDICTED BY IDOCK:   -9.14 KCAL/MOL
REMARK 923 INTER-LIGAND FREE ENERGY PREDICTED BY IDOCK:   -7.99 KCAL/MOL
REMARK 924 INTRA-LIGAND FREE ENERGY PREDICTED BY IDOCK:   -1.15 KCAL/MOL
REMARK 927      BINDING AFFINITY PREDICTED BY RF-SCORE:    0.00 PKD
ROOT
HETATM    1  C   UNL     1      -6.367   9.103  70.811  1.00  0.00    -0.064 C  
HETATM    2  C   UNL     1      -5.656  10.409  70.483  1.00  0.00    -0.083 C  
ENDROOT
BRANCH   2   3
HETATM    3  C   UNL     1      -5.609  10.687  68.976  1.00  0.00    -0.040 C  
BRANCH   3   4
HETATM    4  S   UNL     1      -6.009  12.448  68.686  1.00  0.00    -0.063 SA 
BRANCH   4   5
HETATM    5  C   UNL     1      -7.740  12.326  68.289  1.00  0.00    -0.143 A  
HETATM    6  N   UNL     1      -8.129  11.170  67.707  1.00  0.00    -0.115 NA 
HETATM    7  C   UNL     1      -9.443  11.167  67.422  1.00  0.00    -0.164 A  
HETATM    8  C   UNL     1     -10.342  12.187  67.670  1.00  0.00    -0.203 A  
HETATM    9  N   UNL     1     -11.595  11.810  67.273  1.00  0.00    -0.531 NA 
HETATM   10  C   UNL     1      -9.857  13.338  68.308  1.00  0.00    -0.231 A  
HETATM   11  N   UNL     1      -8.526  13.378  68.608  1.00  0.00    -0.064 NA 
HETATM   12  N   UNL     1     -11.521  10.568  66.803  1.00  0.00     0.021 NA 
HETATM   13  N   UNL     1     -10.229  10.162  66.918  1.00  0.00    -0.225 NA 
BRANCH  10  14
HETATM   14  N   UNL     1     -10.728  14.387  68.668  1.00  0.00    -0.246 NA 
HETATM   15  H   UNL     1     -11.739  14.274  68.597  1.00  0.00     0.000 HD 
BRANCH  14  16
HETATM   16  C   UNL     1     -10.144  15.641  69.147  1.00  0.00    -0.237 C  
HETATM   17  C   UNL     1     -10.762  16.969  68.766  1.00  0.00    -0.313 C  
HETATM   18  C   UNL     1     -10.849  16.466  70.182  1.00  0.00    -0.265 C  
BRANCH  17  19
HETATM   19  C   UNL     1      -9.836  18.087  68.354  1.00  0.00    -0.369 A  
HETATM   20  C   UNL     1      -7.623  19.041  68.020  1.00  0.00    -0.270 A  
HETATM   21  C   UNL     1      -8.438  17.973  68.397  1.00  0.00    -0.306 A  
HETATM   22  F   UNL     1      -6.293  18.895  68.060  1.00  0.00    -0.199 F  
HETATM   23  C   UNL     1      -8.185  20.241  67.602  1.00  0.00    -0.274 A  
HETATM   24  C   UNL     1     -10.378  19.319  67.933  1.00  0.00    -0.518 A  
HETATM   25  F   UNL     1      -7.398  21.263  67.244  1.00  0.00    -0.422 F  
HETATM   26  C   UNL     1      -9.562  20.389  67.558  1.00  0.00    -0.560 A  
ENDBRANCH  17  19
ENDBRANCH  14  16
ENDBRANCH  10  14
BRANCH  13  27
HETATM   27  C   UNL     1      -9.927   8.792  66.559  1.00  0.00    -0.290 C  
HETATM   28  C   UNL     1     -10.567   7.764  67.508  1.00  0.00    -0.319 C  
HETATM   29  C   UNL     1      -9.553   7.612  68.643  1.00  0.00    -0.152 C  
HETATM   30  H   UNL     1      -7.365   7.165  65.477  1.00  0.00     0.000 HD 
HETATM   31  C   UNL     1      -8.189   7.685  67.913  1.00  0.00    -0.123 C  
HETATM   32  H   UNL     1      -6.788   6.428  67.223  1.00  0.00     0.000 HD 
HETATM   33  O   UNL     1      -8.280   7.424  65.482  1.00  0.00    -0.125 OA 
HETATM   34  C   UNL     1      -8.457   8.376  66.551  1.00  0.00    -0.113 C  
HETATM   35  O   UNL     1      -7.624   6.383  67.671  1.00  0.00    -0.097 OA 
BRANCH  29  36
HETATM   36  O   UNL     1      -9.655   8.675  69.599  1.00  0.00    -0.167 OA 
BRANCH  36  37
HETATM   37  C   UNL     1     -10.176   8.259  70.870  1.00  0.00    -0.191 C  
BRANCH  37  38
HETATM   38  C   UNL     1     -11.680   8.518  70.920  1.00  0.00    -0.245 C  
HETATM   39  H   UNL     1     -13.215   7.896  71.975  1.00  0.00     0.000 HD 
HETATM   40  O   UNL     1     -12.279   7.735  71.945  1.00  0.00    -0.288 OA 
ENDBRANCH  37  38
ENDBRANCH  36  37
ENDBRANCH  29  36
ENDBRANCH  13  27
ENDBRANCH   4   5
ENDBRANCH   3   4
ENDBRANCH   2   3
TORSDOF 10
ENDMDL
MODEL      146
REMARK 921   NORMALIZED FREE ENERGY PREDICTED BY IDOCK:   -4.46 KCAL/MOL
REMARK 922        TOTAL FREE ENERGY PREDICTED BY IDOCK:   -9.14 KCAL/MOL
REMARK 923 INTER-LIGAND FREE ENERGY PREDICTED BY IDOCK:   -7.50 KCAL/MOL
REMARK 924 INTRA-LIGAND FREE ENERGY PREDICTED BY IDOCK:   -1.64 KCAL/MOL
REMARK 927      BINDING AFFINITY PREDICTED BY RF-SCORE:    0.00 PKD
ROOT
HETATM    1  C   UNL     1      -7.649  13.866  67.459  1.00  0.00    -0.190 C  
HETATM    2  C   UNL     1      -8.299  12.489  67.453  1.00  0.00    -0.182 C  
ENDROOT
BRANCH   2   3
HETATM    3  C   UNL     1      -7.309  11.375  67.098  1.00  0.00    -0.138 C  
BRANCH   3   4
HETATM    4  S   UNL     1      -7.996  10.388  65.721  1.00  0.00    -0.154 SA 
BRANCH   4   5
HETATM    5  C   UNL     1      -8.976   9.208  66.624  1.00  0.00    -0.137 A  
HETATM    6  N   UNL     1      -9.044   7.968  66.089  1.00  0.00    -0.183 NA 
HETATM    7  C   UNL     1      -9.818   7.147  66.819  1.00  0.00    -0.205 A  
HETATM    8  C   UNL     1     -10.489   7.466  67.984  1.00  0.00    -0.199 A  
HETATM    9  N   UNL     1     -11.146   6.365  68.459  1.00  0.00    -0.322 NA 
HETATM   10  C   UNL     1     -10.335   8.767  68.485  1.00  0.00    -0.199 A  
HETATM   11  N   UNL     1      -9.559   9.631  67.767  1.00  0.00    -0.137 NA 
HETATM   12  N   UNL     1     -10.890   5.349  67.641  1.00  0.00    -0.040 NA 
HETATM   13  N   UNL     1     -10.063   5.807  66.664  1.00  0.00    -0.180 NA 
BRANCH  10  14
HETATM   14  N   UNL     1     -10.921   9.144  69.711  1.00  0.00    -0.334 NA 
HETATM   15  H   UNL     1     -11.200   8.441  70.395  1.00  0.00     0.000 HD 
BRANCH  14  16
HETATM   16  C   UNL     1     -11.118  10.570  69.978  1.00  0.00    -0.308 C  
HETATM   17  C   UNL     1     -12.202  11.343  69.257  1.00  0.00    -0.271 C  
HETATM   18  C   UNL     1     -12.325  11.048  70.729  1.00  0.00    -0.496 C  
BRANCH  17  19
HETATM   19  C   UNL     1     -11.859  12.712  68.727  1.00  0.00    -0.341 A  
HETATM   20  C   UNL     1     -11.294  15.061  69.023  1.00  0.00    -0.290 A  
HETATM   21  C   UNL     1     -11.591  13.808  69.562  1.00  0.00    -0.355 A  
HETATM   22  F   UNL     1     -11.031  16.082  69.848  1.00  0.00    -0.250 F  
HETATM   23  C   UNL     1     -11.266  15.245  67.647  1.00  0.00    -0.320 A  
HETATM   24  C   UNL     1     -11.831  12.932  67.334  1.00  0.00    -0.418 A  
HETATM   25  F   UNL     1     -10.982  16.449  67.135  1.00  0.00    -0.307 F  
HETATM   26  C   UNL     1     -11.536  14.186  66.794  1.00  0.00    -0.409 A  
ENDBRANCH  17  19
ENDBRANCH  14  16
ENDBRANCH  10  14
BRANCH  13  27
HETATM   27  C   UNL     1      -9.565   4.840  65.707  1.00  0.00    -0.179 C  
HETATM   28  C   UNL     1      -9.084   3.535  66.362  1.00  0.00    -0.166 C  
HETATM   29  C   UNL     1      -7.625   3.810  66.732  1.00  0.00    -0.080 C  
HETATM   30  H   UNL     1      -7.789   4.908  63.020  1.00  0.00     0.000 HD 
HETATM   31  C   UNL     1      -7.112   4.659  65.542  1.00  0.00    -0.064 C  
HETATM   32  H   UNL     1      -6.066   4.396  63.853  1.00  0.00     0.000 HD 
HETATM   33  O   UNL     1      -8.534   4.653  63.552  1.00  0.00    -0.109 OA 
HETATM   34  C   UNL     1      -8.367   5.252  64.852  1.00  0.00    -0.144 C  
HETATM   35  O   UNL     1      -6.381   3.875  64.582  1.00  0.00    -0.026 OA 
BRANCH  29  36
HETATM   36  O   UNL     1      -7.513   4.556  67.951  1.00  0.00    -0.068 OA 
BRANCH  36  37
HETATM   37  C   UNL     1      -7.590   3.743  69.132  1.00  0.00    -0.053 C  
BRANCH  37  38
HETATM   38  C   UNL     1      -8.655   4.302  70.072  1.00  0.00    -0.068 C  
HETATM   39  H   UNL     1     -10.298   3.656  70.934  1.00  0.00     0.000 HD 
HETATM   40  O   UNL     1      -9.635   3.308  70.349  1.00  0.00    -0.177 OA 
ENDBRANCH  37  38
ENDBRANCH  36  37
ENDBRANCH  29  36
ENDBRANCH  13  27
ENDBRANCH   4   5
ENDBRANCH   3   4
ENDBRANCH   2   3
TORSDOF 10
ENDMDL
MODEL      147
REMARK 921   NORMALIZED FREE ENERGY PREDICTED BY IDOCK:   -4.44 KCAL/MOL
REMARK 922        TOTAL FREE ENERGY PREDICTED BY IDOCK:   -9.09 KCAL/MOL
REMARK 923 INTER-LIGAND FREE ENERGY PREDICTED BY IDOCK:   -7.72 KCAL/MOL
REMARK 924 INTRA-LIGAND FREE ENERGY PREDICTED BY IDOCK:   -1.37 KCAL/MOL
REMARK 927      BINDING AFFINITY PREDICTED BY RF-SCORE:    0.00 PKD
ROOT
HETATM    1  C   UNL     1     -13.074  13.961  65.455  1.00  0.00    -0.236 C  
HETATM    2  C   UNL     1     -12.279  12.962  64.626  1.00  0.00    -0.494 C  
ENDROOT
BRANCH   2   3
HETATM    3  C   UNL     1     -10.853  13.443  64.338  1.00  0.00    -0.406 C  
BRANCH   3   4
HETATM    4  S   UNL     1     -10.683  15.170  64.914  1.00  0.00    -0.339 SA 
BRANCH   4   5
HETATM    5  C   UNL     1      -9.419  14.977  66.152  1.00  0.00    -0.313 A  
HETATM    6  N   UNL     1      -8.411  15.877  66.108  1.00  0.00    -0.275 NA 
HETATM    7  C   UNL     1      -7.491  15.649  67.062  1.00  0.00    -0.193 A  
HETATM    8  C   UNL     1      -7.514  14.638  68.004  1.00  0.00    -0.131 A  
HETATM    9  N   UNL     1      -6.428  14.745  68.827  1.00  0.00    -0.084 NA 
HETATM   10  C   UNL     1      -8.616  13.770  67.996  1.00  0.00    -0.177 A  
HETATM   11  N   UNL     1      -9.568  13.969  67.039  1.00  0.00    -0.244 NA 
HETATM   12  N   UNL     1      -5.729  15.811  68.449  1.00  0.00    -0.104 NA 
HETATM   13  N   UNL     1      -6.382  16.380  67.402  1.00  0.00    -0.157 NA 
BRANCH  10  14
HETATM   14  N   UNL     1      -8.751  12.766  68.977  1.00  0.00    -0.219 NA 
HETATM   15  H   UNL     1      -8.932  13.007  69.952  1.00  0.00     0.000 HD 
BRANCH  14  16
HETATM   16  C   UNL     1      -8.626  11.367  68.562  1.00  0.00    -0.150 C  
HETATM   17  C   UNL     1      -7.400  10.898  67.809  1.00  0.00    -0.093 C  
HETATM   18  C   UNL     1      -7.639  10.457  69.229  1.00  0.00    -0.132 C  
BRANCH  17  19
HETATM   19  C   UNL     1      -7.604   9.983  66.627  1.00  0.00    -0.104 A  
HETATM   20  C   UNL     1      -7.602   9.511  64.240  1.00  0.00    -0.122 A  
HETATM   21  C   UNL     1      -7.384  10.390  65.302  1.00  0.00    -0.108 A  
HETATM   22  F   UNL     1      -7.370   9.926  62.988  1.00  0.00    -0.109 F  
HETATM   23  C   UNL     1      -8.050   8.217  64.478  1.00  0.00    -0.146 A  
HETATM   24  C   UNL     1      -8.066   8.667  66.838  1.00  0.00    -0.098 A  
HETATM   25  F   UNL     1      -8.259   7.379  63.456  1.00  0.00    -0.129 F  
HETATM   26  C   UNL     1      -8.287   7.788  65.775  1.00  0.00    -0.140 A  
ENDBRANCH  17  19
ENDBRANCH  14  16
ENDBRANCH  10  14
BRANCH  13  27
HETATM   27  C   UNL     1      -5.853  17.625  66.885  1.00  0.00    -0.155 C  
HETATM   28  C   UNL     1      -5.758  18.730  67.951  1.00  0.00    -0.190 C  
HETATM   29  C   UNL     1      -7.136  19.394  67.936  1.00  0.00    -0.256 C  
HETATM   30  H   UNL     1      -6.159  19.358  64.186  1.00  0.00     0.000 HD 
HETATM   31  C   UNL     1      -7.513  19.391  66.433  1.00  0.00    -0.260 C  
HETATM   32  H   UNL     1      -7.487  20.655  64.878  1.00  0.00     0.000 HD 
HETATM   33  O   UNL     1      -5.675  18.934  64.885  1.00  0.00    -0.218 OA 
HETATM   34  C   UNL     1      -6.633  18.306  65.761  1.00  0.00    -0.282 C  
HETATM   35  O   UNL     1      -7.255  20.657  65.799  1.00  0.00    -0.133 OA 
BRANCH  29  36
HETATM   36  O   UNL     1      -8.101  18.643  68.685  1.00  0.00    -0.327 OA 
BRANCH  36  37
HETATM   37  C   UNL     1      -9.335  19.345  68.898  1.00  0.00    -0.361 C  
BRANCH  37  38
HETATM   38  C   UNL     1     -10.429  18.740  68.022  1.00  0.00    -0.352 C  
HETATM   39  H   UNL     1     -11.564  19.322  66.529  1.00  0.00     0.000 HD 
HETATM   40  O   UNL     1     -10.883  19.699  67.074  1.00  0.00    -0.487 OA 
ENDBRANCH  37  38
ENDBRANCH  36  37
ENDBRANCH  29  36
ENDBRANCH  13  27
ENDBRANCH   4   5
ENDBRANCH   3   4
ENDBRANCH   2   3
TORSDOF 10
ENDMDL
MODEL      148
REMARK 921   NORMALIZED FREE ENERGY PREDICTED BY IDOCK:   -4.43 KCAL/MOL
REMARK 922        TOTAL FREE ENERGY PREDICTED BY IDOCK:   -9.08 KCAL/MOL
REMARK 923 INTER-LIGAND FREE ENERGY PREDICTED BY IDOCK:   -7.35 KCAL/MOL
REMARK 924 INTRA-LIGAND FREE ENERGY PREDICTED BY IDOCK:   -1.73 KCAL/MOL
REMARK 927      BINDING AFFINITY PREDICTED BY RF-SCORE:    0.00 PKD
ROOT
HETATM    1  C   UNL     1      -7.612   6.475  70.953  1.00  0.00    -0.089 C  
HETATM    2  C   UNL     1      -8.861   7.041  70.291  1.00  0.00    -0.148 C  
ENDROOT
BRANCH   2   3
HETATM    3  C   UNL     1      -8.598   8.378  69.591  1.00  0.00    -0.132 C  
BRANCH   3   4
HETATM    4  S   UNL     1      -9.797   9.615  70.206  1.00  0.00    -0.246 SA 
BRANCH   4   5
HETATM    5  C   UNL     1      -9.827  10.748  68.834  1.00  0.00    -0.199 A  
HETATM    6  N   UNL     1     -10.607  11.841  68.992  1.00  0.00    -0.178 NA 
HETATM    7  C   UNL     1     -10.590  12.633  67.906  1.00  0.00    -0.220 A  
HETATM    8  C   UNL     1      -9.882  12.416  66.739  1.00  0.00    -0.222 A  
HETATM    9  N   UNL     1     -10.086  13.453  65.872  1.00  0.00    -0.291 NA 
HETATM   10  C   UNL     1      -9.073  11.273  66.675  1.00  0.00    -0.179 A  
HETATM   11  N   UNL     1      -9.069  10.443  67.759  1.00  0.00    -0.131 NA 
HETATM   12  N   UNL     1     -10.885  14.335  66.465  1.00  0.00    -0.300 NA 
HETATM   13  N   UNL     1     -11.169  13.860  67.707  1.00  0.00    -0.282 NA 
BRANCH  10  14
HETATM   14  N   UNL     1      -8.257  11.026  65.551  1.00  0.00    -0.351 NA 
HETATM   15  H   UNL     1      -8.120  11.741  64.838  1.00  0.00     0.000 HD 
BRANCH  14  16
HETATM   16  C   UNL     1      -7.612   9.716  65.435  1.00  0.00    -0.111 C  
HETATM   17  C   UNL     1      -8.421   8.495  65.055  1.00  0.00    -0.183 C  
HETATM   18  C   UNL     1      -7.419   9.076  64.093  1.00  0.00    -0.110 C  
BRANCH  17  19
HETATM   19  C   UNL     1      -8.172   7.217  65.817  1.00  0.00    -0.135 A  
HETATM   20  C   UNL     1      -8.916   5.152  66.867  1.00  0.00    -0.109 A  
HETATM   21  C   UNL     1      -9.195   6.315  66.146  1.00  0.00    -0.143 A  
HETATM   22  F   UNL     1      -9.913   4.306  67.154  1.00  0.00    -0.221 F  
HETATM   23  C   UNL     1      -7.619   4.874  67.279  1.00  0.00    -0.087 A  
HETATM   24  C   UNL     1      -6.866   6.912  66.254  1.00  0.00    -0.064 A  
HETATM   25  F   UNL     1      -7.357   3.759  67.972  1.00  0.00    -0.059 F  
HETATM   26  C   UNL     1      -6.588   5.751  66.979  1.00  0.00    -0.056 A  
ENDBRANCH  17  19
ENDBRANCH  14  16
ENDBRANCH  10  14
BRANCH  13  27
HETATM   27  C   UNL     1     -11.948  14.711  68.583  1.00  0.00    -0.270 C  
HETATM   28  C   UNL     1     -11.635  16.207  68.407  1.00  0.00    -0.228 C  
HETATM   29  C   UNL     1     -10.449  16.459  69.339  1.00  0.00    -0.309 C  
HETATM   30  H   UNL     1     -12.968  14.619  71.637  1.00  0.00     0.000 HD 
HETATM   31  C   UNL     1     -10.771  15.574  70.569  1.00  0.00    -0.284 C  
HETATM   32  H   UNL     1     -11.557  15.780  72.401  1.00  0.00     0.000 HD 
HETATM   33  O   UNL     1     -13.069  14.746  70.701  1.00  0.00    -0.356 OA 
HETATM   34  C   UNL     1     -11.786  14.506  70.088  1.00  0.00    -0.297 C  
HETATM   35  O   UNL     1     -11.360  16.323  71.648  1.00  0.00    -0.312 OA 
BRANCH  29  36
HETATM   36  O   UNL     1      -9.208  16.049  68.751  1.00  0.00    -0.201 OA 
BRANCH  36  37
HETATM   37  C   UNL     1      -8.667  17.004  67.826  1.00  0.00    -0.222 C  
BRANCH  37  38
HETATM   38  C   UNL     1      -8.580  18.375  68.493  1.00  0.00    -0.319 C  
HETATM   39  H   UNL     1      -9.385  20.149  68.248  1.00  0.00     0.000 HD 
HETATM   40  O   UNL     1      -9.440  19.296  67.833  1.00  0.00    -0.305 OA 
ENDBRANCH  37  38
ENDBRANCH  36  37
ENDBRANCH  29  36
ENDBRANCH  13  27
ENDBRANCH   4   5
ENDBRANCH   3   4
ENDBRANCH   2   3
TORSDOF 10
ENDMDL
MODEL      149
REMARK 921   NORMALIZED FREE ENERGY PREDICTED BY IDOCK:   -4.43 KCAL/MOL
REMARK 922        TOTAL FREE ENERGY PREDICTED BY IDOCK:   -9.08 KCAL/MOL
REMARK 923 INTER-LIGAND FREE ENERGY PREDICTED BY IDOCK:   -7.60 KCAL/MOL
REMARK 924 INTRA-LIGAND FREE ENERGY PREDICTED BY IDOCK:   -1.47 KCAL/MOL
REMARK 927      BINDING AFFINITY PREDICTED BY RF-SCORE:    0.00 PKD
ROOT
HETATM    1  C   UNL     1      -6.109   9.258  70.394  1.00  0.00    -0.046 C  
HETATM    2  C   UNL     1      -5.604  10.459  69.606  1.00  0.00    -0.039 C  
ENDROOT
BRANCH   2   3
HETATM    3  C   UNL     1      -5.217  10.095  68.169  1.00  0.00    -0.035 C  
BRANCH   3   4
HETATM    4  S   UNL     1      -5.929  11.337  67.031  1.00  0.00    -0.115 SA 
BRANCH   4   5
HETATM    5  C   UNL     1      -7.666  11.112  67.349  1.00  0.00    -0.120 A  
HETATM    6  N   UNL     1      -8.302  12.165  67.910  1.00  0.00    -0.151 NA 
HETATM    7  C   UNL     1      -9.601  11.906  68.135  1.00  0.00    -0.195 A  
HETATM    8  C   UNL     1     -10.269  10.729  67.851  1.00  0.00    -0.176 A  
HETATM    9  N   UNL     1     -11.588  10.849  68.189  1.00  0.00    -0.501 NA 
HETATM   10  C   UNL     1      -9.537   9.701  67.239  1.00  0.00    -0.164 A  
HETATM   11  N   UNL     1      -8.213   9.927  66.999  1.00  0.00    -0.117 NA 
HETATM   12  N   UNL     1     -11.782  12.078  68.658  1.00  0.00    -0.309 NA 
HETATM   13  N   UNL     1     -10.592  12.732  68.600  1.00  0.00    -0.248 NA 
BRANCH  10  14
HETATM   14  N   UNL     1     -10.166   8.503  66.843  1.00  0.00    -0.290 NA 
HETATM   15  H   UNL     1     -10.934   8.512  66.172  1.00  0.00     0.000 HD 
BRANCH  14  16
HETATM   16  C   UNL     1      -9.690   7.244  67.420  1.00  0.00    -0.150 C  
HETATM   17  C   UNL     1     -10.667   6.144  67.774  1.00  0.00    -0.382 C  
HETATM   18  C   UNL     1      -9.717   5.977  66.618  1.00  0.00    -0.189 C  
BRANCH  17  19
HETATM   19  C   UNL     1     -10.482   5.432  69.091  1.00  0.00    -0.277 A  
HETATM   20  C   UNL     1      -9.559   3.650  70.468  1.00  0.00    -0.186 A  
HETATM   21  C   UNL     1      -9.688   4.283  69.230  1.00  0.00    -0.240 A  
HETATM   22  F   UNL     1      -8.783   2.564  70.570  1.00  0.00    -0.079 F  
HETATM   23  C   UNL     1     -10.226   4.143  71.582  1.00  0.00    -0.063 A  
HETATM   24  C   UNL     1     -11.153   5.905  70.238  1.00  0.00    -0.368 A  
HETATM   25  F   UNL     1     -10.101   3.531  72.766  1.00  0.00    -0.182 F  
HETATM   26  C   UNL     1     -11.027   5.269  71.475  1.00  0.00    -0.100 A  
ENDBRANCH  17  19
ENDBRANCH  14  16
ENDBRANCH  10  14
BRANCH  13  27
HETATM   27  C   UNL     1     -10.584  14.133  68.968  1.00  0.00    -0.213 C  
HETATM   28  C   UNL     1     -11.917  14.843  68.672  1.00  0.00    -0.276 C  
HETATM   29  C   UNL     1     -11.790  15.300  67.218  1.00  0.00     0.038 C  
HETATM   30  H   UNL     1      -8.498  16.583  68.810  1.00  0.00     0.000 HD 
HETATM   31  C   UNL     1     -10.305  15.730  67.110  1.00  0.00    -0.291 C  
HETATM   32  H   UNL     1      -9.224  17.417  67.165  1.00  0.00     0.000 HD 
HETATM   33  O   UNL     1      -9.135  16.023  69.238  1.00  0.00    -0.246 OA 
HETATM   34  C   UNL     1      -9.561  15.034  68.278  1.00  0.00    -0.210 C  
HETATM   35  O   UNL     1     -10.134  17.154  67.232  1.00  0.00    -0.278 OA 
BRANCH  29  36
HETATM   36  O   UNL     1     -12.061  14.236  66.297  1.00  0.00    -0.415 OA 
BRANCH  36  37
HETATM   37  C   UNL     1     -11.196  14.235  65.150  1.00  0.00    -0.345 C  
BRANCH  37  38
HETATM   38  C   UNL     1     -11.447  12.979  64.319  1.00  0.00    -0.381 C  
HETATM   39  H   UNL     1     -10.670  11.184  64.151  1.00  0.00     0.000 HD 
HETATM   40  O   UNL     1     -10.513  11.965  64.669  1.00  0.00    -0.267 OA 
ENDBRANCH  37  38
ENDBRANCH  36  37
ENDBRANCH  29  36
ENDBRANCH  13  27
ENDBRANCH   4   5
ENDBRANCH   3   4
ENDBRANCH   2   3
TORSDOF 10
ENDMDL
MODEL      150
REMARK 921   NORMALIZED FREE ENERGY PREDICTED BY IDOCK:   -4.41 KCAL/MOL
REMARK 922        TOTAL FREE ENERGY PREDICTED BY IDOCK:   -9.06 KCAL/MOL
REMARK 923 INTER-LIGAND FREE ENERGY PREDICTED BY IDOCK:   -7.72 KCAL/MOL
REMARK 924 INTRA-LIGAND FREE ENERGY PREDICTED BY IDOCK:   -1.34 KCAL/MOL
REMARK 927      BINDING AFFINITY PREDICTED BY RF-SCORE:    0.00 PKD
ROOT
HETATM    1  C   UNL     1      -7.652   5.067  63.976  1.00  0.00    -0.067 C  
HETATM    2  C   UNL     1      -7.873   4.544  65.388  1.00  0.00    -0.090 C  
ENDROOT
BRANCH   2   3
HETATM    3  C   UNL     1      -7.452   5.555  66.460  1.00  0.00    -0.087 C  
BRANCH   3   4
HETATM    4  S   UNL     1      -7.442   4.723  68.088  1.00  0.00    -0.074 SA 
BRANCH   4   5
HETATM    5  C   UNL     1      -8.870   5.470  68.844  1.00  0.00    -0.107 A  
HETATM    6  N   UNL     1      -9.286   4.904  70.000  1.00  0.00    -0.132 NA 
HETATM    7  C   UNL     1     -10.378   5.513  70.493  1.00  0.00    -0.272 A  
HETATM    8  C   UNL     1     -11.042   6.591  69.939  1.00  0.00    -0.371 A  
HETATM    9  N   UNL     1     -12.088   6.956  70.740  1.00  0.00    -0.377 NA 
HETATM   10  C   UNL     1     -10.520   7.135  68.756  1.00  0.00    -0.202 A  
HETATM   11  N   UNL     1      -9.414   6.539  68.223  1.00  0.00    -0.120 NA 
HETATM   12  N   UNL     1     -12.092   6.155  71.801  1.00  0.00    -0.209 NA 
HETATM   13  N   UNL     1     -11.043   5.300  71.674  1.00  0.00    -0.060 NA 
BRANCH  10  14
HETATM   14  N   UNL     1     -11.092   8.286  68.175  1.00  0.00    -0.340 NA 
HETATM   15  H   UNL     1     -11.826   8.206  67.471  1.00  0.00     0.000 HD 
BRANCH  14  16
HETATM   16  C   UNL     1     -10.607   9.597  68.609  1.00  0.00    -0.217 C  
HETATM   17  C   UNL     1     -11.398  10.416  69.606  1.00  0.00    -0.333 C  
HETATM   18  C   UNL     1     -10.083   9.797  69.999  1.00  0.00    -0.301 C  
BRANCH  17  19
HETATM   19  C   UNL     1     -11.556  11.893  69.340  1.00  0.00    -0.388 A  
HETATM   20  C   UNL     1     -11.394  13.856  67.913  1.00  0.00    -0.292 A  
HETATM   21  C   UNL     1     -11.245  12.482  68.105  1.00  0.00    -0.312 A  
HETATM   22  F   UNL     1     -11.101  14.385  66.718  1.00  0.00    -0.297 F  
HETATM   23  C   UNL     1     -11.845  14.667  68.947  1.00  0.00    -0.309 A  
HETATM   24  C   UNL     1     -12.005  12.741  70.374  1.00  0.00    -0.331 A  
HETATM   25  F   UNL     1     -11.984  15.985  68.758  1.00  0.00    -0.390 F  
HETATM   26  C   UNL     1     -12.151  14.117  70.182  1.00  0.00    -0.411 A  
ENDBRANCH  17  19
ENDBRANCH  14  16
ENDBRANCH  10  14
BRANCH  13  27
HETATM   27  C   UNL     1     -10.786   4.393  72.773  1.00  0.00    -0.158 C  
HETATM   28  C   UNL     1     -10.544   5.116  74.109  1.00  0.00    -0.322 C  
HETATM   29  C   UNL     1      -9.046   5.424  74.110  1.00  0.00    -0.118 C  
HETATM   30  H   UNL     1      -9.147   1.655  73.216  1.00  0.00     0.000 HD 
HETATM   31  C   UNL     1      -8.426   4.166  73.450  1.00  0.00    -0.089 C  
HETATM   32  H   UNL     1      -7.525   2.467  74.013  1.00  0.00     0.000 HD 
HETATM   33  O   UNL     1      -9.904   2.224  73.287  1.00  0.00    -0.093 OA 
HETATM   34  C   UNL     1      -9.568   3.478  72.659  1.00  0.00    -0.134 C  
HETATM   35  O   UNL     1      -7.905   3.237  74.418  1.00  0.00    -0.060 OA 
BRANCH  29  36
HETATM   36  O   UNL     1      -8.737   6.588  73.332  1.00  0.00    -0.123 OA 
BRANCH  36  37
HETATM   37  C   UNL     1      -7.495   6.490  72.618  1.00  0.00    -0.094 C  
BRANCH  37  38
HETATM   38  C   UNL     1      -7.250   7.777  71.835  1.00  0.00    -0.069 C  
HETATM   39  H   UNL     1      -7.547   9.700  72.097  1.00  0.00     0.000 HD 
HETATM   40  O   UNL     1      -7.699   8.900  72.585  1.00  0.00    -0.366 OA 
ENDBRANCH  37  38
ENDBRANCH  36  37
ENDBRANCH  29  36
ENDBRANCH  13  27
ENDBRANCH   4   5
ENDBRANCH   3   4
ENDBRANCH   2   3
TORSDOF 10
ENDMDL
MODEL      151
REMARK 921   NORMALIZED FREE ENERGY PREDICTED BY IDOCK:   -4.41 KCAL/MOL
REMARK 922        TOTAL FREE ENERGY PREDICTED BY IDOCK:   -9.06 KCAL/MOL
REMARK 923 INTER-LIGAND FREE ENERGY PREDICTED BY IDOCK:   -7.76 KCAL/MOL
REMARK 924 INTRA-LIGAND FREE ENERGY PREDICTED BY IDOCK:   -1.30 KCAL/MOL
REMARK 927      BINDING AFFINITY PREDICTED BY RF-SCORE:    0.00 PKD
ROOT
HETATM    1  C   UNL     1      -9.854   6.466  74.252  1.00  0.00    -0.320 C  
HETATM    2  C   UNL     1     -10.219   5.022  74.566  1.00  0.00    -0.305 C  
ENDROOT
BRANCH   2   3
HETATM    3  C   UNL     1     -10.832   4.298  73.362  1.00  0.00    -0.253 C  
BRANCH   3   4
HETATM    4  S   UNL     1      -9.514   3.957  72.141  1.00  0.00    -0.140 SA 
BRANCH   4   5
HETATM    5  C   UNL     1     -10.082   4.937  70.768  1.00  0.00    -0.233 A  
HETATM    6  N   UNL     1      -9.773   4.462  69.540  1.00  0.00    -0.205 NA 
HETATM    7  C   UNL     1     -10.219   5.268  68.562  1.00  0.00    -0.144 A  
HETATM    8  C   UNL     1     -10.916   6.451  68.722  1.00  0.00    -0.334 A  
HETATM    9  N   UNL     1     -11.230   6.976  67.499  1.00  0.00    -0.140 NA 
HETATM   10  C   UNL     1     -11.222   6.851  70.031  1.00  0.00    -0.299 A  
HETATM   11  N   UNL     1     -10.781   6.057  71.051  1.00  0.00    -0.252 NA 
HETATM   12  N   UNL     1     -10.773   6.146  66.566  1.00  0.00    -0.197 NA 
HETATM   13  N   UNL     1     -10.188   5.097  67.201  1.00  0.00    -0.209 NA 
BRANCH  10  14
HETATM   14  N   UNL     1     -12.001   8.001  70.273  1.00  0.00    -0.424 NA 
HETATM   15  H   UNL     1     -12.998   7.925  70.472  1.00  0.00     0.000 HD 
BRANCH  14  16
HETATM   16  C   UNL     1     -11.342   9.308  70.231  1.00  0.00    -0.203 C  
HETATM   17  C   UNL     1     -12.144  10.578  70.421  1.00  0.00    -0.418 C  
HETATM   18  C   UNL     1     -11.175  10.120  71.480  1.00  0.00     0.171 C  
BRANCH  17  19
HETATM   19  C   UNL     1     -11.857  11.739  69.502  1.00  0.00    -0.402 A  
HETATM   20  C   UNL     1     -11.330  12.685  67.323  1.00  0.00    -0.318 A  
HETATM   21  C   UNL     1     -11.605  11.580  68.131  1.00  0.00    -0.378 A  
HETATM   22  F   UNL     1     -11.106  12.500  66.016  1.00  0.00    -0.287 F  
HETATM   23  C   UNL     1     -11.293  13.962  67.868  1.00  0.00    -0.292 A  
HETATM   24  C   UNL     1     -11.806  13.046  70.028  1.00  0.00    -0.355 A  
HETATM   25  F   UNL     1     -11.026  15.018  67.089  1.00  0.00    -0.297 F  
HETATM   26  C   UNL     1     -11.527  14.151  69.221  1.00  0.00    -0.337 A  
ENDBRANCH  17  19
ENDBRANCH  14  16
ENDBRANCH  10  14
BRANCH  13  27
HETATM   27  C   UNL     1      -9.704   4.007  66.379  1.00  0.00    -0.188 C  
HETATM   28  C   UNL     1      -8.189   3.777  66.512  1.00  0.00    -0.100 C  
HETATM   29  C   UNL     1      -7.569   4.728  65.486  1.00  0.00    -0.085 C  
HETATM   30  H   UNL     1     -10.272   2.879  63.415  1.00  0.00     0.000 HD 
HETATM   31  C   UNL     1      -8.558   4.660  64.296  1.00  0.00    -0.139 C  
HETATM   32  H   UNL     1      -8.716   3.728  62.529  1.00  0.00     0.000 HD 
HETATM   33  O   UNL     1     -10.152   2.805  64.355  1.00  0.00    -0.098 OA 
HETATM   34  C   UNL     1      -9.897   4.128  64.868  1.00  0.00    -0.197 C  
HETATM   35  O   UNL     1      -8.110   3.769  63.258  1.00  0.00    -0.081 OA 
BRANCH  29  36
HETATM   36  O   UNL     1      -7.489   6.071  65.981  1.00  0.00    -0.082 OA 
BRANCH  36  37
HETATM   37  C   UNL     1      -7.923   7.059  65.034  1.00  0.00    -0.129 C  
BRANCH  37  38
HETATM   38  C   UNL     1      -6.716   7.831  64.506  1.00  0.00    -0.052 C  
HETATM   39  H   UNL     1      -4.942   8.355  65.164  1.00  0.00     0.000 HD 
HETATM   40  O   UNL     1      -5.693   7.874  65.493  1.00  0.00    -0.036 OA 
ENDBRANCH  37  38
ENDBRANCH  36  37
ENDBRANCH  29  36
ENDBRANCH  13  27
ENDBRANCH   4   5
ENDBRANCH   3   4
ENDBRANCH   2   3
TORSDOF 10
ENDMDL
MODEL      152
REMARK 921   NORMALIZED FREE ENERGY PREDICTED BY IDOCK:   -4.37 KCAL/MOL
REMARK 922        TOTAL FREE ENERGY PREDICTED BY IDOCK:   -9.00 KCAL/MOL
REMARK 923 INTER-LIGAND FREE ENERGY PREDICTED BY IDOCK:   -7.41 KCAL/MOL
REMARK 924 INTRA-LIGAND FREE ENERGY PREDICTED BY IDOCK:   -1.58 KCAL/MOL
REMARK 927      BINDING AFFINITY PREDICTED BY RF-SCORE:    0.00 PKD
ROOT
HETATM    1  C   UNL     1     -11.691  12.279  65.781  1.00  0.00    -0.445 C  
HETATM    2  C   UNL     1     -10.474  12.090  64.886  1.00  0.00    -0.325 C  
ENDROOT
BRANCH   2   3
HETATM    3  C   UNL     1     -10.828  11.431  63.548  1.00  0.00    -0.353 C  
BRANCH   3   4
HETATM    4  S   UNL     1      -9.512  10.240  63.107  1.00  0.00    -0.250 SA 
BRANCH   4   5
HETATM    5  C   UNL     1      -8.702  10.054  64.681  1.00  0.00    -0.191 A  
HETATM    6  N   UNL     1      -9.005   8.931  65.369  1.00  0.00    -0.198 NA 
HETATM    7  C   UNL     1      -8.369   8.877  66.552  1.00  0.00    -0.115 A  
HETATM    8  C   UNL     1      -7.496   9.820  67.061  1.00  0.00    -0.091 A  
HETATM    9  N   UNL     1      -7.020   9.407  68.274  1.00  0.00    -0.071 NA 
HETATM   10  C   UNL     1      -7.213  10.939  66.264  1.00  0.00    -0.126 A  
HETATM   11  N   UNL     1      -7.845  11.029  65.057  1.00  0.00     0.233 NA 
HETATM   12  N   UNL     1      -7.548   8.216  68.538  1.00  0.00    -0.102 NA 
HETATM   13  N   UNL     1      -8.340   7.876  67.488  1.00  0.00    -0.123 NA 
BRANCH  10  14
HETATM   14  N   UNL     1      -6.270  11.902  66.678  1.00  0.00    -0.414 NA 
HETATM   15  H   UNL     1      -5.277  11.779  66.483  1.00  0.00     0.000 HD 
BRANCH  14  16
HETATM   16  C   UNL     1      -6.754  13.084  67.395  1.00  0.00    -0.115 C  
HETATM   17  C   UNL     1      -8.230  13.255  67.684  1.00  0.00    -0.179 C  
HETATM   18  C   UNL     1      -7.260  12.971  68.801  1.00  0.00    -0.082 C  
BRANCH  17  19
HETATM   19  C   UNL     1      -8.840  14.616  67.462  1.00  0.00    -0.191 A  
HETATM   20  C   UNL     1      -8.753  16.916  66.673  1.00  0.00    -0.247 A  
HETATM   21  C   UNL     1      -8.149  15.669  66.843  1.00  0.00    -0.290 A  
HETATM   22  F   UNL     1      -8.071  17.896  66.067  1.00  0.00    -0.277 F  
HETATM   23  C   UNL     1     -10.047  17.139  67.125  1.00  0.00    -0.295 A  
HETATM   24  C   UNL     1     -10.150  14.873  67.917  1.00  0.00    -0.227 A  
HETATM   25  F   UNL     1     -10.620  18.337  66.962  1.00  0.00    -0.368 F  
HETATM   26  C   UNL     1     -10.753  16.122  67.751  1.00  0.00    -0.325 A  
ENDBRANCH  17  19
ENDBRANCH  14  16
ENDBRANCH  10  14
BRANCH  13  27
HETATM   27  C   UNL     1      -8.945   6.559  67.508  1.00  0.00    -0.110 C  
HETATM   28  C   UNL     1     -10.482   6.601  67.482  1.00  0.00    -0.299 C  
HETATM   29  C   UNL     1     -10.885   6.728  68.951  1.00  0.00    -0.243 C  
HETATM   30  H   UNL     1      -8.400   3.756  68.999  1.00  0.00     0.000 HD 
HETATM   31  C   UNL     1      -9.855   5.830  69.681  1.00  0.00    -0.176 C  
HETATM   32  H   UNL     1      -9.749   3.975  70.433  1.00  0.00     0.000 HD 
HETATM   33  O   UNL     1      -8.583   4.309  68.248  1.00  0.00    -0.092 OA 
HETATM   34  C   UNL     1      -8.651   5.671  68.716  1.00  0.00    -0.104 C  
HETATM   35  O   UNL     1     -10.381   4.526  69.986  1.00  0.00    -0.144 OA 
BRANCH  29  36
HETATM   36  O   UNL     1     -10.778   8.078  69.421  1.00  0.00    -0.224 OA 
BRANCH  36  37
HETATM   37  C   UNL     1     -10.745   8.188  70.853  1.00  0.00    -0.221 C  
BRANCH  37  38
HETATM   38  C   UNL     1     -12.089   8.703  71.360  1.00  0.00    -0.303 C  
HETATM   39  H   UNL     1     -13.019  10.429  71.475  1.00  0.00     0.000 HD 
HETATM   40  O   UNL     1     -12.183  10.108  71.158  1.00  0.00    -0.327 OA 
ENDBRANCH  37  38
ENDBRANCH  36  37
ENDBRANCH  29  36
ENDBRANCH  13  27
ENDBRANCH   4   5
ENDBRANCH   3   4
ENDBRANCH   2   3
TORSDOF 10
ENDMDL
MODEL      153
REMARK 921   NORMALIZED FREE ENERGY PREDICTED BY IDOCK:   -4.37 KCAL/MOL
REMARK 922        TOTAL FREE ENERGY PREDICTED BY IDOCK:   -8.98 KCAL/MOL
REMARK 923 INTER-LIGAND FREE ENERGY PREDICTED BY IDOCK:   -7.67 KCAL/MOL
REMARK 924 INTRA-LIGAND FREE ENERGY PREDICTED BY IDOCK:   -1.31 KCAL/MOL
REMARK 927      BINDING AFFINITY PREDICTED BY RF-SCORE:    0.00 PKD
ROOT
HETATM    1  C   UNL     1     -11.818  15.890  69.386  1.00  0.00    -0.325 C  
HETATM    2  C   UNL     1     -11.604  14.895  68.254  1.00  0.00    -0.356 C  
ENDROOT
BRANCH   2   3
HETATM    3  C   UNL     1     -12.026  13.473  68.637  1.00  0.00    -0.343 C  
BRANCH   3   4
HETATM    4  S   UNL     1     -11.541  12.329  67.295  1.00  0.00    -0.338 SA 
BRANCH   4   5
HETATM    5  C   UNL     1     -10.480  11.213  68.187  1.00  0.00    -0.189 A  
HETATM    6  N   UNL     1     -10.976  10.734  69.350  1.00  0.00    -0.237 NA 
HETATM    7  C   UNL     1     -10.106   9.917  69.969  1.00  0.00    -0.260 A  
HETATM    8  C   UNL     1      -8.845   9.566  69.525  1.00  0.00    -0.179 A  
HETATM    9  N   UNL     1      -8.269   8.690  70.403  1.00  0.00    -0.111 NA 
HETATM   10  C   UNL     1      -8.426  10.084  68.291  1.00  0.00    -0.111 A  
HETATM   11  N   UNL     1      -9.282  10.921  67.636  1.00  0.00    -0.151 NA 
HETATM   12  N   UNL     1      -9.139   8.456  71.380  1.00  0.00    -0.168 NA 
HETATM   13  N   UNL     1     -10.263   9.170  71.109  1.00  0.00    -0.289 NA 
BRANCH  10  14
HETATM   14  N   UNL     1      -7.187   9.707  67.732  1.00  0.00    -0.085 NA 
HETATM   15  H   UNL     1      -6.413  10.369  67.680  1.00  0.00     0.000 HD 
BRANCH  14  16
HETATM   16  C   UNL     1      -7.040   8.340  67.227  1.00  0.00    -0.079 C  
HETATM   17  C   UNL     1      -8.112   7.726  66.353  1.00  0.00    -0.109 C  
HETATM   18  C   UNL     1      -6.770   8.087  65.774  1.00  0.00    -0.048 C  
BRANCH  17  19
HETATM   19  C   UNL     1      -8.522   6.302  66.633  1.00  0.00    -0.114 A  
HETATM   20  C   UNL     1      -9.504   4.173  65.983  1.00  0.00    -0.180 A  
HETATM   21  C   UNL     1      -9.128   5.480  65.670  1.00  0.00    -0.131 A  
HETATM   22  F   UNL     1     -10.068   3.410  65.037  1.00  0.00    -0.152 F  
HETATM   23  C   UNL     1      -9.291   3.665  67.258  1.00  0.00    -0.202 A  
HETATM   24  C   UNL     1      -8.326   5.763  67.921  1.00  0.00    -0.104 A  
HETATM   25  F   UNL     1      -9.655   2.411  67.553  1.00  0.00    -0.213 F  
HETATM   26  C   UNL     1      -8.704   4.455  68.235  1.00  0.00    -0.116 A  
ENDBRANCH  17  19
ENDBRANCH  14  16
ENDBRANCH  10  14
BRANCH  13  27
HETATM   27  C   UNL     1     -11.397   8.989  71.993  1.00  0.00    -0.324 C  
HETATM   28  C   UNL     1     -11.295   7.718  72.852  1.00  0.00    -0.406 C  
HETATM   29  C   UNL     1     -11.897   6.618  71.977  1.00  0.00    -0.324 C  
HETATM   30  H   UNL     1     -14.587   9.402  71.823  1.00  0.00     0.000 HD 
HETATM   31  C   UNL     1     -13.073   7.334  71.266  1.00  0.00    -0.307 C  
HETATM   32  H   UNL     1     -15.059   7.512  71.462  1.00  0.00     0.000 HD 
HETATM   33  O   UNL     1     -13.730   9.487  72.224  1.00  0.00    -0.440 OA 
HETATM   34  C   UNL     1     -12.775   8.853  71.348  1.00  0.00    -0.301 C  
HETATM   35  O   UNL     1     -14.339   7.073  71.898  1.00  0.00    -0.376 OA 
BRANCH  29  36
HETATM   36  O   UNL     1     -10.960   6.132  71.007  1.00  0.00    -0.267 OA 
BRANCH  36  37
HETATM   37  C   UNL     1      -9.883   5.373  71.577  1.00  0.00    -0.168 C  
BRANCH  37  38
HETATM   38  C   UNL     1     -10.434   4.100  72.216  1.00  0.00    -0.071 C  
HETATM   39  H   UNL     1      -9.739   2.613  73.294  1.00  0.00     0.000 HD 
HETATM   40  O   UNL     1      -9.396   3.405  72.897  1.00  0.00    -0.094 OA 
ENDBRANCH  37  38
ENDBRANCH  36  37
ENDBRANCH  29  36
ENDBRANCH  13  27
ENDBRANCH   4   5
ENDBRANCH   3   4
ENDBRANCH   2   3
TORSDOF 10
ENDMDL
MODEL      154
REMARK 921   NORMALIZED FREE ENERGY PREDICTED BY IDOCK:   -4.36 KCAL/MOL
REMARK 922        TOTAL FREE ENERGY PREDICTED BY IDOCK:   -8.97 KCAL/MOL
REMARK 923 INTER-LIGAND FREE ENERGY PREDICTED BY IDOCK:   -7.79 KCAL/MOL
REMARK 924 INTRA-LIGAND FREE ENERGY PREDICTED BY IDOCK:   -1.18 KCAL/MOL
REMARK 927      BINDING AFFINITY PREDICTED BY RF-SCORE:    0.00 PKD
ROOT
HETATM    1  C   UNL     1     -12.440  13.202  65.042  1.00  0.00    -0.516 C  
HETATM    2  C   UNL     1     -11.920  14.141  66.121  1.00  0.00    -0.437 C  
ENDROOT
BRANCH   2   3
HETATM    3  C   UNL     1     -12.144  13.591  67.534  1.00  0.00    -0.300 C  
BRANCH   3   4
HETATM    4  S   UNL     1     -10.933  14.359  68.668  1.00  0.00    -0.261 SA 
BRANCH   4   5
HETATM    5  C   UNL     1      -9.432  13.578  68.118  1.00  0.00    -0.214 A  
HETATM    6  N   UNL     1      -9.549  12.288  67.730  1.00  0.00    -0.194 NA 
HETATM    7  C   UNL     1      -8.369  11.768  67.350  1.00  0.00    -0.159 A  
HETATM    8  C   UNL     1      -7.149  12.418  67.331  1.00  0.00    -0.152 A  
HETATM    9  N   UNL     1      -6.182  11.579  66.853  1.00  0.00    -0.132 NA 
HETATM   10  C   UNL     1      -7.127  13.766  67.719  1.00  0.00    -0.167 A  
HETATM   11  N   UNL     1      -8.307  14.326  68.116  1.00  0.00    -0.152 NA 
HETATM   12  N   UNL     1      -6.758  10.421  66.543  1.00  0.00    -0.092 NA 
HETATM   13  N   UNL     1      -8.085  10.538  66.812  1.00  0.00    -0.120 NA 
BRANCH  10  14
HETATM   14  N   UNL     1      -5.937  14.519  67.648  1.00  0.00    -0.332 NA 
HETATM   15  H   UNL     1      -5.027  14.070  67.752  1.00  0.00     0.000 HD 
BRANCH  14  16
HETATM   16  C   UNL     1      -6.041  15.962  67.423  1.00  0.00    -0.115 C  
HETATM   17  C   UNL     1      -6.601  16.868  68.498  1.00  0.00    -0.165 C  
HETATM   18  C   UNL     1      -5.138  16.916  68.146  1.00  0.00    -0.116 C  
BRANCH  17  19
HETATM   19  C   UNL     1      -7.575  17.942  68.081  1.00  0.00    -0.260 A  
HETATM   20  C   UNL     1      -9.711  18.685  67.183  1.00  0.00    -0.302 A  
HETATM   21  C   UNL     1      -8.850  17.657  67.570  1.00  0.00    -0.231 A  
HETATM   22  F   UNL     1     -10.926  18.380  66.712  1.00  0.00    -0.353 F  
HETATM   23  C   UNL     1      -9.313  20.012  67.290  1.00  0.00    -0.374 A  
HETATM   24  C   UNL     1      -7.196  19.297  68.171  1.00  0.00    -0.304 A  
HETATM   25  F   UNL     1     -10.141  20.995  66.915  1.00  0.00    -0.502 F  
HETATM   26  C   UNL     1      -8.055  20.327  67.781  1.00  0.00    -0.268 A  
ENDBRANCH  17  19
ENDBRANCH  14  16
ENDBRANCH  10  14
BRANCH  13  27
HETATM   27  C   UNL     1      -8.938   9.424  66.455  1.00  0.00    -0.152 C  
HETATM   28  C   UNL     1     -10.040   9.149  67.492  1.00  0.00    -0.284 C  
HETATM   29  C   UNL     1      -9.379   8.220  68.512  1.00  0.00    -0.138 C  
HETATM   30  H   UNL     1      -8.552   6.510  65.134  1.00  0.00     0.000 HD 
HETATM   31  C   UNL     1      -8.488   7.305  67.633  1.00  0.00    -0.116 C  
HETATM   32  H   UNL     1      -8.559   5.474  66.822  1.00  0.00     0.000 HD 
HETATM   33  O   UNL     1      -8.964   7.361  65.234  1.00  0.00     0.080 OA 
HETATM   34  C   UNL     1      -8.276   8.056  66.294  1.00  0.00    -0.116 C  
HETATM   35  O   UNL     1      -9.105   6.034  67.361  1.00  0.00    -0.109 OA 
BRANCH  29  36
HETATM   36  O   UNL     1      -8.567   8.942  69.447  1.00  0.00    -0.127 OA 
BRANCH  36  37
HETATM   37  C   UNL     1      -9.297   9.434  70.582  1.00  0.00    -0.252 C  
BRANCH  37  38
HETATM   38  C   UNL     1     -10.367   8.422  70.983  1.00  0.00    -0.198 C  
HETATM   39  H   UNL     1     -10.536   6.932  72.251  1.00  0.00     0.000 HD 
HETATM   40  O   UNL     1      -9.870   7.562  72.001  1.00  0.00    -0.160 OA 
ENDBRANCH  37  38
ENDBRANCH  36  37
ENDBRANCH  29  36
ENDBRANCH  13  27
ENDBRANCH   4   5
ENDBRANCH   3   4
ENDBRANCH   2   3
TORSDOF 10
ENDMDL
MODEL      155
REMARK 921   NORMALIZED FREE ENERGY PREDICTED BY IDOCK:   -4.35 KCAL/MOL
REMARK 922        TOTAL FREE ENERGY PREDICTED BY IDOCK:   -8.96 KCAL/MOL
REMARK 923 INTER-LIGAND FREE ENERGY PREDICTED BY IDOCK:   -7.43 KCAL/MOL
REMARK 924 INTRA-LIGAND FREE ENERGY PREDICTED BY IDOCK:   -1.53 KCAL/MOL
REMARK 927      BINDING AFFINITY PREDICTED BY RF-SCORE:    0.00 PKD
ROOT
HETATM    1  C   UNL     1      -7.259   6.245  67.684  1.00  0.00    -0.083 C  
HETATM    2  C   UNL     1      -6.388   7.363  67.127  1.00  0.00    -0.055 C  
ENDROOT
BRANCH   2   3
HETATM    3  C   UNL     1      -6.976   7.984  65.855  1.00  0.00    -0.057 C  
BRANCH   3   4
HETATM    4  S   UNL     1      -6.674   9.787  65.883  1.00  0.00    -0.097 SA 
BRANCH   4   5
HETATM    5  C   UNL     1      -8.253  10.372  66.460  1.00  0.00    -0.131 A  
HETATM    6  N   UNL     1      -8.572  11.640  66.114  1.00  0.00    -0.111 NA 
HETATM    7  C   UNL     1      -9.767  12.010  66.605  1.00  0.00    -0.208 A  
HETATM    8  C   UNL     1     -10.617  11.237  67.373  1.00  0.00    -0.224 A  
HETATM    9  N   UNL     1     -11.755  11.939  67.658  1.00  0.00    -0.532 NA 
HETATM   10  C   UNL     1     -10.220   9.922  67.656  1.00  0.00    -0.208 A  
HETATM   11  N   UNL     1      -9.009   9.513  67.176  1.00  0.00    -0.134 NA 
HETATM   12  N   UNL     1     -11.662  13.128  67.070  1.00  0.00    -0.358 NA 
HETATM   13  N   UNL     1     -10.476  13.167  66.407  1.00  0.00    -0.278 NA 
BRANCH  10  14
HETATM   14  N   UNL     1     -11.070   9.046  68.363  1.00  0.00    -0.458 NA 
HETATM   15  H   UNL     1     -12.061   9.257  68.475  1.00  0.00     0.000 HD 
BRANCH  14  16
HETATM   16  C   UNL     1     -10.493   7.826  68.932  1.00  0.00    -0.194 C  
HETATM   17  C   UNL     1     -11.265   7.016  69.951  1.00  0.00    -0.286 C  
HETATM   18  C   UNL     1     -11.037   6.479  68.562  1.00  0.00    -0.347 C  
BRANCH  17  19
HETATM   19  C   UNL     1     -10.518   6.501  71.156  1.00  0.00    -0.257 A  
HETATM   20  C   UNL     1     -10.334   5.120  73.151  1.00  0.00    -0.195 A  
HETATM   21  C   UNL     1     -11.059   5.555  72.040  1.00  0.00    -0.249 A  
HETATM   22  F   UNL     1     -10.875   4.208  73.969  1.00  0.00    -0.253 F  
HETATM   23  C   UNL     1      -9.065   5.625  73.404  1.00  0.00    -0.129 A  
HETATM   24  C   UNL     1      -9.231   7.001  71.442  1.00  0.00    -0.151 A  
HETATM   25  F   UNL     1      -8.375   5.207  74.472  1.00  0.00    -0.100 F  
HETATM   26  C   UNL     1      -8.507   6.568  72.555  1.00  0.00    -0.121 A  
ENDBRANCH  17  19
ENDBRANCH  14  16
ENDBRANCH  10  14
BRANCH  13  27
HETATM   27  C   UNL     1     -10.201  14.339  65.602  1.00  0.00    -0.347 C  
HETATM   28  C   UNL     1      -8.803  14.929  65.852  1.00  0.00     0.380 C  
HETATM   29  C   UNL     1      -8.997  15.879  67.035  1.00  0.00    -0.217 C  
HETATM   30  H   UNL     1     -11.832  16.936  64.615  1.00  0.00     0.000 HD 
HETATM   31  C   UNL     1     -10.387  16.506  66.762  1.00  0.00    -0.296 C  
HETATM   32  H   UNL     1     -11.145  18.191  65.985  1.00  0.00     0.000 HD 
HETATM   33  O   UNL     1     -11.263  16.184  64.501  1.00  0.00    -0.583 OA 
HETATM   34  C   UNL     1     -11.117  15.548  65.786  1.00  0.00    -0.217 C  
HETATM   35  O   UNL     1     -10.293  17.807  66.152  1.00  0.00    -0.372 OA 
BRANCH  29  36
HETATM   36  O   UNL     1      -9.013  15.179  68.286  1.00  0.00    -0.167 OA 
BRANCH  36  37
HETATM   37  C   UNL     1      -7.737  14.634  68.656  1.00  0.00    -0.135 C  
BRANCH  37  38
HETATM   38  C   UNL     1      -6.756  15.769  68.940  1.00  0.00    -0.126 C  
HETATM   39  H   UNL     1      -5.599  16.336  70.422  1.00  0.00     0.000 HD 
HETATM   40  O   UNL     1      -6.209  15.630  70.246  1.00  0.00    -0.130 OA 
ENDBRANCH  37  38
ENDBRANCH  36  37
ENDBRANCH  29  36
ENDBRANCH  13  27
ENDBRANCH   4   5
ENDBRANCH   3   4
ENDBRANCH   2   3
TORSDOF 10
ENDMDL
MODEL      156
REMARK 921   NORMALIZED FREE ENERGY PREDICTED BY IDOCK:   -4.33 KCAL/MOL
REMARK 922        TOTAL FREE ENERGY PREDICTED BY IDOCK:   -8.93 KCAL/MOL
REMARK 923 INTER-LIGAND FREE ENERGY PREDICTED BY IDOCK:   -7.69 KCAL/MOL
REMARK 924 INTRA-LIGAND FREE ENERGY PREDICTED BY IDOCK:   -1.24 KCAL/MOL
REMARK 927      BINDING AFFINITY PREDICTED BY RF-SCORE:    0.00 PKD
ROOT
HETATM    1  C   UNL     1      -8.885   8.490  71.528  1.00  0.00    -0.260 C  
HETATM    2  C   UNL     1      -8.279   9.407  70.475  1.00  0.00    -0.221 C  
ENDROOT
BRANCH   2   3
HETATM    3  C   UNL     1      -9.343  10.083  69.605  1.00  0.00    -0.220 C  
BRANCH   3   4
HETATM    4  S   UNL     1     -10.304   8.794  68.734  1.00  0.00    -0.197 SA 
BRANCH   4   5
HETATM    5  C   UNL     1      -9.655   8.961  67.086  1.00  0.00    -0.172 A  
HETATM    6  N   UNL     1      -8.569   8.207  66.803  1.00  0.00    -0.128 NA 
HETATM    7  C   UNL     1      -8.131   8.407  65.548  1.00  0.00    -0.129 A  
HETATM    8  C   UNL     1      -8.678   9.263  64.611  1.00  0.00    -0.192 A  
HETATM    9  N   UNL     1      -7.982   9.173  63.437  1.00  0.00    -0.139 NA 
HETATM   10  C   UNL     1      -9.823   9.982  64.980  1.00  0.00    -0.304 A  
HETATM   11  N   UNL     1     -10.294   9.807  66.249  1.00  0.00    -0.207 NA 
HETATM   12  N   UNL     1      -7.023   8.266  63.595  1.00  0.00    -0.083 NA 
HETATM   13  N   UNL     1      -7.127   7.776  64.859  1.00  0.00    -0.059 NA 
BRANCH  10  14
HETATM   14  N   UNL     1     -10.486  10.812  64.053  1.00  0.00    -0.474 NA 
HETATM   15  H   UNL     1     -10.434  10.624  63.052  1.00  0.00     0.000 HD 
BRANCH  14  16
HETATM   16  C   UNL     1     -11.253  11.951  64.563  1.00  0.00    -0.319 C  
HETATM   17  C   UNL     1     -10.663  13.345  64.539  1.00  0.00    -0.434 C  
HETATM   18  C   UNL     1     -11.805  12.983  63.626  1.00  0.00    -0.580 C  
BRANCH  17  19
HETATM   19  C   UNL     1     -10.841  14.209  65.763  1.00  0.00    -0.297 A  
HETATM   20  C   UNL     1     -10.323  16.163  67.117  1.00  0.00    -0.291 A  
HETATM   21  C   UNL     1     -10.135  15.405  65.960  1.00  0.00    -0.346 A  
HETATM   22  F   UNL     1      -9.643  17.306  67.269  1.00  0.00    -0.240 F  
HETATM   23  C   UNL     1     -11.210  15.738  68.099  1.00  0.00    -0.344 A  
HETATM   24  C   UNL     1     -11.729  13.799  66.779  1.00  0.00    -0.420 A  
HETATM   25  F   UNL     1     -11.385  16.467  69.208  1.00  0.00    -0.300 F  
HETATM   26  C   UNL     1     -11.915  14.556  67.939  1.00  0.00    -0.322 A  
ENDBRANCH  17  19
ENDBRANCH  14  16
ENDBRANCH  10  14
BRANCH  13  27
HETATM   27  C   UNL     1      -6.241   6.691  65.227  1.00  0.00    -0.038 C  
HETATM   28  C   UNL     1      -6.163   5.586  64.159  1.00  0.00    -0.022 C  
HETATM   29  C   UNL     1      -7.327   4.651  64.494  1.00  0.00    -0.070 C  
HETATM   30  H   UNL     1      -5.538   5.049  67.908  1.00  0.00     0.000 HD 
HETATM   31  C   UNL     1      -7.337   4.639  66.043  1.00  0.00    -0.077 C  
HETATM   32  H   UNL     1      -6.683   3.475  67.538  1.00  0.00     0.000 HD 
HETATM   33  O   UNL     1      -5.330   5.534  67.118  1.00  0.00    -0.007 OA 
HETATM   34  C   UNL     1      -6.576   5.911  66.497  1.00  0.00    -0.055 C  
HETATM   35  O   UNL     1      -6.677   3.482  66.589  1.00  0.00    -0.047 OA 
BRANCH  29  36
HETATM   36  O   UNL     1      -8.575   5.152  64.000  1.00  0.00    -0.136 OA 
BRANCH  36  37
HETATM   37  C   UNL     1      -9.179   4.311  63.004  1.00  0.00    -0.130 C  
BRANCH  37  38
HETATM   38  C   UNL     1     -10.085   3.284  63.680  1.00  0.00    -0.183 C  
HETATM   39  H   UNL     1     -11.907   3.231  64.409  1.00  0.00     0.000 HD 
HETATM   40  O   UNL     1     -11.344   3.870  63.989  1.00  0.00    -0.246 OA 
ENDBRANCH  37  38
ENDBRANCH  36  37
ENDBRANCH  29  36
ENDBRANCH  13  27
ENDBRANCH   4   5
ENDBRANCH   3   4
ENDBRANCH   2   3
TORSDOF 10
ENDMDL
MODEL      157
REMARK 921   NORMALIZED FREE ENERGY PREDICTED BY IDOCK:   -4.31 KCAL/MOL
REMARK 922        TOTAL FREE ENERGY PREDICTED BY IDOCK:   -8.90 KCAL/MOL
REMARK 923 INTER-LIGAND FREE ENERGY PREDICTED BY IDOCK:   -7.24 KCAL/MOL
REMARK 924 INTRA-LIGAND FREE ENERGY PREDICTED BY IDOCK:   -1.65 KCAL/MOL
REMARK 927      BINDING AFFINITY PREDICTED BY RF-SCORE:    0.00 PKD
ROOT
HETATM    1  C   UNL     1     -11.970   8.854  71.408  1.00  0.00    -0.374 C  
HETATM    2  C   UNL     1     -10.838   8.083  72.072  1.00  0.00    -0.333 C  
ENDROOT
BRANCH   2   3
HETATM    3  C   UNL     1      -9.928   7.387  71.054  1.00  0.00    -0.183 C  
BRANCH   3   4
HETATM    4  S   UNL     1     -10.522   7.772  69.368  1.00  0.00    -0.207 SA 
BRANCH   4   5
HETATM    5  C   UNL     1      -9.179   8.775  68.770  1.00  0.00    -0.141 A  
HETATM    6  N   UNL     1      -8.308   8.158  67.939  1.00  0.00    -0.128 NA 
HETATM    7  C   UNL     1      -7.316   8.977  67.552  1.00  0.00    -0.081 A  
HETATM    8  C   UNL     1      -7.148  10.299  67.918  1.00  0.00    -0.084 A  
HETATM    9  N   UNL     1      -6.044  10.816  67.300  1.00  0.00    -0.054 NA 
HETATM   10  C   UNL     1      -8.117  10.867  68.757  1.00  0.00    -0.145 A  
HETATM   11  N   UNL     1      -9.138  10.063  69.175  1.00  0.00    -0.172 NA 
HETATM   12  N   UNL     1      -5.520   9.866  66.531  1.00  0.00    -0.044 NA 
HETATM   13  N   UNL     1      -6.301   8.761  66.654  1.00  0.00    -0.058 NA 
BRANCH  10  14
HETATM   14  N   UNL     1      -8.059  12.232  69.108  1.00  0.00    -0.285 NA 
HETATM   15  H   UNL     1      -7.646  12.528  69.992  1.00  0.00     0.000 HD 
BRANCH  14  16
HETATM   16  C   UNL     1      -8.608  13.214  68.171  1.00  0.00    -0.181 C  
HETATM   17  C   UNL     1     -10.090  13.521  68.162  1.00  0.00    -0.250 C  
HETATM   18  C   UNL     1      -9.102  14.543  68.658  1.00  0.00    -0.187 C  
BRANCH  17  19
HETATM   19  C   UNL     1     -10.780  13.636  66.825  1.00  0.00    -0.272 A  
HETATM   20  C   UNL     1     -11.439  14.878  64.839  1.00  0.00    -0.407 A  
HETATM   21  C   UNL     1     -10.773  14.816  66.064  1.00  0.00    -0.314 A  
HETATM   22  F   UNL     1     -11.403  16.014  64.132  1.00  0.00    -0.424 F  
HETATM   23  C   UNL     1     -12.128  13.773  64.356  1.00  0.00    -0.436 A  
HETATM   24  C   UNL     1     -11.493  12.533  66.313  1.00  0.00    -0.421 A  
HETATM   25  F   UNL     1     -12.768  13.838  63.182  1.00  0.00    -0.351 F  
HETATM   26  C   UNL     1     -12.163  12.596  65.089  1.00  0.00    -0.539 A  
ENDBRANCH  17  19
ENDBRANCH  14  16
ENDBRANCH  10  14
BRANCH  13  27
HETATM   27  C   UNL     1      -5.979   7.621  65.821  1.00  0.00    -0.038 C  
HETATM   28  C   UNL     1      -6.056   7.932  64.317  1.00  0.00    -0.053 C  
HETATM   29  C   UNL     1      -7.522   7.690  63.953  1.00  0.00    -0.107 C  
HETATM   30  H   UNL     1      -6.566   4.454  65.857  1.00  0.00     0.000 HD 
HETATM   31  C   UNL     1      -7.900   6.454  64.808  1.00  0.00    -0.111 C  
HETATM   32  H   UNL     1      -8.080   4.471  64.580  1.00  0.00     0.000 HD 
HETATM   33  O   UNL     1      -6.018   5.225  65.774  1.00  0.00    -0.024 OA 
HETATM   34  C   UNL     1      -6.861   6.381  65.956  1.00  0.00    -0.057 C  
HETATM   35  O   UNL     1      -7.848   5.228  64.056  1.00  0.00    -0.084 OA 
BRANCH  29  36
HETATM   36  O   UNL     1      -8.352   8.803  64.306  1.00  0.00    -0.165 OA 
BRANCH  36  37
HETATM   37  C   UNL     1      -8.802   9.567  63.176  1.00  0.00    -0.224 C  
BRANCH  37  38
HETATM   38  C   UNL     1      -9.041  11.015  63.597  1.00  0.00    -0.145 C  
HETATM   39  H   UNL     1      -9.070  12.042  65.271  1.00  0.00     0.000 HD 
HETATM   40  O   UNL     1      -8.921  11.141  65.009  1.00  0.00    -0.167 OA 
ENDBRANCH  37  38
ENDBRANCH  36  37
ENDBRANCH  29  36
ENDBRANCH  13  27
ENDBRANCH   4   5
ENDBRANCH   3   4
ENDBRANCH   2   3
TORSDOF 10
ENDMDL
MODEL      158
REMARK 921   NORMALIZED FREE ENERGY PREDICTED BY IDOCK:   -4.28 KCAL/MOL
REMARK 922        TOTAL FREE ENERGY PREDICTED BY IDOCK:   -8.85 KCAL/MOL
REMARK 923 INTER-LIGAND FREE ENERGY PREDICTED BY IDOCK:   -7.70 KCAL/MOL
REMARK 924 INTRA-LIGAND FREE ENERGY PREDICTED BY IDOCK:   -1.15 KCAL/MOL
REMARK 927      BINDING AFFINITY PREDICTED BY RF-SCORE:    0.00 PKD
ROOT
HETATM    1  C   UNL     1     -12.085  14.787  64.374  1.00  0.00    -0.457 C  
HETATM    2  C   UNL     1     -10.810  13.959  64.466  1.00  0.00    -0.381 C  
ENDROOT
BRANCH   2   3
HETATM    3  C   UNL     1     -11.090  12.453  64.481  1.00  0.00    -0.316 C  
BRANCH   3   4
HETATM    4  S   UNL     1     -11.990  12.033  66.016  1.00  0.00     0.173 SA 
BRANCH   4   5
HETATM    5  C   UNL     1     -10.638  11.531  67.059  1.00  0.00    -0.242 A  
HETATM    6  N   UNL     1     -10.484  10.197  67.219  1.00  0.00    -0.240 NA 
HETATM    7  C   UNL     1      -9.456   9.904  68.035  1.00  0.00    -0.134 A  
HETATM    8  C   UNL     1      -8.619  10.807  68.663  1.00  0.00    -0.151 A  
HETATM    9  N   UNL     1      -7.671  10.137  69.385  1.00  0.00    -0.123 NA 
HETATM   10  C   UNL     1      -8.833  12.170  68.413  1.00  0.00    -0.143 A  
HETATM   11  N   UNL     1      -9.871  12.505  67.593  1.00  0.00    -0.198 NA 
HETATM   12  N   UNL     1      -7.867   8.834  69.213  1.00  0.00    -0.098 NA 
HETATM   13  N   UNL     1      -8.926   8.686  68.373  1.00  0.00    -0.142 NA 
BRANCH  10  14
HETATM   14  N   UNL     1      -7.970  13.148  68.952  1.00  0.00    -0.333 NA 
HETATM   15  H   UNL     1      -7.248  12.894  69.625  1.00  0.00     0.000 HD 
BRANCH  14  16
HETATM   16  C   UNL     1      -8.137  14.537  68.519  1.00  0.00    -0.148 C  
HETATM   17  C   UNL     1      -6.935  15.366  68.123  1.00  0.00    -0.131 C  
HETATM   18  C   UNL     1      -7.930  14.920  67.084  1.00  0.00    -0.227 C  
BRANCH  17  19
HETATM   19  C   UNL     1      -6.862  16.787  68.623  1.00  0.00    -0.175 A  
HETATM   20  C   UNL     1      -7.529  19.127  68.578  1.00  0.00    -0.325 A  
HETATM   21  C   UNL     1      -7.644  17.824  68.091  1.00  0.00    -0.250 A  
HETATM   22  F   UNL     1      -8.300  20.090  68.057  1.00  0.00    -0.331 F  
HETATM   23  C   UNL     1      -6.629  19.421  69.594  1.00  0.00    -0.272 A  
HETATM   24  C   UNL     1      -5.952  17.117  69.649  1.00  0.00    -0.239 A  
HETATM   25  F   UNL     1      -6.521  20.673  70.056  1.00  0.00    -0.326 F  
HETATM   26  C   UNL     1      -5.834  18.422  70.134  1.00  0.00    -0.189 A  
ENDBRANCH  17  19
ENDBRANCH  14  16
ENDBRANCH  10  14
BRANCH  13  27
HETATM   27  C   UNL     1      -9.262   7.339  67.958  1.00  0.00    -0.131 C  
HETATM   28  C   UNL     1     -10.777   7.072  67.944  1.00  0.00    -0.274 C  
HETATM   29  C   UNL     1     -11.098   6.632  69.373  1.00  0.00    -0.310 C  
HETATM   30  H   UNL     1      -8.088   4.378  68.438  1.00  0.00     0.000 HD 
HETATM   31  C   UNL     1      -9.867   5.776  69.766  1.00  0.00    -0.178 C  
HETATM   32  H   UNL     1      -9.355   3.841  69.863  1.00  0.00     0.000 HD 
HETATM   33  O   UNL     1      -8.423   5.095  67.912  1.00  0.00    -0.105 OA 
HETATM   34  C   UNL     1      -8.722   6.188  68.804  1.00  0.00    -0.119 C  
HETATM   35  O   UNL     1     -10.109   4.365  69.623  1.00  0.00    -0.202 OA 
BRANCH  29  36
HETATM   36  O   UNL     1     -11.222   7.749  70.263  1.00  0.00    -0.263 OA 
BRANCH  36  37
HETATM   37  C   UNL     1     -10.968   7.420  71.638  1.00  0.00    -0.225 C  
BRANCH  37  38
HETATM   38  C   UNL     1     -10.280   8.595  72.328  1.00  0.00    -0.301 C  
HETATM   39  H   UNL     1      -8.446   9.118  72.795  1.00  0.00     0.000 HD 
HETATM   40  O   UNL     1      -8.873   8.387  72.365  1.00  0.00    -0.200 OA 
ENDBRANCH  37  38
ENDBRANCH  36  37
ENDBRANCH  29  36
ENDBRANCH  13  27
ENDBRANCH   4   5
ENDBRANCH   3   4
ENDBRANCH   2   3
TORSDOF 10
ENDMDL
MODEL      159
REMARK 921   NORMALIZED FREE ENERGY PREDICTED BY IDOCK:   -4.28 KCAL/MOL
REMARK 922        TOTAL FREE ENERGY PREDICTED BY IDOCK:   -8.85 KCAL/MOL
REMARK 923 INTER-LIGAND FREE ENERGY PREDICTED BY IDOCK:   -7.89 KCAL/MOL
REMARK 924 INTRA-LIGAND FREE ENERGY PREDICTED BY IDOCK:   -0.96 KCAL/MOL
REMARK 927      BINDING AFFINITY PREDICTED BY RF-SCORE:    0.00 PKD
ROOT
HETATM    1  C   UNL     1     -10.792  15.413  70.992  1.00  0.00    -0.207 C  
HETATM    2  C   UNL     1     -11.013  15.005  69.542  1.00  0.00    -0.281 C  
ENDROOT
BRANCH   2   3
HETATM    3  C   UNL     1     -12.390  14.370  69.316  1.00  0.00    -0.153 C  
BRANCH   3   4
HETATM    4  S   UNL     1     -12.770  13.264  70.722  1.00  0.00    -0.149 SA 
BRANCH   4   5
HETATM    5  C   UNL     1     -12.070  11.738  70.133  1.00  0.00    -0.317 A  
HETATM    6  N   UNL     1     -11.836  11.673  68.803  1.00  0.00    -0.344 NA 
HETATM    7  C   UNL     1     -11.327  10.484  68.438  1.00  0.00    -0.262 A  
HETATM    8  C   UNL     1     -11.052   9.415  69.271  1.00  0.00    -0.045 A  
HETATM    9  N   UNL     1     -10.513   8.388  68.547  1.00  0.00    -0.194 NA 
HETATM   10  C   UNL     1     -11.296   9.582  70.642  1.00  0.00    -0.301 A  
HETATM   11  N   UNL     1     -11.816  10.777  71.048  1.00  0.00    -0.300 NA 
HETATM   12  N   UNL     1     -10.415   8.784  67.282  1.00  0.00    -0.288 NA 
HETATM   13  N   UNL     1     -10.877  10.061  67.214  1.00  0.00    -0.253 NA 
BRANCH  10  14
HETATM   14  N   UNL     1     -10.964   8.568  71.564  1.00  0.00    -0.250 NA 
HETATM   15  H   UNL     1     -10.511   8.795  72.449  1.00  0.00     0.000 HD 
BRANCH  14  16
HETATM   16  C   UNL     1     -11.285   7.182  71.218  1.00  0.00    -0.259 C  
HETATM   17  C   UNL     1     -10.385   6.051  71.667  1.00  0.00    -0.260 C  
HETATM   18  C   UNL     1     -11.754   6.222  72.270  1.00  0.00    -0.344 C  
BRANCH  17  19
HETATM   19  C   UNL     1     -10.063   4.967  70.670  1.00  0.00    -0.306 A  
HETATM   20  C   UNL     1      -9.785   4.139  68.399  1.00  0.00    -0.081 A  
HETATM   21  C   UNL     1     -10.075   5.179  69.283  1.00  0.00    -0.283 A  
HETATM   22  F   UNL     1      -9.793   4.378  67.081  1.00  0.00    -0.190 F  
HETATM   23  C   UNL     1      -9.486   2.870  68.879  1.00  0.00    -0.104 A  
HETATM   24  C   UNL     1      -9.764   3.667  71.128  1.00  0.00    -0.245 A  
HETATM   25  F   UNL     1      -9.211   1.875  68.027  1.00  0.00    -0.143 F  
HETATM   26  C   UNL     1      -9.476   2.625  70.244  1.00  0.00    -0.171 A  
ENDBRANCH  17  19
ENDBRANCH  14  16
ENDBRANCH  10  14
BRANCH  13  27
HETATM   27  C   UNL     1     -10.771  10.741  65.939  1.00  0.00    -0.073 C  
HETATM   28  C   UNL     1      -9.316  10.972  65.498  1.00  0.00    -0.242 C  
HETATM   29  C   UNL     1      -8.925  12.298  66.153  1.00  0.00    -0.005 C  
HETATM   30  H   UNL     1     -12.293  13.150  64.437  1.00  0.00     0.000 HD 
HETATM   31  C   UNL     1     -10.220  13.141  66.045  1.00  0.00    -0.286 C  
HETATM   32  H   UNL     1     -10.984  14.573  64.868  1.00  0.00     0.000 HD 
HETATM   33  O   UNL     1     -11.913  12.282  64.502  1.00  0.00    -0.380 OA 
HETATM   34  C   UNL     1     -11.382  12.137  65.835  1.00  0.00    -0.356 C  
HETATM   35  O   UNL     1     -10.190  14.056  64.934  1.00  0.00    -0.405 OA 
BRANCH  29  36
HETATM   36  O   UNL     1      -8.564  12.128  67.530  1.00  0.00    -0.154 OA 
BRANCH  36  37
HETATM   37  C   UNL     1      -7.430  11.269  67.726  1.00  0.00    -0.095 C  
BRANCH  37  38
HETATM   38  C   UNL     1      -6.144  12.046  67.456  1.00  0.00    -0.114 C  
HETATM   39  H   UNL     1      -4.360  12.201  68.261  1.00  0.00     0.000 HD 
HETATM   40  O   UNL     1      -5.160  11.717  68.429  1.00  0.00    -0.043 OA 
ENDBRANCH  37  38
ENDBRANCH  36  37
ENDBRANCH  29  36
ENDBRANCH  13  27
ENDBRANCH   4   5
ENDBRANCH   3   4
ENDBRANCH   2   3
TORSDOF 10
ENDMDL
MODEL      160
REMARK 921   NORMALIZED FREE ENERGY PREDICTED BY IDOCK:   -4.28 KCAL/MOL
REMARK 922        TOTAL FREE ENERGY PREDICTED BY IDOCK:   -8.84 KCAL/MOL
REMARK 923 INTER-LIGAND FREE ENERGY PREDICTED BY IDOCK:   -7.55 KCAL/MOL
REMARK 924 INTRA-LIGAND FREE ENERGY PREDICTED BY IDOCK:   -1.29 KCAL/MOL
REMARK 927      BINDING AFFINITY PREDICTED BY RF-SCORE:    0.00 PKD
ROOT
HETATM    1  C   UNL     1      -7.350   5.550  71.570  1.00  0.00    -0.086 C  
HETATM    2  C   UNL     1      -8.516   6.529  71.588  1.00  0.00    -0.124 C  
ENDROOT
BRANCH   2   3
HETATM    3  C   UNL     1      -8.069   7.976  71.360  1.00  0.00    -0.107 C  
BRANCH   3   4
HETATM    4  S   UNL     1      -9.538   9.065  71.405  1.00  0.00    -0.253 SA 
BRANCH   4   5
HETATM    5  C   UNL     1      -9.609   9.586  69.705  1.00  0.00    -0.216 A  
HETATM    6  N   UNL     1     -10.454  10.608  69.439  1.00  0.00    -0.228 NA 
HETATM    7  C   UNL     1     -10.463  10.926  68.133  1.00  0.00    -0.182 A  
HETATM    8  C   UNL     1      -9.724  10.324  67.133  1.00  0.00    -0.173 A  
HETATM    9  N   UNL     1      -9.972  10.938  65.937  1.00  0.00    -0.233 NA 
HETATM   10  C   UNL     1      -8.849   9.293  67.505  1.00  0.00    -0.118 A  
HETATM   11  N   UNL     1      -8.816   8.940  68.824  1.00  0.00    -0.137 NA 
HETATM   12  N   UNL     1     -10.830  11.930  66.154  1.00  0.00    -0.281 NA 
HETATM   13  N   UNL     1     -11.108  11.948  67.484  1.00  0.00    -0.255 NA 
BRANCH  10  14
HETATM   14  N   UNL     1      -8.001   8.686  66.556  1.00  0.00    -0.098 NA 
HETATM   15  H   UNL     1      -7.409   9.250  65.947  1.00  0.00     0.000 HD 
BRANCH  14  16
HETATM   16  C   UNL     1      -7.992   7.224  66.466  1.00  0.00    -0.115 C  
HETATM   17  C   UNL     1      -9.291   6.449  66.454  1.00  0.00    -0.176 C  
HETATM   18  C   UNL     1      -8.440   6.532  65.214  1.00  0.00    -0.091 C  
BRANCH  17  19
HETATM   19  C   UNL     1      -9.378   5.203  67.300  1.00  0.00    -0.129 A  
HETATM   20  C   UNL     1      -9.842   4.041  69.387  1.00  0.00    -0.045 A  
HETATM   21  C   UNL     1      -9.792   5.220  68.640  1.00  0.00    -0.216 A  
HETATM   22  F   UNL     1     -10.253   4.090  70.660  1.00  0.00    -0.251 F  
HETATM   23  C   UNL     1      -9.473   2.830  68.815  1.00  0.00    -0.110 A  
HETATM   24  C   UNL     1      -9.003   3.960  66.748  1.00  0.00    -0.144 A  
HETATM   25  F   UNL     1      -9.520   1.703  69.536  1.00  0.00    -0.152 F  
HETATM   26  C   UNL     1      -9.050   2.781  67.496  1.00  0.00    -0.213 A  
ENDBRANCH  17  19
ENDBRANCH  14  16
ENDBRANCH  10  14
BRANCH  13  27
HETATM   27  C   UNL     1     -11.950  13.020  67.974  1.00  0.00    -0.290 C  
HETATM   28  C   UNL     1     -11.974  14.243  67.042  1.00  0.00    -0.463 C  
HETATM   29  C   UNL     1     -10.775  15.083  67.484  1.00  0.00    -0.284 C  
HETATM   30  H   UNL     1     -12.602  14.369  70.826  1.00  0.00     0.000 HD 
HETATM   31  C   UNL     1     -10.775  14.915  69.025  1.00  0.00    -0.247 C  
HETATM   32  H   UNL     1     -11.389  15.925  70.643  1.00  0.00     0.000 HD 
HETATM   33  O   UNL     1     -12.824  13.988  69.985  1.00  0.00    -0.200 OA 
HETATM   34  C   UNL     1     -11.591  13.633  69.327  1.00  0.00    -0.311 C  
HETATM   35  O   UNL     1     -11.390  16.028  69.699  1.00  0.00    -0.308 OA 
BRANCH  29  36
HETATM   36  O   UNL     1      -9.545  14.590  66.937  1.00  0.00    -0.232 OA 
BRANCH  36  37
HETATM   37  C   UNL     1      -8.594  15.624  66.637  1.00  0.00    -0.295 C  
BRANCH  37  38
HETATM   38  C   UNL     1      -9.329  16.932  66.356  1.00  0.00    -0.276 C  
HETATM   39  H   UNL     1      -8.904  18.682  65.573  1.00  0.00     0.000 HD 
HETATM   40  O   UNL     1      -8.447  17.868  65.748  1.00  0.00    -0.513 OA 
ENDBRANCH  37  38
ENDBRANCH  36  37
ENDBRANCH  29  36
ENDBRANCH  13  27
ENDBRANCH   4   5
ENDBRANCH   3   4
ENDBRANCH   2   3
TORSDOF 10
ENDMDL
MODEL      161
REMARK 921   NORMALIZED FREE ENERGY PREDICTED BY IDOCK:   -4.26 KCAL/MOL
REMARK 922        TOTAL FREE ENERGY PREDICTED BY IDOCK:   -8.81 KCAL/MOL
REMARK 923 INTER-LIGAND FREE ENERGY PREDICTED BY IDOCK:   -7.40 KCAL/MOL
REMARK 924 INTRA-LIGAND FREE ENERGY PREDICTED BY IDOCK:   -1.40 KCAL/MOL
REMARK 927      BINDING AFFINITY PREDICTED BY RF-SCORE:    0.00 PKD
ROOT
HETATM    1  C   UNL     1      -6.853  11.371  69.295  1.00  0.00    -0.119 C  
HETATM    2  C   UNL     1      -5.988  10.557  68.343  1.00  0.00    -0.043 C  
ENDROOT
BRANCH   2   3
HETATM    3  C   UNL     1      -5.777   9.119  68.827  1.00  0.00    -0.040 C  
BRANCH   3   4
HETATM    4  S   UNL     1      -6.495   7.969  67.600  1.00  0.00    -0.058 SA 
BRANCH   4   5
HETATM    5  C   UNL     1      -8.066   7.621  68.359  1.00  0.00    -0.124 A  
HETATM    6  N   UNL     1      -8.167   6.424  68.980  1.00  0.00    -0.114 NA 
HETATM    7  C   UNL     1      -9.388   6.232  69.508  1.00  0.00    -0.142 A  
HETATM    8  C   UNL     1     -10.453   7.110  69.460  1.00  0.00    -0.225 A  
HETATM    9  N   UNL     1     -11.520   6.585  70.135  1.00  0.00    -0.398 NA 
HETATM   10  C   UNL     1     -10.249   8.343  68.824  1.00  0.00    -0.207 A  
HETATM   11  N   UNL     1      -9.022   8.571  68.272  1.00  0.00    -0.139 NA 
HETATM   12  N   UNL     1     -11.153   5.407  70.632  1.00  0.00    -0.041 NA 
HETATM   13  N   UNL     1      -9.855   5.201  70.283  1.00  0.00    -0.205 NA 
BRANCH  10  14
HETATM   14  N   UNL     1     -11.262   9.325  68.807  1.00  0.00    -0.447 NA 
HETATM   15  H   UNL     1     -12.242   9.067  68.924  1.00  0.00     0.000 HD 
BRANCH  14  16
HETATM   16  C   UNL     1     -10.872  10.723  68.616  1.00  0.00    -0.220 C  
HETATM   17  C   UNL     1     -11.919  11.781  68.340  1.00  0.00    -0.250 C  
HETATM   18  C   UNL     1     -11.189  11.754  69.657  1.00  0.00    -0.225 C  
BRANCH  17  19
HETATM   19  C   UNL     1     -11.627  12.801  67.268  1.00  0.00    -0.420 A  
HETATM   20  C   UNL     1     -10.899  13.433  65.033  1.00  0.00    -0.328 A  
HETATM   21  C   UNL     1     -11.170  12.450  65.988  1.00  0.00    -0.374 A  
HETATM   22  F   UNL     1     -10.477  13.064  63.817  1.00  0.00    -0.405 F  
HETATM   23  C   UNL     1     -11.070  14.777  65.339  1.00  0.00    -0.357 A  
HETATM   24  C   UNL     1     -11.784  14.173  67.552  1.00  0.00    -0.418 A  
HETATM   25  F   UNL     1     -10.807  15.715  64.421  1.00  0.00    -0.380 F  
HETATM   26  C   UNL     1     -11.510  15.156  66.598  1.00  0.00    -0.185 A  
ENDBRANCH  17  19
ENDBRANCH  14  16
ENDBRANCH  10  14
BRANCH  13  27
HETATM   27  C   UNL     1      -9.205   4.017  70.805  1.00  0.00    -0.127 C  
HETATM   28  C   UNL     1      -9.788   3.552  72.150  1.00  0.00    -0.238 C  
HETATM   29  C   UNL     1      -9.012   4.351  73.198  1.00  0.00    -0.115 C  
HETATM   30  H   UNL     1      -6.195   2.883  70.979  1.00  0.00     0.000 HD 
HETATM   31  C   UNL     1      -7.576   4.397  72.617  1.00  0.00    -0.080 C  
HETATM   32  H   UNL     1      -5.833   3.436  72.847  1.00  0.00     0.000 HD 
HETATM   33  O   UNL     1      -7.126   2.826  70.797  1.00  0.00    -0.033 OA 
HETATM   34  C   UNL     1      -7.709   4.110  71.099  1.00  0.00    -0.066 C  
HETATM   35  O   UNL     1      -6.712   3.407  73.203  1.00  0.00    -0.034 OA 
BRANCH  29  36
HETATM   36  O   UNL     1      -9.524   5.681  73.346  1.00  0.00    -0.138 OA 
BRANCH  36  37
HETATM   37  C   UNL     1      -8.533   6.704  73.156  1.00  0.00    -0.116 C  
BRANCH  37  38
HETATM   38  C   UNL     1      -9.173   8.078  73.332  1.00  0.00    -0.263 C  
HETATM   39  H   UNL     1     -10.913   8.913  72.972  1.00  0.00     0.000 HD 
HETATM   40  O   UNL     1     -10.516   8.057  72.863  1.00  0.00    -0.329 OA 
ENDBRANCH  37  38
ENDBRANCH  36  37
ENDBRANCH  29  36
ENDBRANCH  13  27
ENDBRANCH   4   5
ENDBRANCH   3   4
ENDBRANCH   2   3
TORSDOF 10
ENDMDL
MODEL      162
REMARK 921   NORMALIZED FREE ENERGY PREDICTED BY IDOCK:   -4.25 KCAL/MOL
REMARK 922        TOTAL FREE ENERGY PREDICTED BY IDOCK:   -8.81 KCAL/MOL
REMARK 923 INTER-LIGAND FREE ENERGY PREDICTED BY IDOCK:   -6.90 KCAL/MOL
REMARK 924 INTRA-LIGAND FREE ENERGY PREDICTED BY IDOCK:   -1.91 KCAL/MOL
REMARK 927      BINDING AFFINITY PREDICTED BY RF-SCORE:    0.00 PKD
ROOT
HETATM    1  C   UNL     1     -12.291  14.520  64.407  1.00  0.00    -0.437 C  
HETATM    2  C   UNL     1     -11.924  13.233  63.681  1.00  0.00    -0.547 C  
ENDROOT
BRANCH   2   3
HETATM    3  C   UNL     1     -11.950  12.011  64.605  1.00  0.00    -0.249 C  
BRANCH   3   4
HETATM    4  S   UNL     1     -11.806  12.577  66.339  1.00  0.00    -0.322 SA 
BRANCH   4   5
HETATM    5  C   UNL     1     -10.382  11.648  66.866  1.00  0.00    -0.220 A  
HETATM    6  N   UNL     1     -10.443  11.138  68.116  1.00  0.00    -0.181 NA 
HETATM    7  C   UNL     1      -9.323  10.471  68.443  1.00  0.00    -0.158 A  
HETATM    8  C   UNL     1      -8.210  10.289  67.644  1.00  0.00    -0.114 A  
HETATM    9  N   UNL     1      -7.283   9.529  68.304  1.00  0.00    -0.076 NA 
HETATM   10  C   UNL     1      -8.246  10.825  66.349  1.00  0.00    -0.155 A  
HETATM   11  N   UNL     1      -9.367  11.513  65.984  1.00  0.00    -0.220 NA 
HETATM   12  N   UNL     1      -7.788   9.203  69.490  1.00  0.00    -0.078 NA 
HETATM   13  N   UNL     1      -9.033   9.743  69.568  1.00  0.00    -0.189 NA 
BRANCH  10  14
HETATM   14  N   UNL     1      -7.184  10.611  65.447  1.00  0.00    -0.323 NA 
HETATM   15  H   UNL     1      -6.477  11.329  65.292  1.00  0.00     0.000 HD 
BRANCH  14  16
HETATM   16  C   UNL     1      -7.120   9.330  64.740  1.00  0.00    -0.095 C  
HETATM   17  C   UNL     1      -8.195   8.284  64.949  1.00  0.00    -0.154 C  
HETATM   18  C   UNL     1      -8.087   9.017  63.638  1.00  0.00    -0.164 C  
BRANCH  17  19
HETATM   19  C   UNL     1      -7.761   6.850  65.119  1.00  0.00    -0.109 A  
HETATM   20  C   UNL     1      -6.605   5.073  66.314  1.00  0.00    -0.049 A  
HETATM   21  C   UNL     1      -6.995   6.410  66.209  1.00  0.00    -0.066 A  
HETATM   22  F   UNL     1      -5.885   4.683  67.373  1.00  0.00    -0.019 F  
HETATM   23  C   UNL     1      -6.962   4.157  65.333  1.00  0.00    -0.058 A  
HETATM   24  C   UNL     1      -8.103   5.899  64.135  1.00  0.00    -0.110 A  
HETATM   25  F   UNL     1      -6.584   2.878  65.437  1.00  0.00    -0.032 F  
HETATM   26  C   UNL     1      -7.710   4.563  64.238  1.00  0.00    -0.077 A  
ENDBRANCH  17  19
ENDBRANCH  14  16
ENDBRANCH  10  14
BRANCH  13  27
HETATM   27  C   UNL     1      -9.821   9.429  70.743  1.00  0.00    -0.279 C  
HETATM   28  C   UNL     1      -9.516   8.037  71.321  1.00  0.00    -0.190 C  
HETATM   29  C   UNL     1     -10.434   7.093  70.543  1.00  0.00    -0.212 C  
HETATM   30  H   UNL     1     -12.861   9.879  71.710  1.00  0.00     0.000 HD 
HETATM   31  C   UNL     1     -11.735   7.918  70.379  1.00  0.00    -0.008 C  
HETATM   32  H   UNL     1     -13.534   8.073  71.251  1.00  0.00     0.000 HD 
HETATM   33  O   UNL     1     -11.917   9.895  71.809  1.00  0.00    -0.381 OA 
HETATM   34  C   UNL     1     -11.341   9.404  70.582  1.00  0.00    -0.292 C  
HETATM   35  O   UNL     1     -12.736   7.567  71.352  1.00  0.00    -0.342 OA 
BRANCH  29  36
HETATM   36  O   UNL     1      -9.898   6.763  69.256  1.00  0.00    -0.153 OA 
BRANCH  36  37
HETATM   37  C   UNL     1     -10.776   5.957  68.456  1.00  0.00    -0.255 C  
BRANCH  37  38
HETATM   38  C   UNL     1     -10.778   6.471  67.018  1.00  0.00    -0.364 C  
HETATM   39  H   UNL     1     -10.972   8.199  66.107  1.00  0.00     0.000 HD 
HETATM   40  O   UNL     1     -10.970   7.880  67.002  1.00  0.00    -0.219 OA 
ENDBRANCH  37  38
ENDBRANCH  36  37
ENDBRANCH  29  36
ENDBRANCH  13  27
ENDBRANCH   4   5
ENDBRANCH   3   4
ENDBRANCH   2   3
TORSDOF 10
ENDMDL
MODEL      163
REMARK 921   NORMALIZED FREE ENERGY PREDICTED BY IDOCK:   -4.24 KCAL/MOL
REMARK 922        TOTAL FREE ENERGY PREDICTED BY IDOCK:   -8.78 KCAL/MOL
REMARK 923 INTER-LIGAND FREE ENERGY PREDICTED BY IDOCK:   -7.93 KCAL/MOL
REMARK 924 INTRA-LIGAND FREE ENERGY PREDICTED BY IDOCK:   -0.85 KCAL/MOL
REMARK 927      BINDING AFFINITY PREDICTED BY RF-SCORE:    0.00 PKD
ROOT
HETATM    1  C   UNL     1      -9.792  15.794  70.186  1.00  0.00     0.098 C  
HETATM    2  C   UNL     1     -10.575  16.235  68.958  1.00  0.00    -0.286 C  
ENDROOT
BRANCH   2   3
HETATM    3  C   UNL     1     -12.082  16.321  69.224  1.00  0.00     0.201 C  
BRANCH   3   4
HETATM    4  S   UNL     1     -12.508  15.181  70.588  1.00  0.00    -0.417 SA 
BRANCH   4   5
HETATM    5  C   UNL     1     -12.227  13.610  69.800  1.00  0.00    -0.291 A  
HETATM    6  N   UNL     1     -12.179  13.632  68.448  1.00  0.00    -0.257 NA 
HETATM    7  C   UNL     1     -11.984  12.406  67.932  1.00  0.00    -0.196 A  
HETATM    8  C   UNL     1     -11.840  11.228  68.640  1.00  0.00    -0.300 A  
HETATM    9  N   UNL     1     -11.626  10.190  67.776  1.00  0.00    -0.094 NA 
HETATM   10  C   UNL     1     -11.870  11.304  70.040  1.00  0.00    -0.367 A  
HETATM   11  N   UNL     1     -12.071  12.533  70.599  1.00  0.00    -0.313 NA 
HETATM   12  N   UNL     1     -11.605  10.681  66.540  1.00  0.00     0.235 NA 
HETATM   13  N   UNL     1     -11.790  12.024  66.630  1.00  0.00    -0.610 NA 
BRANCH  10  14
HETATM   14  N   UNL     1     -11.648  10.158  70.831  1.00  0.00    -0.351 NA 
HETATM   15  H   UNL     1     -12.142  10.029  71.714  1.00  0.00     0.000 HD 
BRANCH  14  16
HETATM   16  C   UNL     1     -10.691   9.158  70.353  1.00  0.00    -0.238 C  
HETATM   17  C   UNL     1      -9.202   9.408  70.464  1.00  0.00    -0.314 C  
HETATM   18  C   UNL     1      -9.866   8.365  71.322  1.00  0.00    -0.255 C  
BRANCH  17  19
HETATM   19  C   UNL     1      -8.337   9.058  69.279  1.00  0.00    -0.122 A  
HETATM   20  C   UNL     1      -7.538   9.422  67.009  1.00  0.00    -0.091 A  
HETATM   21  C   UNL     1      -8.346   9.795  68.085  1.00  0.00    -0.110 A  
HETATM   22  F   UNL     1      -7.561  10.154  65.888  1.00  0.00    -0.105 F  
HETATM   23  C   UNL     1      -6.716   8.306  67.102  1.00  0.00    -0.063 A  
HETATM   24  C   UNL     1      -7.498   7.926  69.341  1.00  0.00    -0.091 A  
HETATM   25  F   UNL     1      -5.945   7.951  66.067  1.00  0.00    -0.036 F  
HETATM   26  C   UNL     1      -6.692   7.551  68.264  1.00  0.00    -0.058 A  
ENDBRANCH  17  19
ENDBRANCH  14  16
ENDBRANCH  10  14
BRANCH  13  27
HETATM   27  C   UNL     1     -11.702  12.791  65.404  1.00  0.00    -0.387 C  
HETATM   28  C   UNL     1     -10.273  12.871  64.843  1.00  0.00    -0.296 C  
HETATM   29  C   UNL     1      -9.652  14.075  65.553  1.00  0.00     0.003 C  
HETATM   30  H   UNL     1     -13.007  15.495  64.236  1.00  0.00     0.000 HD 
HETATM   31  C   UNL     1     -10.825  15.084  65.632  1.00  0.00    -0.349 C  
HETATM   32  H   UNL     1     -11.485  16.697  64.642  1.00  0.00     0.000 HD 
HETATM   33  O   UNL     1     -12.744  14.583  64.200  1.00  0.00    -0.711 OA 
HETATM   34  C   UNL     1     -12.126  14.258  65.462  1.00  0.00    -0.394 C  
HETATM   35  O   UNL     1     -10.766  16.078  64.593  1.00  0.00    -0.601 OA 
BRANCH  29  36
HETATM   36  O   UNL     1      -9.201  13.744  66.873  1.00  0.00    -0.240 OA 
BRANCH  36  37
HETATM   37  C   UNL     1      -7.884  14.234  67.171  1.00  0.00    -0.056 C  
BRANCH  37  38
HETATM   38  C   UNL     1      -6.954  13.062  67.469  1.00  0.00    -0.151 C  
HETATM   39  H   UNL     1      -5.021  12.768  67.652  1.00  0.00     0.000 HD 
HETATM   40  O   UNL     1      -5.600  13.498  67.467  1.00  0.00    -0.320 OA 
ENDBRANCH  37  38
ENDBRANCH  36  37
ENDBRANCH  29  36
ENDBRANCH  13  27
ENDBRANCH   4   5
ENDBRANCH   3   4
ENDBRANCH   2   3
TORSDOF 10
ENDMDL
MODEL      164
REMARK 921   NORMALIZED FREE ENERGY PREDICTED BY IDOCK:   -4.24 KCAL/MOL
REMARK 922        TOTAL FREE ENERGY PREDICTED BY IDOCK:   -8.78 KCAL/MOL
REMARK 923 INTER-LIGAND FREE ENERGY PREDICTED BY IDOCK:   -7.48 KCAL/MOL
REMARK 924 INTRA-LIGAND FREE ENERGY PREDICTED BY IDOCK:   -1.29 KCAL/MOL
REMARK 927      BINDING AFFINITY PREDICTED BY RF-SCORE:    0.00 PKD
ROOT
HETATM    1  C   UNL     1      -6.325  10.791  70.389  1.00  0.00    -0.108 C  
HETATM    2  C   UNL     1      -5.350  10.188  69.387  1.00  0.00    -0.038 C  
ENDROOT
BRANCH   2   3
HETATM    3  C   UNL     1      -5.335   8.656  69.436  1.00  0.00    -0.031 C  
BRANCH   3   4
HETATM    4  S   UNL     1      -5.903   8.006  67.824  1.00  0.00    -0.043 SA 
BRANCH   4   5
HETATM    5  C   UNL     1      -7.578   7.558  68.227  1.00  0.00    -0.114 A  
HETATM    6  N   UNL     1      -7.718   6.519  69.082  1.00  0.00    -0.100 NA 
HETATM    7  C   UNL     1      -9.010   6.233  69.317  1.00  0.00    -0.125 A  
HETATM    8  C   UNL     1     -10.108   6.881  68.784  1.00  0.00    -0.166 A  
HETATM    9  N   UNL     1     -11.258   6.332  69.279  1.00  0.00    -0.400 NA 
HETATM   10  C   UNL     1      -9.868   7.969  67.932  1.00  0.00    -0.167 A  
HETATM   11  N   UNL     1      -8.567   8.286  67.667  1.00  0.00    -0.130 NA 
HETATM   12  N   UNL     1     -10.921   5.369  70.130  1.00  0.00    -0.156 NA 
HETATM   13  N   UNL     1      -9.563   5.323  70.181  1.00  0.00    -0.166 NA 
BRANCH  10  14
HETATM   14  N   UNL     1     -10.936   8.732  67.415  1.00  0.00    -0.418 NA 
HETATM   15  H   UNL     1     -11.656   8.300  66.838  1.00  0.00     0.000 HD 
BRANCH  14  16
HETATM   16  C   UNL     1     -10.983  10.162  67.729  1.00  0.00    -0.277 C  
HETATM   17  C   UNL     1     -10.497  10.669  69.069  1.00  0.00    -0.237 C  
HETATM   18  C   UNL     1      -9.722  10.968  67.813  1.00  0.00    -0.183 C  
BRANCH  17  19
HETATM   19  C   UNL     1     -11.333  11.707  69.777  1.00  0.00    -0.276 A  
HETATM   20  C   UNL     1     -12.841  12.419  71.549  1.00  0.00    -0.274 A  
HETATM   21  C   UNL     1     -12.070  11.428  70.938  1.00  0.00    -0.383 A  
HETATM   22  F   UNL     1     -13.523  12.123  72.663  1.00  0.00    -0.502 F  
HETATM   23  C   UNL     1     -12.898  13.698  71.010  1.00  0.00    -0.287 A  
HETATM   24  C   UNL     1     -11.415  13.011  69.249  1.00  0.00    -0.348 A  
HETATM   25  F   UNL     1     -13.641  14.643  71.598  1.00  0.00    -0.368 F  
HETATM   26  C   UNL     1     -12.190  14.002  69.858  1.00  0.00    -0.399 A  
ENDBRANCH  17  19
ENDBRANCH  14  16
ENDBRANCH  10  14
BRANCH  13  27
HETATM   27  C   UNL     1      -8.963   4.408  71.130  1.00  0.00    -0.121 C  
HETATM   28  C   UNL     1      -9.648   4.430  72.507  1.00  0.00    -0.190 C  
HETATM   29  C   UNL     1      -8.945   5.559  73.263  1.00  0.00    -0.123 C  
HETATM   30  H   UNL     1      -5.982   3.462  71.906  1.00  0.00     0.000 HD 
HETATM   31  C   UNL     1      -7.470   5.426  72.807  1.00  0.00    -0.097 C  
HETATM   32  H   UNL     1      -5.756   4.638  73.484  1.00  0.00     0.000 HD 
HETATM   33  O   UNL     1      -6.897   3.328  71.688  1.00  0.00    -0.029 OA 
HETATM   34  C   UNL     1      -7.491   4.625  71.480  1.00  0.00    -0.073 C  
HETATM   35  O   UNL     1      -6.660   4.719  73.764  1.00  0.00    -0.058 OA 
BRANCH  29  36
HETATM   36  O   UNL     1      -9.456   6.847  72.900  1.00  0.00    -0.138 OA 
BRANCH  36  37
HETATM   37  C   UNL     1     -10.855   7.012  73.183  1.00  0.00    -0.316 C  
BRANCH  37  38
HETATM   38  C   UNL     1     -11.451   8.051  72.237  1.00  0.00    -0.360 C  
HETATM   39  H   UNL     1     -13.224   8.492  71.516  1.00  0.00     0.000 HD 
HETATM   40  O   UNL     1     -12.853   7.845  72.104  1.00  0.00    -0.280 OA 
ENDBRANCH  37  38
ENDBRANCH  36  37
ENDBRANCH  29  36
ENDBRANCH  13  27
ENDBRANCH   4   5
ENDBRANCH   3   4
ENDBRANCH   2   3
TORSDOF 10
ENDMDL
MODEL      165
REMARK 921   NORMALIZED FREE ENERGY PREDICTED BY IDOCK:   -4.23 KCAL/MOL
REMARK 922        TOTAL FREE ENERGY PREDICTED BY IDOCK:   -8.76 KCAL/MOL
REMARK 923 INTER-LIGAND FREE ENERGY PREDICTED BY IDOCK:   -7.51 KCAL/MOL
REMARK 924 INTRA-LIGAND FREE ENERGY PREDICTED BY IDOCK:   -1.25 KCAL/MOL
REMARK 927      BINDING AFFINITY PREDICTED BY RF-SCORE:    0.00 PKD
ROOT
HETATM    1  C   UNL     1     -12.772  13.179  64.035  1.00  0.00    -0.131 C  
HETATM    2  C   UNL     1     -11.332  12.686  64.075  1.00  0.00    -0.466 C  
ENDROOT
BRANCH   2   3
HETATM    3  C   UNL     1     -11.048  11.809  65.300  1.00  0.00    -0.276 C  
BRANCH   3   4
HETATM    4  S   UNL     1      -9.554  10.806  64.976  1.00  0.00    -0.278 SA 
BRANCH   4   5
HETATM    5  C   UNL     1      -8.767  10.870  66.571  1.00  0.00    -0.163 A  
HETATM    6  N   UNL     1      -8.306   9.690  67.046  1.00  0.00    -0.117 NA 
HETATM    7  C   UNL     1      -7.746   9.822  68.261  1.00  0.00    -0.085 A  
HETATM    8  C   UNL     1      -7.623  10.990  68.989  1.00  0.00    -0.134 A  
HETATM    9  N   UNL     1      -6.969  10.739  70.164  1.00  0.00    -0.208 NA 
HETATM   10  C   UNL     1      -8.100  12.172  68.405  1.00  0.00    -0.149 A  
HETATM   11  N   UNL     1      -8.679  12.076  67.172  1.00  0.00    -0.177 NA 
HETATM   12  N   UNL     1      -6.652   9.448  70.190  1.00  0.00    -0.054 NA 
HETATM   13  N   UNL     1      -7.092   8.894  69.030  1.00  0.00    -0.064 NA 
BRANCH  10  14
HETATM   14  N   UNL     1      -7.935  13.415  69.050  1.00  0.00    -0.336 NA 
HETATM   15  H   UNL     1      -7.915  13.478  70.067  1.00  0.00     0.000 HD 
BRANCH  14  16
HETATM   16  C   UNL     1      -7.794  14.615  68.221  1.00  0.00    -0.128 C  
HETATM   17  C   UNL     1      -8.153  15.976  68.776  1.00  0.00    -0.212 C  
HETATM   18  C   UNL     1      -6.716  15.617  68.505  1.00  0.00    -0.114 C  
BRANCH  17  19
HETATM   19  C   UNL     1      -8.938  16.914  67.894  1.00  0.00    -0.225 A  
HETATM   20  C   UNL     1     -10.336  17.393  65.961  1.00  0.00    -0.304 A  
HETATM   21  C   UNL     1      -9.636  16.483  66.755  1.00  0.00    -0.268 A  
HETATM   22  F   UNL     1     -11.002  16.947  64.888  1.00  0.00    -0.408 F  
HETATM   23  C   UNL     1     -10.347  18.744  66.282  1.00  0.00    -0.448 A  
HETATM   24  C   UNL     1      -8.961  18.293  68.191  1.00  0.00    -0.314 A  
HETATM   25  F   UNL     1     -11.018  19.612  65.515  1.00  0.00    -0.554 F  
HETATM   26  C   UNL     1      -9.659  19.203  67.394  1.00  0.00    -0.373 A  
ENDBRANCH  17  19
ENDBRANCH  14  16
ENDBRANCH  10  14
BRANCH  13  27
HETATM   27  C   UNL     1      -6.764   7.503  68.790  1.00  0.00    -0.053 C  
HETATM   28  C   UNL     1      -7.919   6.712  68.153  1.00  0.00    -0.110 C  
HETATM   29  C   UNL     1      -8.754   6.234  69.342  1.00  0.00    -0.128 C  
HETATM   30  H   UNL     1      -5.162   5.175  70.337  1.00  0.00     0.000 HD 
HETATM   31  C   UNL     1      -7.685   5.888  70.409  1.00  0.00    -0.096 C  
HETATM   32  H   UNL     1      -6.741   4.268  71.117  1.00  0.00     0.000 HD 
HETATM   33  O   UNL     1      -5.390   5.707  69.583  1.00  0.00    -0.004 OA 
HETATM   34  C   UNL     1      -6.397   6.649  70.003  1.00  0.00    -0.039 C  
HETATM   35  O   UNL     1      -7.396   4.480  70.462  1.00  0.00    -0.047 OA 
BRANCH  29  36
HETATM   36  O   UNL     1      -9.624   7.261  69.833  1.00  0.00    -0.164 OA 
BRANCH  36  37
HETATM   37  C   UNL     1     -10.339   6.890  71.022  1.00  0.00    -0.205 C  
BRANCH  37  38
HETATM   38  C   UNL     1     -11.829   7.162  70.832  1.00  0.00    -0.339 C  
HETATM   39  H   UNL     1     -13.508   6.661  71.717  1.00  0.00     0.000 HD 
HETATM   40  O   UNL     1     -12.581   6.491  71.836  1.00  0.00    -0.341 OA 
ENDBRANCH  37  38
ENDBRANCH  36  37
ENDBRANCH  29  36
ENDBRANCH  13  27
ENDBRANCH   4   5
ENDBRANCH   3   4
ENDBRANCH   2   3
TORSDOF 10
ENDMDL
MODEL      166
REMARK 921   NORMALIZED FREE ENERGY PREDICTED BY IDOCK:   -4.18 KCAL/MOL
REMARK 922        TOTAL FREE ENERGY PREDICTED BY IDOCK:   -8.70 KCAL/MOL
REMARK 923 INTER-LIGAND FREE ENERGY PREDICTED BY IDOCK:   -7.66 KCAL/MOL
REMARK 924 INTRA-LIGAND FREE ENERGY PREDICTED BY IDOCK:   -1.03 KCAL/MOL
REMARK 927      BINDING AFFINITY PREDICTED BY RF-SCORE:    0.00 PKD
ROOT
HETATM    1  C   UNL     1      -8.980   9.656  63.639  1.00  0.00    -0.248 C  
HETATM    2  C   UNL     1      -7.465   9.503  63.610  1.00  0.00    -0.115 C  
ENDROOT
BRANCH   2   3
HETATM    3  C   UNL     1      -6.782  10.223  64.777  1.00  0.00    -0.089 C  
BRANCH   3   4
HETATM    4  S   UNL     1      -6.718   9.094  66.214  1.00  0.00    -0.071 SA 
BRANCH   4   5
HETATM    5  C   UNL     1      -8.229   9.538  67.043  1.00  0.00    -0.113 A  
HETATM    6  N   UNL     1      -8.361  10.845  67.365  1.00  0.00    -0.116 NA 
HETATM    7  C   UNL     1      -9.518  11.091  68.004  1.00  0.00    -0.166 A  
HETATM    8  C   UNL     1     -10.496  10.168  68.323  1.00  0.00    -0.211 A  
HETATM    9  N   UNL     1     -11.542  10.794  68.941  1.00  0.00    -0.294 NA 
HETATM   10  C   UNL     1     -10.290   8.841  67.921  1.00  0.00    -0.224 A  
HETATM   11  N   UNL     1      -9.124   8.553  67.273  1.00  0.00    -0.132 NA 
HETATM   12  N   UNL     1     -11.266  12.094  69.002  1.00  0.00    -0.248 NA 
HETATM   13  N   UNL     1     -10.058  12.285  68.410  1.00  0.00    -0.218 NA 
BRANCH  10  14
HETATM   14  N   UNL     1     -11.279   7.858  68.136  1.00  0.00    -0.188 NA 
HETATM   15  H   UNL     1     -12.257   8.044  67.916  1.00  0.00     0.000 HD 
BRANCH  14  16
HETATM   16  C   UNL     1     -10.866   6.565  68.685  1.00  0.00    -0.295 C  
HETATM   17  C   UNL     1      -9.718   6.480  69.668  1.00  0.00    -0.167 C  
HETATM   18  C   UNL     1     -11.131   6.224  70.120  1.00  0.00    -0.443 C  
BRANCH  17  19
HETATM   19  C   UNL     1      -8.708   5.375  69.482  1.00  0.00    -0.108 A  
HETATM   20  C   UNL     1      -6.697   4.437  68.484  1.00  0.00    -0.047 A  
HETATM   21  C   UNL     1      -7.596   5.494  68.635  1.00  0.00    -0.080 A  
HETATM   22  F   UNL     1      -5.639   4.587  67.678  1.00  0.00    -0.014 F  
HETATM   23  C   UNL     1      -6.895   3.243  69.166  1.00  0.00    -0.041 A  
HETATM   24  C   UNL     1      -8.888   4.149  70.155  1.00  0.00    -0.133 A  
HETATM   25  F   UNL     1      -6.032   2.231  69.016  1.00  0.00    -0.021 F  
HETATM   26  C   UNL     1      -7.991   3.089  70.002  1.00  0.00    -0.051 A  
ENDBRANCH  17  19
ENDBRANCH  14  16
ENDBRANCH  10  14
BRANCH  13  27
HETATM   27  C   UNL     1      -9.594  13.650  68.268  1.00  0.00    -0.215 C  
HETATM   28  C   UNL     1     -10.725  14.686  68.379  1.00  0.00    -0.242 C  
HETATM   29  C   UNL     1     -11.275  14.802  66.957  1.00  0.00    -0.345 C  
HETATM   30  H   UNL     1      -7.458  15.218  66.435  1.00  0.00     0.000 HD 
HETATM   31  C   UNL     1     -10.005  14.700  66.076  1.00  0.00    -0.316 C  
HETATM   32  H   UNL     1      -8.748  15.925  65.108  1.00  0.00     0.000 HD 
HETATM   33  O   UNL     1      -7.880  14.982  67.254  1.00  0.00    -0.186 OA 
HETATM   34  C   UNL     1      -8.917  14.027  66.951  1.00  0.00    -0.227 C  
HETATM   35  O   UNL     1      -9.526  15.988  65.648  1.00  0.00    -0.387 OA 
BRANCH  29  36
HETATM   36  O   UNL     1     -12.177  13.734  66.642  1.00  0.00    -0.426 OA 
BRANCH  36  37
HETATM   37  C   UNL     1     -12.800  13.867  65.354  1.00  0.00    -0.427 C  
BRANCH  37  38
HETATM   38  C   UNL     1     -12.386  12.701  64.461  1.00  0.00    -0.464 C  
HETATM   39  H   UNL     1     -13.253  11.148  63.627  1.00  0.00     0.000 HD 
HETATM   40  O   UNL     1     -13.511  11.874  64.183  1.00  0.00    -0.591 OA 
ENDBRANCH  37  38
ENDBRANCH  36  37
ENDBRANCH  29  36
ENDBRANCH  13  27
ENDBRANCH   4   5
ENDBRANCH   3   4
ENDBRANCH   2   3
TORSDOF 10
ENDMDL
MODEL      167
REMARK 921   NORMALIZED FREE ENERGY PREDICTED BY IDOCK:   -4.17 KCAL/MOL
REMARK 922        TOTAL FREE ENERGY PREDICTED BY IDOCK:   -8.67 KCAL/MOL
REMARK 923 INTER-LIGAND FREE ENERGY PREDICTED BY IDOCK:   -7.81 KCAL/MOL
REMARK 924 INTRA-LIGAND FREE ENERGY PREDICTED BY IDOCK:   -0.86 KCAL/MOL
REMARK 927      BINDING AFFINITY PREDICTED BY RF-SCORE:    0.00 PKD
ROOT
HETATM    1  C   UNL     1      -6.674  10.912  69.057  1.00  0.00    -0.070 C  
HETATM    2  C   UNL     1      -5.343  10.249  68.727  1.00  0.00    -0.038 C  
ENDROOT
BRANCH   2   3
HETATM    3  C   UNL     1      -5.179   8.891  69.417  1.00  0.00    -0.035 C  
BRANCH   3   4
HETATM    4  S   UNL     1      -5.180   7.577  68.145  1.00  0.00    -0.027 SA 
BRANCH   4   5
HETATM    5  C   UNL     1      -6.895   7.102  68.170  1.00  0.00    -0.074 A  
HETATM    6  N   UNL     1      -7.257   6.259  69.164  1.00  0.00    -0.084 NA 
HETATM    7  C   UNL     1      -8.560   5.935  69.099  1.00  0.00    -0.115 A  
HETATM    8  C   UNL     1      -9.473   6.375  68.160  1.00  0.00    -0.114 A  
HETATM    9  N   UNL     1     -10.709   5.860  68.435  1.00  0.00    -0.255 NA 
HETATM   10  C   UNL     1      -9.017   7.274  67.185  1.00  0.00    -0.126 A  
HETATM   11  N   UNL     1      -7.698   7.623  67.217  1.00  0.00    -0.111 NA 
HETATM   12  N   UNL     1     -10.611   5.124  69.538  1.00  0.00    -0.175 NA 
HETATM   13  N   UNL     1      -9.322   5.189  69.962  1.00  0.00    -0.139 NA 
BRANCH  10  14
HETATM   14  N   UNL     1      -9.907   7.832  66.243  1.00  0.00    -0.459 NA 
HETATM   15  H   UNL     1     -10.688   7.288  65.875  1.00  0.00     0.000 HD 
BRANCH  14  16
HETATM   16  C   UNL     1      -9.682   9.212  65.807  1.00  0.00    -0.229 C  
HETATM   17  C   UNL     1     -10.407  10.357  66.480  1.00  0.00    -0.287 C  
HETATM   18  C   UNL     1      -8.925  10.173  66.673  1.00  0.00    -0.156 C  
BRANCH  17  19
HETATM   19  C   UNL     1     -10.987  11.439  65.604  1.00  0.00    -0.254 A  
HETATM   20  C   UNL     1     -12.388  13.393  65.231  1.00  0.00    -0.469 A  
HETATM   21  C   UNL     1     -11.866  12.420  66.086  1.00  0.00    -0.442 A  
HETATM   22  F   UNL     1     -13.215  14.323  65.726  1.00  0.00    -0.526 F  
HETATM   23  C   UNL     1     -12.051  13.399  63.884  1.00  0.00    -0.455 A  
HETATM   24  C   UNL     1     -10.668  11.466  64.230  1.00  0.00    -0.420 A  
HETATM   25  F   UNL     1     -12.556  14.332  63.068  1.00  0.00    -0.092 F  
HETATM   26  C   UNL     1     -11.193  12.437  63.374  1.00  0.00    -0.492 A  
ENDBRANCH  17  19
ENDBRANCH  14  16
ENDBRANCH  10  14
BRANCH  13  27
HETATM   27  C   UNL     1      -8.999   4.540  71.216  1.00  0.00    -0.127 C  
HETATM   28  C   UNL     1     -10.229   4.310  72.111  1.00  0.00    -0.234 C  
HETATM   29  C   UNL     1     -10.369   5.610  72.905  1.00  0.00    -0.195 C  
HETATM   30  H   UNL     1      -6.634   4.704  73.398  1.00  0.00     0.000 HD 
HETATM   31  C   UNL     1      -8.900   6.010  73.193  1.00  0.00    -0.128 C  
HETATM   32  H   UNL     1      -7.574   5.875  74.690  1.00  0.00     0.000 HD 
HETATM   33  O   UNL     1      -7.237   4.256  72.816  1.00  0.00    -0.067 OA 
HETATM   34  C   UNL     1      -8.030   5.261  72.151  1.00  0.00    -0.110 C  
HETATM   35  O   UNL     1      -8.475   5.629  74.514  1.00  0.00    -0.108 OA 
BRANCH  29  36
HETATM   36  O   UNL     1     -11.017   6.636  72.143  1.00  0.00    -0.229 OA 
BRANCH  36  37
HETATM   37  C   UNL     1     -10.936   7.938  72.745  1.00  0.00    -0.393 C  
BRANCH  37  38
HETATM   38  C   UNL     1     -11.253   9.007  71.703  1.00  0.00    -0.361 C  
HETATM   39  H   UNL     1     -10.900   9.306  69.794  1.00  0.00     0.000 HD 
HETATM   40  O   UNL     1     -10.703   8.640  70.443  1.00  0.00    -0.215 OA 
ENDBRANCH  37  38
ENDBRANCH  36  37
ENDBRANCH  29  36
ENDBRANCH  13  27
ENDBRANCH   4   5
ENDBRANCH   3   4
ENDBRANCH   2   3
TORSDOF 10
ENDMDL
MODEL      168
REMARK 921   NORMALIZED FREE ENERGY PREDICTED BY IDOCK:   -4.16 KCAL/MOL
REMARK 922        TOTAL FREE ENERGY PREDICTED BY IDOCK:   -8.66 KCAL/MOL
REMARK 923 INTER-LIGAND FREE ENERGY PREDICTED BY IDOCK:   -7.73 KCAL/MOL
REMARK 924 INTRA-LIGAND FREE ENERGY PREDICTED BY IDOCK:   -0.93 KCAL/MOL
REMARK 927      BINDING AFFINITY PREDICTED BY RF-SCORE:    0.00 PKD
ROOT
HETATM    1  C   UNL     1      -9.351   5.784  71.989  1.00  0.00    -0.163 C  
HETATM    2  C   UNL     1     -10.763   6.229  71.636  1.00  0.00    -0.284 C  
ENDROOT
BRANCH   2   3
HETATM    3  C   UNL     1     -10.778   7.470  70.736  1.00  0.00    -0.229 C  
BRANCH   3   4
HETATM    4  S   UNL     1     -11.490   8.871  71.671  1.00  0.00    -0.364 SA 
BRANCH   4   5
HETATM    5  C   UNL     1     -11.468  10.140  70.423  1.00  0.00    -0.322 A  
HETATM    6  N   UNL     1     -12.102  11.290  70.744  1.00  0.00    -0.364 NA 
HETATM    7  C   UNL     1     -12.056  12.186  69.743  1.00  0.00    -0.237 A  
HETATM    8  C   UNL     1     -11.450  12.016  68.512  1.00  0.00    -0.293 A  
HETATM    9  N   UNL     1     -11.581  13.155  67.768  1.00  0.00    -0.316 NA 
HETATM   10  C   UNL     1     -10.788  10.802  68.278  1.00  0.00    -0.229 A  
HETATM   11  N   UNL     1     -10.817   9.867  69.272  1.00  0.00    -0.224 NA 
HETATM   12  N   UNL     1     -12.232  14.053  68.502  1.00  0.00    -0.279 NA 
HETATM   13  N   UNL     1     -12.495  13.485  69.708  1.00  0.00    -0.176 NA 
BRANCH  10  14
HETATM   14  N   UNL     1     -10.077  10.586  67.080  1.00  0.00    -0.204 NA 
HETATM   15  H   UNL     1     -10.174  11.225  66.291  1.00  0.00     0.000 HD 
BRANCH  14  16
HETATM   16  C   UNL     1      -9.194   9.420  66.996  1.00  0.00    -0.142 C  
HETATM   17  C   UNL     1      -7.854   9.522  66.300  1.00  0.00    -0.100 C  
HETATM   18  C   UNL     1      -7.928   9.361  67.796  1.00  0.00    -0.096 C  
BRANCH  17  19
HETATM   19  C   UNL     1      -7.448   8.398  65.380  1.00  0.00    -0.085 A  
HETATM   20  C   UNL     1      -7.462   6.065  64.688  1.00  0.00    -0.080 A  
HETATM   21  C   UNL     1      -7.877   7.074  65.560  1.00  0.00    -0.115 A  
HETATM   22  F   UNL     1      -7.900   4.814  64.881  1.00  0.00    -0.083 F  
HETATM   23  C   UNL     1      -6.609   6.355  63.631  1.00  0.00    -0.033 A  
HETATM   24  C   UNL     1      -6.577   8.662  64.303  1.00  0.00    -0.071 A  
HETATM   25  F   UNL     1      -6.212   5.384  62.801  1.00  0.00    -0.020 F  
HETATM   26  C   UNL     1      -6.159   7.652  63.433  1.00  0.00    -0.054 A  
ENDBRANCH  17  19
ENDBRANCH  14  16
ENDBRANCH  10  14
BRANCH  13  27
HETATM   27  C   UNL     1     -13.113  14.320  70.717  1.00  0.00    -0.259 C  
HETATM   28  C   UNL     1     -12.763  15.810  70.565  1.00  0.00    -0.277 C  
HETATM   29  C   UNL     1     -11.454  15.974  71.338  1.00  0.00    -0.398 C  
HETATM   30  H   UNL     1     -13.719  14.117  73.875  1.00  0.00     0.000 HD 
HETATM   31  C   UNL     1     -11.645  15.042  72.561  1.00  0.00    -0.249 C  
HETATM   32  H   UNL     1     -12.170  15.188  74.490  1.00  0.00     0.000 HD 
HETATM   33  O   UNL     1     -13.938  14.293  72.967  1.00  0.00    -0.497 OA 
HETATM   34  C   UNL     1     -12.760  14.036  72.176  1.00  0.00    -0.260 C  
HETATM   35  O   UNL     1     -12.053  15.759  73.740  1.00  0.00    -0.462 OA 
BRANCH  29  36
HETATM   36  O   UNL     1     -10.321  15.548  70.569  1.00  0.00    -0.260 OA 
BRANCH  36  37
HETATM   37  C   UNL     1      -9.995  16.433  69.487  1.00  0.00    -0.161 C  
BRANCH  37  38
HETATM   38  C   UNL     1      -9.176  15.683  68.439  1.00  0.00    -0.191 C  
HETATM   39  H   UNL     1      -7.835  14.249  68.416  1.00  0.00     0.000 HD 
HETATM   40  O   UNL     1      -8.344  14.715  69.068  1.00  0.00    -0.155 OA 
ENDBRANCH  37  38
ENDBRANCH  36  37
ENDBRANCH  29  36
ENDBRANCH  13  27
ENDBRANCH   4   5
ENDBRANCH   3   4
ENDBRANCH   2   3
TORSDOF 10
ENDMDL
MODEL      169
REMARK 921   NORMALIZED FREE ENERGY PREDICTED BY IDOCK:   -4.16 KCAL/MOL
REMARK 922        TOTAL FREE ENERGY PREDICTED BY IDOCK:   -8.65 KCAL/MOL
REMARK 923 INTER-LIGAND FREE ENERGY PREDICTED BY IDOCK:   -7.12 KCAL/MOL
REMARK 924 INTRA-LIGAND FREE ENERGY PREDICTED BY IDOCK:   -1.53 KCAL/MOL
REMARK 927      BINDING AFFINITY PREDICTED BY RF-SCORE:    0.00 PKD
ROOT
HETATM    1  C   UNL     1      -6.445  13.977  70.489  1.00  0.00     0.036 C  
HETATM    2  C   UNL     1      -5.343  12.927  70.474  1.00  0.00    -0.138 C  
ENDROOT
BRANCH   2   3
HETATM    3  C   UNL     1      -5.896  11.498  70.450  1.00  0.00    -0.155 C  
BRANCH   3   4
HETATM    4  S   UNL     1      -5.569  10.764  68.807  1.00  0.00    -0.039 SA 
BRANCH   4   5
HETATM    5  C   UNL     1      -7.169  10.937  68.048  1.00  0.00    -0.086 A  
HETATM    6  N   UNL     1      -7.205  10.772  66.707  1.00  0.00    -0.121 NA 
HETATM    7  C   UNL     1      -8.443  10.939  66.212  1.00  0.00    -0.166 A  
HETATM    8  C   UNL     1      -9.584  11.240  66.931  1.00  0.00    -0.191 A  
HETATM    9  N   UNL     1     -10.661  11.299  66.091  1.00  0.00    -0.266 NA 
HETATM   10  C   UNL     1      -9.460  11.360  68.323  1.00  0.00    -0.187 A  
HETATM   11  N   UNL     1      -8.216  11.202  68.860  1.00  0.00    -0.133 NA 
HETATM   12  N   UNL     1     -10.240  11.018  64.861  1.00  0.00    -0.290 NA 
HETATM   13  N   UNL     1      -8.906  10.770  64.932  1.00  0.00    -0.187 NA 
BRANCH  10  14
HETATM   14  N   UNL     1     -10.593  11.585  69.132  1.00  0.00    -0.369 NA 
HETATM   15  H   UNL     1     -10.877  12.531  69.385  1.00  0.00     0.000 HD 
BRANCH  14  16
HETATM   16  C   UNL     1     -11.352  10.423  69.602  1.00  0.00    -0.272 C  
HETATM   17  C   UNL     1     -11.290  10.003  71.055  1.00  0.00    -0.434 C  
HETATM   18  C   UNL     1     -12.550  10.600  70.486  1.00  0.00    -0.433 C  
BRANCH  17  19
HETATM   19  C   UNL     1     -11.150   8.532  71.359  1.00  0.00    -0.328 A  
HETATM   20  C   UNL     1     -11.084   6.191  70.700  1.00  0.00    -0.317 A  
HETATM   21  C   UNL     1     -11.203   7.541  70.367  1.00  0.00    -0.270 A  
HETATM   22  F   UNL     1     -11.126   5.271  69.729  1.00  0.00    -0.328 F  
HETATM   23  C   UNL     1     -10.920   5.805  72.025  1.00  0.00    -0.260 A  
HETATM   24  C   UNL     1     -10.991   8.111  72.695  1.00  0.00    -0.440 A  
HETATM   25  F   UNL     1     -10.809   4.509  72.340  1.00  0.00    -0.256 F  
HETATM   26  C   UNL     1     -10.875   6.759  73.029  1.00  0.00    -0.314 A  
ENDBRANCH  17  19
ENDBRANCH  14  16
ENDBRANCH  10  14
BRANCH  13  27
HETATM   27  C   UNL     1      -8.244  10.339  63.718  1.00  0.00    -0.153 C  
HETATM   28  C   UNL     1      -8.801   9.017  63.163  1.00  0.00    -0.034 C  
HETATM   29  C   UNL     1      -8.006   7.933  63.893  1.00  0.00    -0.121 C  
HETATM   30  H   UNL     1      -5.229  10.295  62.583  1.00  0.00     0.000 HD 
HETATM   31  C   UNL     1      -6.582   8.537  63.982  1.00  0.00    -0.075 C  
HETATM   32  H   UNL     1      -4.833   8.402  63.013  1.00  0.00     0.000 HD 
HETATM   33  O   UNL     1      -6.162  10.464  62.536  1.00  0.00    -0.126 OA 
HETATM   34  C   UNL     1      -6.742  10.067  63.795  1.00  0.00    -0.128 C  
HETATM   35  O   UNL     1      -5.706   8.032  62.958  1.00  0.00    -0.062 OA 
BRANCH  29  36
HETATM   36  O   UNL     1      -8.518   7.688  65.209  1.00  0.00    -0.138 OA 
BRANCH  36  37
HETATM   37  C   UNL     1      -8.027   6.476  65.802  1.00  0.00    -0.115 C  
BRANCH  37  38
HETATM   38  C   UNL     1      -8.707   6.250  67.150  1.00  0.00    -0.109 C  
HETATM   39  H   UNL     1      -9.626   4.779  68.070  1.00  0.00     0.000 HD 
HETATM   40  O   UNL     1      -9.202   4.919  67.231  1.00  0.00    -0.117 OA 
ENDBRANCH  37  38
ENDBRANCH  36  37
ENDBRANCH  29  36
ENDBRANCH  13  27
ENDBRANCH   4   5
ENDBRANCH   3   4
ENDBRANCH   2   3
TORSDOF 10
ENDMDL
MODEL      170
REMARK 921   NORMALIZED FREE ENERGY PREDICTED BY IDOCK:   -4.16 KCAL/MOL
REMARK 922        TOTAL FREE ENERGY PREDICTED BY IDOCK:   -8.65 KCAL/MOL
REMARK 923 INTER-LIGAND FREE ENERGY PREDICTED BY IDOCK:   -7.51 KCAL/MOL
REMARK 924 INTRA-LIGAND FREE ENERGY PREDICTED BY IDOCK:   -1.14 KCAL/MOL
REMARK 927      BINDING AFFINITY PREDICTED BY RF-SCORE:    0.00 PKD
ROOT
HETATM    1  C   UNL     1      -7.452   8.171  73.954  1.00  0.00    -0.218 C  
HETATM    2  C   UNL     1      -7.433   8.650  72.509  1.00  0.00    -0.007 C  
ENDROOT
BRANCH   2   3
HETATM    3  C   UNL     1      -6.080   9.248  72.108  1.00  0.00     0.074 C  
BRANCH   3   4
HETATM    4  S   UNL     1      -5.293   8.157  70.870  1.00  0.00    -0.029 SA 
BRANCH   4   5
HETATM    5  C   UNL     1      -6.478   8.261  69.546  1.00  0.00    -0.037 A  
HETATM    6  N   UNL     1      -7.466   7.339  69.567  1.00  0.00    -0.089 NA 
HETATM    7  C   UNL     1      -8.303   7.474  68.524  1.00  0.00    -0.126 A  
HETATM    8  C   UNL     1      -8.222   8.420  67.520  1.00  0.00    -0.125 A  
HETATM    9  N   UNL     1      -9.268   8.267  66.652  1.00  0.00    -0.167 NA 
HETATM   10  C   UNL     1      -7.183   9.359  67.596  1.00  0.00    -0.083 A  
HETATM   11  N   UNL     1      -6.311   9.249  68.639  1.00  0.00    -0.048 NA 
HETATM   12  N   UNL     1     -10.024   7.266  67.091  1.00  0.00    -0.195 NA 
HETATM   13  N   UNL     1      -9.464   6.802  68.239  1.00  0.00    -0.126 NA 
BRANCH  10  14
HETATM   14  N   UNL     1      -7.083  10.404  66.654  1.00  0.00    -0.106 NA 
HETATM   15  H   UNL     1      -6.441  10.337  65.865  1.00  0.00     0.000 HD 
BRANCH  14  16
HETATM   16  C   UNL     1      -7.925  11.588  66.839  1.00  0.00    -0.164 C  
HETATM   17  C   UNL     1      -9.260  11.477  67.543  1.00  0.00    -0.166 C  
HETATM   18  C   UNL     1      -8.109  12.191  68.200  1.00  0.00    -0.161 C  
BRANCH  17  19
HETATM   19  C   UNL     1     -10.437  12.208  66.944  1.00  0.00    -0.250 A  
HETATM   20  C   UNL     1     -12.106  12.551  65.207  1.00  0.00    -0.444 A  
HETATM   21  C   UNL     1     -11.028  11.833  65.728  1.00  0.00    -0.353 A  
HETATM   22  F   UNL     1     -12.655  12.160  64.051  1.00  0.00    -0.512 F  
HETATM   23  C   UNL     1     -12.607  13.657  65.883  1.00  0.00    -0.425 A  
HETATM   24  C   UNL     1     -10.961  13.339  67.604  1.00  0.00    -0.281 A  
HETATM   25  F   UNL     1     -13.639  14.343  65.378  1.00  0.00    -0.311 F  
HETATM   26  C   UNL     1     -12.038  14.059  67.082  1.00  0.00    -0.436 A  
ENDBRANCH  17  19
ENDBRANCH  14  16
ENDBRANCH  10  14
BRANCH  13  27
HETATM   27  C   UNL     1     -10.179   5.767  68.958  1.00  0.00    -0.217 C  
HETATM   28  C   UNL     1     -11.567   6.218  69.443  1.00  0.00    -0.172 C  
HETATM   29  C   UNL     1     -11.302   6.874  70.799  1.00  0.00    -0.310 C  
HETATM   30  H   UNL     1      -9.453   3.483  71.110  1.00  0.00     0.000 HD 
HETATM   31  C   UNL     1     -10.195   5.981  71.414  1.00  0.00    -0.206 C  
HETATM   32  H   UNL     1     -10.041   4.471  72.724  1.00  0.00     0.000 HD 
HETATM   33  O   UNL     1      -9.854   3.821  70.318  1.00  0.00    -0.190 OA 
HETATM   34  C   UNL     1      -9.535   5.224  70.233  1.00  0.00    -0.168 C  
HETATM   35  O   UNL     1     -10.720   5.018  72.347  1.00  0.00    -0.215 OA 
BRANCH  29  36
HETATM   36  O   UNL     1     -10.826   8.218  70.661  1.00  0.00    -0.227 OA 
BRANCH  36  37
HETATM   37  C   UNL     1     -11.138   9.058  71.783  1.00  0.00    -0.374 C  
BRANCH  37  38
HETATM   38  C   UNL     1     -11.977  10.246  71.320  1.00  0.00    -0.363 C  
HETATM   39  H   UNL     1     -11.991  11.495  69.805  1.00  0.00     0.000 HD 
HETATM   40  O   UNL     1     -11.468  10.756  70.093  1.00  0.00    -0.289 OA 
ENDBRANCH  37  38
ENDBRANCH  36  37
ENDBRANCH  29  36
ENDBRANCH  13  27
ENDBRANCH   4   5
ENDBRANCH   3   4
ENDBRANCH   2   3
TORSDOF 10
ENDMDL
MODEL      171
REMARK 921   NORMALIZED FREE ENERGY PREDICTED BY IDOCK:   -4.15 KCAL/MOL
REMARK 922        TOTAL FREE ENERGY PREDICTED BY IDOCK:   -8.65 KCAL/MOL
REMARK 923 INTER-LIGAND FREE ENERGY PREDICTED BY IDOCK:   -7.31 KCAL/MOL
REMARK 924 INTRA-LIGAND FREE ENERGY PREDICTED BY IDOCK:   -1.34 KCAL/MOL
REMARK 927      BINDING AFFINITY PREDICTED BY RF-SCORE:    0.00 PKD
ROOT
HETATM    1  C   UNL     1      -8.156   3.344  69.444  1.00  0.00    -0.064 C  
HETATM    2  C   UNL     1      -8.735   4.532  68.688  1.00  0.00    -0.118 C  
ENDROOT
BRANCH   2   3
HETATM    3  C   UNL     1     -10.235   4.377  68.415  1.00  0.00     0.225 C  
BRANCH   3   4
HETATM    4  S   UNL     1     -10.746   5.630  67.185  1.00  0.00    -0.159 SA 
BRANCH   4   5
HETATM    5  C   UNL     1     -10.041   7.098  67.905  1.00  0.00    -0.173 A  
HETATM    6  N   UNL     1      -9.256   7.834  67.086  1.00  0.00    -0.141 NA 
HETATM    7  C   UNL     1      -8.749   8.911  67.711  1.00  0.00    -0.125 A  
HETATM    8  C   UNL     1      -8.965   9.279  69.025  1.00  0.00    -0.140 A  
HETATM    9  N   UNL     1      -8.311  10.449  69.294  1.00  0.00    -0.158 NA 
HETATM   10  C   UNL     1      -9.820   8.474  69.791  1.00  0.00    -0.186 A  
HETATM   11  N   UNL     1     -10.351   7.369  69.191  1.00  0.00    -0.204 NA 
HETATM   12  N   UNL     1      -7.706  10.848  68.179  1.00  0.00    -0.100 NA 
HETATM   13  N   UNL     1      -7.991   9.938  67.210  1.00  0.00    -0.109 NA 
BRANCH  10  14
HETATM   14  N   UNL     1     -10.155   8.830  71.114  1.00  0.00    -0.224 NA 
HETATM   15  H   UNL     1      -9.856   8.255  71.902  1.00  0.00     0.000 HD 
BRANCH  14  16
HETATM   16  C   UNL     1     -10.943  10.045  71.329  1.00  0.00    -0.009 C  
HETATM   17  C   UNL     1     -11.857  10.568  70.241  1.00  0.00    -0.418 C  
HETATM   18  C   UNL     1     -12.431   9.971  71.499  1.00  0.00    -0.516 C  
BRANCH  17  19
HETATM   19  C   UNL     1     -11.856  12.052  69.971  1.00  0.00    -0.392 A  
HETATM   20  C   UNL     1     -11.133  14.018  68.734  1.00  0.00    -0.264 A  
HETATM   21  C   UNL     1     -11.113  12.636  68.935  1.00  0.00    -0.307 A  
HETATM   22  F   UNL     1     -10.422  14.543  67.728  1.00  0.00    -0.235 F  
HETATM   23  C   UNL     1     -11.884  14.839  69.564  1.00  0.00    -0.326 A  
HETATM   24  C   UNL     1     -12.604  12.910  70.803  1.00  0.00    -0.314 A  
HETATM   25  F   UNL     1     -11.898  16.163  69.369  1.00  0.00    -0.320 F  
HETATM   26  C   UNL     1     -12.622  14.293  70.604  1.00  0.00    -0.424 A  
ENDBRANCH  17  19
ENDBRANCH  14  16
ENDBRANCH  10  14
BRANCH  13  27
HETATM   27  C   UNL     1      -7.517  10.222  65.871  1.00  0.00    -0.135 C  
HETATM   28  C   UNL     1      -8.225  11.423  65.221  1.00  0.00     0.451 C  
HETATM   29  C   UNL     1      -9.474  10.824  64.573  1.00  0.00    -0.252 C  
HETATM   30  H   UNL     1      -6.645   8.510  63.285  1.00  0.00     0.000 HD 
HETATM   31  C   UNL     1      -8.973   9.460  64.032  1.00  0.00    -0.132 C  
HETATM   32  H   UNL     1      -8.355   8.670  62.297  1.00  0.00     0.000 HD 
HETATM   33  O   UNL     1      -6.543   9.192  63.938  1.00  0.00    -0.088 OA 
HETATM   34  C   UNL     1      -7.681   9.124  64.821  1.00  0.00    -0.111 C  
HETATM   35  O   UNL     1      -8.662   9.506  62.628  1.00  0.00    -0.198 OA 
BRANCH  29  36
HETATM   36  O   UNL     1     -10.525  10.617  65.524  1.00  0.00    -0.248 OA 
BRANCH  36  37
HETATM   37  C   UNL     1     -11.372  11.763  65.703  1.00  0.00    -0.233 C  
BRANCH  37  38
HETATM   38  C   UNL     1     -12.018  12.138  64.372  1.00  0.00    -0.361 C  
HETATM   39  H   UNL     1     -13.799  12.662  63.732  1.00  0.00     0.000 HD 
HETATM   40  O   UNL     1     -13.398  12.430  64.561  1.00  0.00    -0.800 OA 
ENDBRANCH  37  38
ENDBRANCH  36  37
ENDBRANCH  29  36
ENDBRANCH  13  27
ENDBRANCH   4   5
ENDBRANCH   3   4
ENDBRANCH   2   3
TORSDOF 10
ENDMDL
MODEL      172
REMARK 921   NORMALIZED FREE ENERGY PREDICTED BY IDOCK:   -4.10 KCAL/MOL
REMARK 922        TOTAL FREE ENERGY PREDICTED BY IDOCK:   -8.56 KCAL/MOL
REMARK 923 INTER-LIGAND FREE ENERGY PREDICTED BY IDOCK:   -7.59 KCAL/MOL
REMARK 924 INTRA-LIGAND FREE ENERGY PREDICTED BY IDOCK:   -0.97 KCAL/MOL
REMARK 927      BINDING AFFINITY PREDICTED BY RF-SCORE:    0.00 PKD
ROOT
HETATM    1  C   UNL     1     -12.385  14.962  64.176  1.00  0.00    -0.212 C  
HETATM    2  C   UNL     1     -11.721  14.440  65.442  1.00  0.00    -0.362 C  
ENDROOT
BRANCH   2   3
HETATM    3  C   UNL     1     -12.083  12.980  65.734  1.00  0.00    -0.454 C  
BRANCH   3   4
HETATM    4  S   UNL     1     -11.631  12.592  67.463  1.00  0.00    -0.364 SA 
BRANCH   4   5
HETATM    5  C   UNL     1      -9.860  12.488  67.320  1.00  0.00    -0.204 A  
HETATM    6  N   UNL     1      -9.160  13.433  67.988  1.00  0.00    -0.198 NA 
HETATM    7  C   UNL     1      -7.835  13.297  67.812  1.00  0.00    -0.157 A  
HETATM    8  C   UNL     1      -7.199  12.330  67.055  1.00  0.00    -0.037 A  
HETATM    9  N   UNL     1      -5.844  12.489  67.141  1.00  0.00    -0.307 NA 
HETATM   10  C   UNL     1      -8.003  11.370  66.423  1.00  0.00    -0.088 A  
HETATM   11  N   UNL     1      -9.354  11.480  66.577  1.00  0.00    -0.192 NA 
HETATM   12  N   UNL     1      -5.600  13.515  67.950  1.00  0.00    -0.154 NA 
HETATM   13  N   UNL     1      -6.798  13.989  68.384  1.00  0.00    -0.089 NA 
BRANCH  10  14
HETATM   14  N   UNL     1      -7.424  10.304  65.703  1.00  0.00    -0.144 NA 
HETATM   15  H   UNL     1      -6.760  10.482  64.949  1.00  0.00     0.000 HD 
BRANCH  14  16
HETATM   16  C   UNL     1      -7.802   8.936  66.063  1.00  0.00    -0.102 C  
HETATM   17  C   UNL     1      -9.249   8.498  65.998  1.00  0.00    -0.262 C  
HETATM   18  C   UNL     1      -8.245   7.964  65.011  1.00  0.00    -0.134 C  
BRANCH  17  19
HETATM   19  C   UNL     1      -9.788   7.672  67.139  1.00  0.00    -0.265 A  
HETATM   20  C   UNL     1     -10.646   7.420  69.403  1.00  0.00    -0.226 A  
HETATM   21  C   UNL     1     -10.167   8.229  68.371  1.00  0.00    -0.242 A  
HETATM   22  F   UNL     1     -11.011   7.985  70.561  1.00  0.00    -0.232 F  
HETATM   23  C   UNL     1     -10.749   6.046  69.229  1.00  0.00    -0.332 A  
HETATM   24  C   UNL     1      -9.897   6.273  66.995  1.00  0.00    -0.185 A  
HETATM   25  F   UNL     1     -11.207   5.275  70.223  1.00  0.00    -0.245 F  
HETATM   26  C   UNL     1     -10.374   5.464  68.028  1.00  0.00    -0.215 A  
ENDBRANCH  17  19
ENDBRANCH  14  16
ENDBRANCH  10  14
BRANCH  13  27
HETATM   27  C   UNL     1      -6.777  15.053  69.367  1.00  0.00    -0.158 C  
HETATM   28  C   UNL     1      -8.042  15.928  69.337  1.00  0.00    -0.178 C  
HETATM   29  C   UNL     1      -7.741  16.995  68.284  1.00  0.00    -0.209 C  
HETATM   30  H   UNL     1      -4.595  17.111  70.542  1.00  0.00     0.000 HD 
HETATM   31  C   UNL     1      -6.238  17.299  68.506  1.00  0.00    -0.160 C  
HETATM   32  H   UNL     1      -5.107  18.670  69.432  1.00  0.00     0.000 HD 
HETATM   33  O   UNL     1      -5.295  16.471  70.605  1.00  0.00    -0.194 OA 
HETATM   34  C   UNL     1      -5.651  16.081  69.264  1.00  0.00    -0.116 C  
HETATM   35  O   UNL     1      -6.028  18.484  69.296  1.00  0.00    -0.221 OA 
BRANCH  29  36
HETATM   36  O   UNL     1      -7.951  16.508  66.952  1.00  0.00    -0.178 OA 
BRANCH  36  37
HETATM   37  C   UNL     1      -8.127  17.549  65.979  1.00  0.00    -0.127 C  
BRANCH  37  38
HETATM   38  C   UNL     1      -9.184  18.536  66.469  1.00  0.00    -0.310 C  
HETATM   39  H   UNL     1      -9.362  20.484  66.648  1.00  0.00     0.000 HD 
HETATM   40  O   UNL     1      -8.704  19.870  66.343  1.00  0.00    -0.340 OA 
ENDBRANCH  37  38
ENDBRANCH  36  37
ENDBRANCH  29  36
ENDBRANCH  13  27
ENDBRANCH   4   5
ENDBRANCH   3   4
ENDBRANCH   2   3
TORSDOF 10
ENDMDL
MODEL      173
REMARK 921   NORMALIZED FREE ENERGY PREDICTED BY IDOCK:   -4.08 KCAL/MOL
REMARK 922        TOTAL FREE ENERGY PREDICTED BY IDOCK:   -8.53 KCAL/MOL
REMARK 923 INTER-LIGAND FREE ENERGY PREDICTED BY IDOCK:   -7.78 KCAL/MOL
REMARK 924 INTRA-LIGAND FREE ENERGY PREDICTED BY IDOCK:   -0.75 KCAL/MOL
REMARK 927      BINDING AFFINITY PREDICTED BY RF-SCORE:    0.00 PKD
ROOT
HETATM    1  C   UNL     1     -13.906   8.969  71.556  1.00  0.00    -0.367 C  
HETATM    2  C   UNL     1     -12.585   8.622  72.228  1.00  0.00    -0.457 C  
ENDROOT
BRANCH   2   3
HETATM    3  C   UNL     1     -11.444   9.545  71.787  1.00  0.00    -0.279 C  
BRANCH   3   4
HETATM    4  S   UNL     1     -11.774  10.123  70.084  1.00  0.00    -0.234 SA 
BRANCH   4   5
HETATM    5  C   UNL     1     -10.777   8.980  69.153  1.00  0.00    -0.157 A  
HETATM    6  N   UNL     1     -10.192   7.993  69.869  1.00  0.00    -0.199 NA 
HETATM    7  C   UNL     1      -9.443   7.187  69.097  1.00  0.00    -0.147 A  
HETATM    8  C   UNL     1      -9.252   7.298  67.732  1.00  0.00    -0.126 A  
HETATM    9  N   UNL     1      -8.454   6.280  67.290  1.00  0.00    -0.109 NA 
HETATM   10  C   UNL     1      -9.924   8.333  67.065  1.00  0.00    -0.255 A  
HETATM   11  N   UNL     1     -10.692   9.173  67.819  1.00  0.00    -0.223 NA 
HETATM   12  N   UNL     1      -8.152   5.511  68.332  1.00  0.00    -0.098 NA 
HETATM   13  N   UNL     1      -8.771   6.037  69.422  1.00  0.00    -0.121 NA 
BRANCH  10  14
HETATM   14  N   UNL     1      -9.846   8.460  65.663  1.00  0.00    -0.327 NA 
HETATM   15  H   UNL     1      -9.937   7.644  65.058  1.00  0.00     0.000 HD 
BRANCH  14  16
HETATM   16  C   UNL     1      -9.633   9.794  65.097  1.00  0.00    -0.287 C  
HETATM   17  C   UNL     1      -9.704  11.021  65.980  1.00  0.00    -0.265 C  
HETATM   18  C   UNL     1      -8.386  10.566  65.411  1.00  0.00    -0.165 C  
BRANCH  17  19
HETATM   19  C   UNL     1     -10.445  12.226  65.456  1.00  0.00    -0.296 A  
HETATM   20  C   UNL     1     -11.179  14.541  65.608  1.00  0.00    -0.335 A  
HETATM   21  C   UNL     1     -10.466  13.458  66.126  1.00  0.00    -0.295 A  
HETATM   22  F   UNL     1     -11.168  15.707  66.265  1.00  0.00    -0.296 F  
HETATM   23  C   UNL     1     -11.889  14.412  64.421  1.00  0.00    -0.415 A  
HETATM   24  C   UNL     1     -11.181  12.122  64.257  1.00  0.00    -0.409 A  
HETATM   25  F   UNL     1     -12.574  15.452  63.929  1.00  0.00    -0.407 F  
HETATM   26  C   UNL     1     -11.898  13.204  63.740  1.00  0.00    -0.546 A  
ENDBRANCH  17  19
ENDBRANCH  14  16
ENDBRANCH  10  14
BRANCH  13  27
HETATM   27  C   UNL     1      -8.667   5.301  70.666  1.00  0.00    -0.126 C  
HETATM   28  C   UNL     1      -8.556   6.214  71.899  1.00  0.00    -0.132 C  
HETATM   29  C   UNL     1      -7.058   6.498  72.028  1.00  0.00    -0.081 C  
HETATM   30  H   UNL     1      -7.171   2.640  71.694  1.00  0.00     0.000 HD 
HETATM   31  C   UNL     1      -6.406   5.148  71.637  1.00  0.00    -0.031 C  
HETATM   32  H   UNL     1      -5.626   3.541  72.545  1.00  0.00     0.000 HD 
HETATM   33  O   UNL     1      -7.914   3.223  71.592  1.00  0.00    -0.056 OA 
HETATM   34  C   UNL     1      -7.472   4.364  70.829  1.00  0.00    -0.052 C  
HETATM   35  O   UNL     1      -6.026   4.368  72.785  1.00  0.00    -0.014 OA 
BRANCH  29  36
HETATM   36  O   UNL     1      -6.630   7.528  71.128  1.00  0.00    -0.039 OA 
BRANCH  36  37
HETATM   37  C   UNL     1      -5.305   8.014  71.399  1.00  0.00    -0.034 C  
BRANCH  37  38
HETATM   38  C   UNL     1      -5.387   9.363  72.109  1.00  0.00    -0.075 C  
HETATM   39  H   UNL     1      -6.329  11.067  71.857  1.00  0.00     0.000 HD 
HETATM   40  O   UNL     1      -6.279  10.228  71.415  1.00  0.00    -0.320 OA 
ENDBRANCH  37  38
ENDBRANCH  36  37
ENDBRANCH  29  36
ENDBRANCH  13  27
ENDBRANCH   4   5
ENDBRANCH   3   4
ENDBRANCH   2   3
TORSDOF 10
ENDMDL
MODEL      174
REMARK 921   NORMALIZED FREE ENERGY PREDICTED BY IDOCK:   -4.07 KCAL/MOL
REMARK 922        TOTAL FREE ENERGY PREDICTED BY IDOCK:   -8.51 KCAL/MOL
REMARK 923 INTER-LIGAND FREE ENERGY PREDICTED BY IDOCK:   -7.30 KCAL/MOL
REMARK 924 INTRA-LIGAND FREE ENERGY PREDICTED BY IDOCK:   -1.21 KCAL/MOL
REMARK 927      BINDING AFFINITY PREDICTED BY RF-SCORE:    0.00 PKD
ROOT
HETATM    1  C   UNL     1     -13.503   9.473  71.653  1.00  0.00    -0.463 C  
HETATM    2  C   UNL     1     -12.122   9.000  72.086  1.00  0.00    -0.412 C  
ENDROOT
BRANCH   2   3
HETATM    3  C   UNL     1     -10.996   9.676  71.296  1.00  0.00    -0.329 C  
BRANCH   3   4
HETATM    4  S   UNL     1     -11.735  10.706  69.978  1.00  0.00    -0.350 SA 
BRANCH   4   5
HETATM    5  C   UNL     1     -10.297  11.043  68.985  1.00  0.00    -0.209 A  
HETATM    6  N   UNL     1      -9.153  10.442  69.384  1.00  0.00    -0.184 NA 
HETATM    7  C   UNL     1      -8.114  10.764  68.595  1.00  0.00    -0.136 A  
HETATM    8  C   UNL     1      -8.142  11.598  67.494  1.00  0.00    -0.144 A  
HETATM    9  N   UNL     1      -6.901  11.659  66.924  1.00  0.00    -0.144 NA 
HETATM   10  C   UNL     1      -9.379  12.152  67.132  1.00  0.00    -0.193 A  
HETATM   11  N   UNL     1     -10.457  11.851  67.914  1.00  0.00    -0.199 NA 
HETATM   12  N   UNL     1      -6.090  10.867  67.618  1.00  0.00    -0.047 NA 
HETATM   13  N   UNL     1      -6.824  10.299  68.611  1.00  0.00    -0.057 NA 
BRANCH  10  14
HETATM   14  N   UNL     1      -9.505  12.947  65.974  1.00  0.00    -0.438 NA 
HETATM   15  H   UNL     1      -9.200  12.598  65.065  1.00  0.00     0.000 HD 
BRANCH  14  16
HETATM   16  C   UNL     1     -10.084  14.285  66.108  1.00  0.00    -0.313 C  
HETATM   17  C   UNL     1      -9.230  15.516  65.895  1.00  0.00    -0.305 C  
HETATM   18  C   UNL     1     -10.300  15.149  64.902  1.00  0.00    -0.294 C  
BRANCH  17  19
HETATM   19  C   UNL     1      -9.379  16.657  66.870  1.00  0.00    -0.246 A  
HETATM   20  C   UNL     1      -8.485  18.262  68.465  1.00  0.00    -0.307 A  
HETATM   21  C   UNL     1      -8.293  17.216  67.560  1.00  0.00    -0.199 A  
HETATM   22  F   UNL     1      -7.425  18.783  69.097  1.00  0.00    -0.325 F  
HETATM   23  C   UNL     1      -9.759  18.762  68.703  1.00  0.00    -0.390 A  
HETATM   24  C   UNL     1     -10.662  17.179  67.138  1.00  0.00    -0.177 A  
HETATM   25  F   UNL     1      -9.937  19.763  69.573  1.00  0.00    -0.477 F  
HETATM   26  C   UNL     1     -10.854  18.223  68.045  1.00  0.00    -0.178 A  
ENDBRANCH  17  19
ENDBRANCH  14  16
ENDBRANCH  10  14
BRANCH  13  27
HETATM   27  C   UNL     1      -6.167   9.309  69.441  1.00  0.00    -0.040 C  
HETATM   28  C   UNL     1      -5.637   8.107  68.642  1.00  0.00    -0.036 C  
HETATM   29  C   UNL     1      -6.826   7.147  68.567  1.00  0.00    -0.076 C  
HETATM   30  H   UNL     1      -6.648   7.996  72.343  1.00  0.00     0.000 HD 
HETATM   31  C   UNL     1      -7.489   7.294  69.960  1.00  0.00    -0.085 C  
HETATM   32  H   UNL     1      -7.518   6.330  71.717  1.00  0.00     0.000 HD 
HETATM   33  O   UNL     1      -6.131   8.408  71.662  1.00  0.00    -0.038 OA 
HETATM   34  C   UNL     1      -7.001   8.647  70.537  1.00  0.00    -0.043 C  
HETATM   35  O   UNL     1      -7.111   6.240  70.863  1.00  0.00    -0.066 OA 
BRANCH  29  36
HETATM   36  O   UNL     1      -7.753   7.521  67.541  1.00  0.00    -0.112 OA 
BRANCH  36  37
HETATM   37  C   UNL     1      -7.145   7.690  66.250  1.00  0.00    -0.070 C  
BRANCH  37  38
HETATM   38  C   UNL     1      -7.610   6.578  65.314  1.00  0.00    -0.088 C  
HETATM   39  H   UNL     1      -8.287   6.431  63.477  1.00  0.00     0.000 HD 
HETATM   40  O   UNL     1      -7.998   7.124  64.059  1.00  0.00    -0.128 OA 
ENDBRANCH  37  38
ENDBRANCH  36  37
ENDBRANCH  29  36
ENDBRANCH  13  27
ENDBRANCH   4   5
ENDBRANCH   3   4
ENDBRANCH   2   3
TORSDOF 10
ENDMDL
MODEL      175
REMARK 921   NORMALIZED FREE ENERGY PREDICTED BY IDOCK:   -4.06 KCAL/MOL
REMARK 922        TOTAL FREE ENERGY PREDICTED BY IDOCK:   -8.49 KCAL/MOL
REMARK 923 INTER-LIGAND FREE ENERGY PREDICTED BY IDOCK:   -7.74 KCAL/MOL
REMARK 924 INTRA-LIGAND FREE ENERGY PREDICTED BY IDOCK:   -0.76 KCAL/MOL
REMARK 927      BINDING AFFINITY PREDICTED BY RF-SCORE:    0.00 PKD
ROOT
HETATM    1  C   UNL     1      -5.511  15.761  69.192  1.00  0.00    -0.102 C  
HETATM    2  C   UNL     1      -5.336  15.152  67.808  1.00  0.00    -0.072 C  
ENDROOT
BRANCH   2   3
HETATM    3  C   UNL     1      -5.188  13.627  67.854  1.00  0.00    -0.083 C  
BRANCH   3   4
HETATM    4  S   UNL     1      -6.053  12.993  69.335  1.00  0.00    -0.114 SA 
BRANCH   4   5
HETATM    5  C   UNL     1      -7.687  12.743  68.676  1.00  0.00    -0.064 A  
HETATM    6  N   UNL     1      -8.151  13.724  67.868  1.00  0.00    -0.151 NA 
HETATM    7  C   UNL     1      -9.396  13.468  67.431  1.00  0.00    -0.228 A  
HETATM    8  C   UNL     1     -10.163  12.359  67.731  1.00  0.00    -0.211 A  
HETATM    9  N   UNL     1     -11.361  12.431  67.077  1.00  0.00    -0.306 NA 
HETATM   10  C   UNL     1      -9.589  11.376  68.551  1.00  0.00    -0.189 A  
HETATM   11  N   UNL     1      -8.327  11.604  69.017  1.00  0.00     0.054 NA 
HETATM   12  N   UNL     1     -11.367  13.545  66.351  1.00  0.00    -0.308 NA 
HETATM   13  N   UNL     1     -10.170  14.161  66.536  1.00  0.00    -0.272 NA 
BRANCH  10  14
HETATM   14  N   UNL     1     -10.277  10.178  68.833  1.00  0.00    -0.188 NA 
HETATM   15  H   UNL     1     -11.101  10.177  69.434  1.00  0.00     0.000 HD 
BRANCH  14  16
HETATM   16  C   UNL     1      -9.779   8.934  68.242  1.00  0.00    -0.157 C  
HETATM   17  C   UNL     1     -10.621   7.677  68.279  1.00  0.00    -0.175 C  
HETATM   18  C   UNL     1     -10.379   8.395  66.978  1.00  0.00    -0.385 C  
BRANCH  17  19
HETATM   19  C   UNL     1      -9.937   6.379  68.632  1.00  0.00    -0.162 A  
HETATM   20  C   UNL     1      -9.029   4.786  70.231  1.00  0.00    -0.103 A  
HETATM   21  C   UNL     1      -9.678   5.991  69.955  1.00  0.00    -0.202 A  
HETATM   22  F   UNL     1      -8.808   4.439  71.506  1.00  0.00    -0.114 F  
HETATM   23  C   UNL     1      -8.619   3.955  69.197  1.00  0.00    -0.079 A  
HETATM   24  C   UNL     1      -9.503   5.519  67.602  1.00  0.00    -0.125 A  
HETATM   25  F   UNL     1      -7.994   2.803  69.467  1.00  0.00    -0.044 F  
HETATM   26  C   UNL     1      -8.850   4.316  67.878  1.00  0.00    -0.128 A  
ENDBRANCH  17  19
ENDBRANCH  14  16
ENDBRANCH  10  14
BRANCH  13  27
HETATM   27  C   UNL     1      -9.907  15.353  65.756  1.00  0.00    -0.364 C  
HETATM   28  C   UNL     1      -8.710  16.165  66.279  1.00  0.00    -0.373 C  
HETATM   29  C   UNL     1      -9.309  17.084  67.345  1.00  0.00    -0.239 C  
HETATM   30  H   UNL     1     -11.659  17.641  64.315  1.00  0.00     0.000 HD 
HETATM   31  C   UNL     1     -10.682  17.475  66.744  1.00  0.00    -0.109 C  
HETATM   32  H   UNL     1     -11.499  19.006  65.742  1.00  0.00     0.000 HD 
HETATM   33  O   UNL     1     -10.969  16.990  64.364  1.00  0.00    -0.993 OA 
HETATM   34  C   UNL     1     -11.018  16.400  65.679  1.00  0.00    -0.077 C  
HETATM   35  O   UNL     1     -10.657  18.767  66.110  1.00  0.00    -0.436 OA 
BRANCH  29  36
HETATM   36  O   UNL     1      -9.495  16.405  68.593  1.00  0.00    -0.221 OA 
BRANCH  36  37
HETATM   37  C   UNL     1     -10.777  16.646  69.194  1.00  0.00    -0.342 C  
BRANCH  37  38
HETATM   38  C   UNL     1     -11.194  15.433  70.020  1.00  0.00    -0.300 C  
HETATM   39  H   UNL     1     -11.751  15.072  71.869  1.00  0.00     0.000 HD 
HETATM   40  O   UNL     1     -11.492  15.828  71.354  1.00  0.00    -0.377 OA 
ENDBRANCH  37  38
ENDBRANCH  36  37
ENDBRANCH  29  36
ENDBRANCH  13  27
ENDBRANCH   4   5
ENDBRANCH   3   4
ENDBRANCH   2   3
TORSDOF 10
ENDMDL
MODEL      176
REMARK 921   NORMALIZED FREE ENERGY PREDICTED BY IDOCK:   -4.05 KCAL/MOL
REMARK 922        TOTAL FREE ENERGY PREDICTED BY IDOCK:   -8.48 KCAL/MOL
REMARK 923 INTER-LIGAND FREE ENERGY PREDICTED BY IDOCK:   -7.75 KCAL/MOL
REMARK 924 INTRA-LIGAND FREE ENERGY PREDICTED BY IDOCK:   -0.73 KCAL/MOL
REMARK 927      BINDING AFFINITY PREDICTED BY RF-SCORE:    0.00 PKD
ROOT
HETATM    1  C   UNL     1      -8.471  18.906  66.753  1.00  0.00    -0.304 C  
HETATM    2  C   UNL     1      -8.926  17.666  65.995  1.00  0.00    -0.039 C  
ENDROOT
BRANCH   2   3
HETATM    3  C   UNL     1     -10.421  17.383  66.179  1.00  0.00    -0.284 C  
BRANCH   3   4
HETATM    4  S   UNL     1     -10.982  16.274  64.838  1.00  0.00    -0.167 SA 
BRANCH   4   5
HETATM    5  C   UNL     1     -11.135  14.740  65.728  1.00  0.00    -0.338 A  
HETATM    6  N   UNL     1     -11.580  14.841  67.001  1.00  0.00    -0.361 NA 
HETATM    7  C   UNL     1     -11.647  13.643  67.607  1.00  0.00    -0.346 A  
HETATM    8  C   UNL     1     -11.319  12.420  67.053  1.00  0.00    -0.327 A  
HETATM    9  N   UNL     1     -11.548  11.423  67.960  1.00  0.00    -0.473 NA 
HETATM   10  C   UNL     1     -10.898  12.406  65.715  1.00  0.00    -0.276 A  
HETATM   11  N   UNL     1     -10.814  13.606  65.069  1.00  0.00    -0.331 NA 
HETATM   12  N   UNL     1     -12.035  11.976  69.066  1.00  0.00    -0.295 NA 
HETATM   13  N   UNL     1     -12.127  13.315  68.849  1.00  0.00    -0.287 NA 
BRANCH  10  14
HETATM   14  N   UNL     1     -10.625  11.190  65.056  1.00  0.00    -0.293 NA 
HETATM   15  H   UNL     1     -11.209  10.872  64.282  1.00  0.00     0.000 HD 
BRANCH  14  16
HETATM   16  C   UNL     1      -9.483  10.394  65.510  1.00  0.00    -0.215 C  
HETATM   17  C   UNL     1      -9.678   8.965  65.968  1.00  0.00    -0.308 C  
HETATM   18  C   UNL     1      -8.961   9.262  64.678  1.00  0.00    -0.202 C  
BRANCH  17  19
HETATM   19  C   UNL     1      -8.957   8.519  67.216  1.00  0.00    -0.141 A  
HETATM   20  C   UNL     1      -8.202   8.851  69.505  1.00  0.00    -0.107 A  
HETATM   21  C   UNL     1      -8.894   9.301  68.380  1.00  0.00    -0.129 A  
HETATM   22  F   UNL     1      -8.171   9.615  70.604  1.00  0.00    -0.192 F  
HETATM   23  C   UNL     1      -7.555   7.622  69.488  1.00  0.00    -0.098 A  
HETATM   24  C   UNL     1      -8.285   7.279  67.225  1.00  0.00    -0.115 A  
HETATM   25  F   UNL     1      -6.890   7.196  70.569  1.00  0.00    -0.049 F  
HETATM   26  C   UNL     1      -7.589   6.830  68.350  1.00  0.00    -0.104 A  
ENDBRANCH  17  19
ENDBRANCH  14  16
ENDBRANCH  10  14
BRANCH  13  27
HETATM   27  C   UNL     1     -12.734  14.118  69.890  1.00  0.00    -0.029 C  
HETATM   28  C   UNL     1     -12.603  15.630  69.640  1.00  0.00     0.033 C  
HETATM   29  C   UNL     1     -11.249  16.001  70.246  1.00  0.00    -0.389 C  
HETATM   30  H   UNL     1     -12.949  14.012  73.103  1.00  0.00     0.000 HD 
HETATM   31  C   UNL     1     -11.177  15.120  71.518  1.00  0.00    -0.262 C  
HETATM   32  H   UNL     1     -11.496  15.303  73.488  1.00  0.00     0.000 HD 
HETATM   33  O   UNL     1     -13.290  14.109  72.222  1.00  0.00    -0.382 OA 
HETATM   34  C   UNL     1     -12.184  13.961  71.308  1.00  0.00    -0.268 C  
HETATM   35  O   UNL     1     -11.541  15.843  72.709  1.00  0.00    -0.419 OA 
BRANCH  29  36
HETATM   36  O   UNL     1     -10.163  15.681  69.366  1.00  0.00    -0.224 OA 
BRANCH  36  37
HETATM   37  C   UNL     1      -8.927  15.420  70.049  1.00  0.00     0.309 C  
BRANCH  37  38
HETATM   38  C   UNL     1      -7.754  15.848  69.171  1.00  0.00    -0.220 C  
HETATM   39  H   UNL     1      -5.895  15.288  68.879  1.00  0.00     0.000 HD 
HETATM   40  O   UNL     1      -6.625  15.022  69.426  1.00  0.00    -0.120 OA 
ENDBRANCH  37  38
ENDBRANCH  36  37
ENDBRANCH  29  36
ENDBRANCH  13  27
ENDBRANCH   4   5
ENDBRANCH   3   4
ENDBRANCH   2   3
TORSDOF 10
ENDMDL
MODEL      177
REMARK 921   NORMALIZED FREE ENERGY PREDICTED BY IDOCK:   -4.05 KCAL/MOL
REMARK 922        TOTAL FREE ENERGY PREDICTED BY IDOCK:   -8.48 KCAL/MOL
REMARK 923 INTER-LIGAND FREE ENERGY PREDICTED BY IDOCK:   -7.16 KCAL/MOL
REMARK 924 INTRA-LIGAND FREE ENERGY PREDICTED BY IDOCK:   -1.32 KCAL/MOL
REMARK 927      BINDING AFFINITY PREDICTED BY RF-SCORE:    0.00 PKD
ROOT
HETATM    1  C   UNL     1      -6.445   8.814  70.757  1.00  0.00    -0.047 C  
HETATM    2  C   UNL     1      -5.545   9.999  70.432  1.00  0.00    -0.056 C  
ENDROOT
BRANCH   2   3
HETATM    3  C   UNL     1      -5.559  10.353  68.941  1.00  0.00    -0.041 C  
BRANCH   3   4
HETATM    4  S   UNL     1      -5.607  12.173  68.765  1.00  0.00    -0.050 SA 
BRANCH   4   5
HETATM    5  C   UNL     1      -7.365  12.453  68.761  1.00  0.00    -0.076 A  
HETATM    6  N   UNL     1      -7.754  13.747  68.719  1.00  0.00    -0.115 NA 
HETATM    7  C   UNL     1      -9.092  13.872  68.739  1.00  0.00    -0.002 A  
HETATM    8  C   UNL     1     -10.014  12.844  68.794  1.00  0.00     0.002 A  
HETATM    9  N   UNL     1     -11.282  13.355  68.765  1.00  0.00    -0.261 NA 
HETATM   10  C   UNL     1      -9.522  11.531  68.802  1.00  0.00    -0.089 A  
HETATM   11  N   UNL     1      -8.167  11.366  68.786  1.00  0.00    -0.138 NA 
HETATM   12  N   UNL     1     -11.191  14.677  68.668  1.00  0.00    -0.262 NA 
HETATM   13  N   UNL     1      -9.870  14.995  68.621  1.00  0.00    -0.215 NA 
BRANCH  10  14
HETATM   14  N   UNL     1     -10.401  10.429  68.774  1.00  0.00    -0.184 NA 
HETATM   15  H   UNL     1     -11.350  10.525  68.412  1.00  0.00     0.000 HD 
BRANCH  14  16
HETATM   16  C   UNL     1      -9.918   9.141  69.277  1.00  0.00    -0.187 C  
HETATM   17  C   UNL     1     -10.896   8.043  69.636  1.00  0.00    -0.172 C  
HETATM   18  C   UNL     1     -10.006   7.907  68.429  1.00  0.00    -0.198 C  
BRANCH  17  19
HETATM   19  C   UNL     1     -10.658   7.276  70.914  1.00  0.00    -0.234 A  
HETATM   20  C   UNL     1      -9.947   5.299  72.142  1.00  0.00    -0.184 A  
HETATM   21  C   UNL     1     -10.135   5.974  70.934  1.00  0.00    -0.246 A  
HETATM   22  F   UNL     1      -9.434   4.063  72.128  1.00  0.00    -0.147 F  
HETATM   23  C   UNL     1     -10.285   5.905  73.346  1.00  0.00    -0.212 A  
HETATM   24  C   UNL     1     -10.999   7.862  72.150  1.00  0.00    -0.339 A  
HETATM   25  F   UNL     1     -10.106   5.252  74.501  1.00  0.00    -0.182 F  
HETATM   26  C   UNL     1     -10.815   7.186  73.358  1.00  0.00    -0.360 A  
ENDBRANCH  17  19
ENDBRANCH  14  16
ENDBRANCH  10  14
BRANCH  13  27
HETATM   27  C   UNL     1      -9.527  16.386  68.411  1.00  0.00    -0.220 C  
HETATM   28  C   UNL     1     -10.517  17.120  67.492  1.00  0.00    -0.348 C  
HETATM   29  C   UNL     1      -9.994  16.855  66.079  1.00  0.00    -0.293 C  
HETATM   30  H   UNL     1      -6.831  18.088  67.946  1.00  0.00     0.000 HD 
HETATM   31  C   UNL     1      -8.456  16.915  66.254  1.00  0.00    -0.287 C  
HETATM   32  H   UNL     1      -6.964  18.224  65.974  1.00  0.00     0.000 HD 
HETATM   33  O   UNL     1      -7.671  17.901  68.350  1.00  0.00    -0.271 OA 
HETATM   34  C   UNL     1      -8.176  16.686  67.762  1.00  0.00    -0.177 C  
HETATM   35  O   UNL     1      -7.907  18.188  65.867  1.00  0.00    -0.503 OA 
BRANCH  29  36
HETATM   36  O   UNL     1     -10.383  15.562  65.598  1.00  0.00    -0.328 OA 
BRANCH  36  37
HETATM   37  C   UNL     1     -11.284  15.611  64.481  1.00  0.00    -0.325 C  
BRANCH  37  38
HETATM   38  C   UNL     1     -12.599  14.930  64.852  1.00  0.00     0.002 C  
HETATM   39  H   UNL     1     -13.163  13.311  65.808  1.00  0.00     0.000 HD 
HETATM   40  O   UNL     1     -12.344  13.734  65.578  1.00  0.00    -0.415 OA 
ENDBRANCH  37  38
ENDBRANCH  36  37
ENDBRANCH  29  36
ENDBRANCH  13  27
ENDBRANCH   4   5
ENDBRANCH   3   4
ENDBRANCH   2   3
TORSDOF 10
ENDMDL
MODEL      178
REMARK 921   NORMALIZED FREE ENERGY PREDICTED BY IDOCK:   -4.03 KCAL/MOL
REMARK 922        TOTAL FREE ENERGY PREDICTED BY IDOCK:   -8.45 KCAL/MOL
REMARK 923 INTER-LIGAND FREE ENERGY PREDICTED BY IDOCK:   -7.87 KCAL/MOL
REMARK 924 INTRA-LIGAND FREE ENERGY PREDICTED BY IDOCK:   -0.58 KCAL/MOL
REMARK 927      BINDING AFFINITY PREDICTED BY RF-SCORE:    0.00 PKD
ROOT
HETATM    1  C   UNL     1      -7.040   6.489  65.617  1.00  0.00    -0.061 C  
HETATM    2  C   UNL     1      -6.743   7.882  66.154  1.00  0.00    -0.054 C  
ENDROOT
BRANCH   2   3
HETATM    3  C   UNL     1      -7.508   8.975  65.400  1.00  0.00    -0.089 C  
BRANCH   3   4
HETATM    4  S   UNL     1      -7.068  10.602  66.109  1.00  0.00    -0.127 SA 
BRANCH   4   5
HETATM    5  C   UNL     1      -8.511  10.927  67.100  1.00  0.00    -0.128 A  
HETATM    6  N   UNL     1      -8.785  12.231  67.329  1.00  0.00    -0.180 NA 
HETATM    7  C   UNL     1      -9.876  12.388  68.099  1.00  0.00    -0.213 A  
HETATM    8  C   UNL     1     -10.666  11.382  68.623  1.00  0.00    -0.206 A  
HETATM    9  N   UNL     1     -11.704  11.926  69.327  1.00  0.00    -0.306 NA 
HETATM   10  C   UNL     1     -10.326  10.059  68.307  1.00  0.00    -0.193 A  
HETATM   11  N   UNL     1      -9.221   9.861  67.530  1.00  0.00    -0.134 NA 
HETATM   12  N   UNL     1     -11.610  13.249  69.243  1.00  0.00    -0.297 NA 
HETATM   13  N   UNL     1     -10.524  13.535  68.477  1.00  0.00    -0.242 NA 
BRANCH  10  14
HETATM   14  N   UNL     1     -11.131   8.983  68.736  1.00  0.00    -0.442 NA 
HETATM   15  H   UNL     1     -12.132   8.971  68.546  1.00  0.00     0.000 HD 
BRANCH  14  16
HETATM   16  C   UNL     1     -10.491   7.883  69.461  1.00  0.00    -0.226 C  
HETATM   17  C   UNL     1      -9.316   7.146  68.856  1.00  0.00    -0.139 C  
HETATM   18  C   UNL     1      -9.121   8.048  70.046  1.00  0.00    -0.152 C  
BRANCH  17  19
HETATM   19  C   UNL     1      -9.295   5.642  68.962  1.00  0.00    -0.150 A  
HETATM   20  C   UNL     1      -8.913   3.571  70.181  1.00  0.00    -0.107 A  
HETATM   21  C   UNL     1      -8.932   4.966  70.137  1.00  0.00    -0.146 A  
HETATM   22  F   UNL     1      -8.575   2.957  71.321  1.00  0.00    -0.071 F  
HETATM   23  C   UNL     1      -9.247   2.827  69.056  1.00  0.00    -0.156 A  
HETATM   24  C   UNL     1      -9.621   4.861  67.833  1.00  0.00    -0.186 A  
HETATM   25  F   UNL     1      -9.225   1.490  69.102  1.00  0.00    -0.120 F  
HETATM   26  C   UNL     1      -9.599   3.465  67.876  1.00  0.00    -0.163 A  
ENDBRANCH  17  19
ENDBRANCH  14  16
ENDBRANCH  10  14
BRANCH  13  27
HETATM   27  C   UNL     1     -10.281  14.928  68.161  1.00  0.00    -0.226 C  
HETATM   28  C   UNL     1     -11.215  15.471  67.067  1.00  0.00    -0.177 C  
HETATM   29  C   UNL     1     -10.507  15.127  65.756  1.00  0.00    -0.339 C  
HETATM   30  H   UNL     1      -7.707  16.835  67.818  1.00  0.00     0.000 HD 
HETATM   31  C   UNL     1      -9.011  15.353  66.090  1.00  0.00    -0.259 C  
HETATM   32  H   UNL     1      -7.616  16.770  65.840  1.00  0.00     0.000 HD 
HETATM   33  O   UNL     1      -8.569  16.605  68.145  1.00  0.00    -0.189 OA 
HETATM   34  C   UNL     1      -8.894  15.296  67.635  1.00  0.00    -0.175 C  
HETATM   35  O   UNL     1      -8.533  16.632  65.635  1.00  0.00    -0.345 OA 
BRANCH  29  36
HETATM   36  O   UNL     1     -10.723  13.763  65.373  1.00  0.00    -0.293 OA 
BRANCH  36  37
HETATM   37  C   UNL     1     -12.105  13.437  65.157  1.00  0.00    -0.409 C  
BRANCH  37  38
HETATM   38  C   UNL     1     -12.348  13.186  63.672  1.00  0.00    -0.404 C  
HETATM   39  H   UNL     1     -13.305  11.871  62.571  1.00  0.00     0.000 HD 
HETATM   40  O   UNL     1     -13.154  12.027  63.496  1.00  0.00    -0.764 OA 
ENDBRANCH  37  38
ENDBRANCH  36  37
ENDBRANCH  29  36
ENDBRANCH  13  27
ENDBRANCH   4   5
ENDBRANCH   3   4
ENDBRANCH   2   3
TORSDOF 10
ENDMDL
MODEL      179
REMARK 921   NORMALIZED FREE ENERGY PREDICTED BY IDOCK:   -4.01 KCAL/MOL
REMARK 922        TOTAL FREE ENERGY PREDICTED BY IDOCK:   -8.42 KCAL/MOL
REMARK 923 INTER-LIGAND FREE ENERGY PREDICTED BY IDOCK:   -7.40 KCAL/MOL
REMARK 924 INTRA-LIGAND FREE ENERGY PREDICTED BY IDOCK:   -1.02 KCAL/MOL
REMARK 927      BINDING AFFINITY PREDICTED BY RF-SCORE:    0.00 PKD
ROOT
HETATM    1  C   UNL     1      -8.895   5.277  63.515  1.00  0.00     0.094 C  
HETATM    2  C   UNL     1      -9.040   4.964  64.998  1.00  0.00    -0.133 C  
ENDROOT
BRANCH   2   3
HETATM    3  C   UNL     1      -8.780   6.188  65.883  1.00  0.00    -0.154 C  
BRANCH   3   4
HETATM    4  S   UNL     1      -8.426   5.624  67.586  1.00  0.00    -0.101 SA 
BRANCH   4   5
HETATM    5  C   UNL     1      -9.316   6.846  68.525  1.00  0.00    -0.134 A  
HETATM    6  N   UNL     1      -9.202   6.751  69.869  1.00  0.00    -0.147 NA 
HETATM    7  C   UNL     1      -9.919   7.695  70.503  1.00  0.00    -0.184 A  
HETATM    8  C   UNL     1     -10.695   8.674  69.913  1.00  0.00    -0.225 A  
HETATM    9  N   UNL     1     -11.247   9.474  70.875  1.00  0.00    -0.310 NA 
HETATM   10  C   UNL     1     -10.729   8.718  68.511  1.00  0.00    -0.060 A  
HETATM   11  N   UNL     1     -10.016   7.771  67.834  1.00  0.00    -0.164 NA 
HETATM   12  N   UNL     1     -10.822   9.044  72.059  1.00  0.00    -0.338 NA 
HETATM   13  N   UNL     1      -9.994   7.989  71.840  1.00  0.00    -0.182 NA 
BRANCH  10  14
HETATM   14  N   UNL     1     -11.432   9.738  67.836  1.00  0.00    -0.509 NA 
HETATM   15  H   UNL     1     -12.450   9.723  67.782  1.00  0.00     0.000 HD 
BRANCH  14  16
HETATM   16  C   UNL     1     -10.663  10.818  67.215  1.00  0.00    -0.274 C  
HETATM   17  C   UNL     1     -10.685  12.212  67.805  1.00  0.00    -0.241 C  
HETATM   18  C   UNL     1      -9.440  11.369  67.886  1.00  0.00    -0.174 C  
BRANCH  17  19
HETATM   19  C   UNL     1     -10.819  13.378  66.857  1.00  0.00    -0.282 A  
HETATM   20  C   UNL     1     -11.785  14.476  64.912  1.00  0.00    -0.402 A  
HETATM   21  C   UNL     1     -11.707  13.378  65.771  1.00  0.00    -0.380 A  
HETATM   22  F   UNL     1     -12.652  14.449  63.892  1.00  0.00    -0.450 F  
HETATM   23  C   UNL     1     -10.974  15.585  65.115  1.00  0.00    -0.409 A  
HETATM   24  C   UNL     1     -10.004  14.515  67.034  1.00  0.00    -0.255 A  
HETATM   25  F   UNL     1     -11.050  16.634  64.286  1.00  0.00    -0.408 F  
HETATM   26  C   UNL     1     -10.078  15.612  66.172  1.00  0.00    -0.333 A  
ENDBRANCH  17  19
ENDBRANCH  14  16
ENDBRANCH  10  14
BRANCH  13  27
HETATM   27  C   UNL     1      -9.325   7.417  72.991  1.00  0.00    -0.178 C  
HETATM   28  C   UNL     1      -8.212   8.318  73.552  1.00  0.00    -0.250 C  
HETATM   29  C   UNL     1      -6.973   7.944  72.738  1.00  0.00    -0.083 C  
HETATM   30  H   UNL     1      -8.309   4.497  73.897  1.00  0.00     0.000 HD 
HETATM   31  C   UNL     1      -7.115   6.412  72.559  1.00  0.00    -0.078 C  
HETATM   32  H   UNL     1      -6.408   4.732  73.392  1.00  0.00     0.000 HD 
HETATM   33  O   UNL     1      -8.753   5.328  74.017  1.00  0.00    -0.117 OA 
HETATM   34  C   UNL     1      -8.611   6.080  72.795  1.00  0.00    -0.124 C  
HETATM   35  O   UNL     1      -6.320   5.671  73.502  1.00  0.00    -0.066 OA 
BRANCH  29  36
HETATM   36  O   UNL     1      -6.958   8.588  71.458  1.00  0.00    -0.068 OA 
BRANCH  36  37
HETATM   37  C   UNL     1      -5.642   8.951  71.011  1.00  0.00    -0.037 C  
BRANCH  37  38
HETATM   38  C   UNL     1      -5.501  10.471  71.010  1.00  0.00    -0.093 C  
HETATM   39  H   UNL     1      -6.420  12.002  70.193  1.00  0.00     0.000 HD 
HETATM   40  O   UNL     1      -6.509  11.056  70.194  1.00  0.00    -0.148 OA 
ENDBRANCH  37  38
ENDBRANCH  36  37
ENDBRANCH  29  36
ENDBRANCH  13  27
ENDBRANCH   4   5
ENDBRANCH   3   4
ENDBRANCH   2   3
TORSDOF 10
ENDMDL
MODEL      180
REMARK 921   NORMALIZED FREE ENERGY PREDICTED BY IDOCK:   -4.00 KCAL/MOL
REMARK 922        TOTAL FREE ENERGY PREDICTED BY IDOCK:   -8.40 KCAL/MOL
REMARK 923 INTER-LIGAND FREE ENERGY PREDICTED BY IDOCK:   -6.71 KCAL/MOL
REMARK 924 INTRA-LIGAND FREE ENERGY PREDICTED BY IDOCK:   -1.69 KCAL/MOL
REMARK 927      BINDING AFFINITY PREDICTED BY RF-SCORE:    0.00 PKD
ROOT
HETATM    1  C   UNL     1      -9.853   6.467  74.253  1.00  0.00    -0.337 C  
HETATM    2  C   UNL     1     -10.235   5.024  74.549  1.00  0.00    -0.305 C  
ENDROOT
BRANCH   2   3
HETATM    3  C   UNL     1     -10.853   4.321  73.335  1.00  0.00    -0.253 C  
BRANCH   3   4
HETATM    4  S   UNL     1      -9.535   3.976  72.116  1.00  0.00    -0.142 SA 
BRANCH   4   5
HETATM    5  C   UNL     1     -10.073   4.993  70.758  1.00  0.00    -0.237 A  
HETATM    6  N   UNL     1      -9.769   4.533  69.523  1.00  0.00    -0.200 NA 
HETATM    7  C   UNL     1     -10.191   5.367  68.557  1.00  0.00    -0.169 A  
HETATM    8  C   UNL     1     -10.861   6.563  68.736  1.00  0.00    -0.299 A  
HETATM    9  N   UNL     1     -11.157   7.116  67.522  1.00  0.00    -0.169 NA 
HETATM   10  C   UNL     1     -11.164   6.946  70.051  1.00  0.00    -0.299 A  
HETATM   11  N   UNL     1     -10.746   6.124  71.058  1.00  0.00    -0.248 NA 
HETATM   12  N   UNL     1     -10.715   6.293  66.576  1.00  0.00    -0.174 NA 
HETATM   13  N   UNL     1     -10.157   5.219  67.195  1.00  0.00    -0.183 NA 
BRANCH  10  14
HETATM   14  N   UNL     1     -11.917   8.110  70.310  1.00  0.00    -0.410 NA 
HETATM   15  H   UNL     1     -12.917   8.054  70.502  1.00  0.00     0.000 HD 
BRANCH  14  16
HETATM   16  C   UNL     1     -11.227   9.401  70.297  1.00  0.00    -0.246 C  
HETATM   17  C   UNL     1     -11.336  10.317  69.097  1.00  0.00    -0.244 C  
HETATM   18  C   UNL     1     -11.999  10.682  70.398  1.00  0.00    -0.436 C  
BRANCH  17  19
HETATM   19  C   UNL     1     -10.079  10.991  68.606  1.00  0.00    -0.207 A  
HETATM   20  C   UNL     1      -7.676  11.373  68.657  1.00  0.00    -0.137 A  
HETATM   21  C   UNL     1      -8.809  10.711  69.134  1.00  0.00    -0.133 A  
HETATM   22  F   UNL     1      -6.477  11.074  69.173  1.00  0.00    -0.048 F  
HETATM   23  C   UNL     1      -7.790  12.328  67.655  1.00  0.00    -0.156 A  
HETATM   24  C   UNL     1     -10.164  11.970  67.595  1.00  0.00    -0.210 A  
HETATM   25  F   UNL     1      -6.701  12.962  67.202  1.00  0.00    -0.161 F  
HETATM   26  C   UNL     1      -9.031  12.635  67.120  1.00  0.00    -0.205 A  
ENDBRANCH  17  19
ENDBRANCH  14  16
ENDBRANCH  10  14
BRANCH  13  27
HETATM   27  C   UNL     1      -9.695   4.133  66.355  1.00  0.00    -0.208 C  
HETATM   28  C   UNL     1      -8.186   3.866  66.490  1.00  0.00    -0.100 C  
HETATM   29  C   UNL     1      -7.539   4.820  65.484  1.00  0.00    -0.085 C  
HETATM   30  H   UNL     1     -10.275   3.073  63.368  1.00  0.00     0.000 HD 
HETATM   31  C   UNL     1      -8.524   4.796  64.289  1.00  0.00    -0.135 C  
HETATM   32  H   UNL     1      -8.696   3.901  62.504  1.00  0.00     0.000 HD 
HETATM   33  O   UNL     1     -10.161   2.979  64.307  1.00  0.00    -0.139 OA 
HETATM   34  C   UNL     1      -9.878   4.286  64.845  1.00  0.00    -0.175 C  
HETATM   35  O   UNL     1      -8.092   3.914  63.237  1.00  0.00    -0.081 OA 
BRANCH  29  36
HETATM   36  O   UNL     1      -7.430   6.151  66.004  1.00  0.00    -0.079 OA 
BRANCH  36  37
HETATM   37  C   UNL     1      -6.164   6.425  66.623  1.00  0.00    -0.040 C  
BRANCH  37  38
HETATM   38  C   UNL     1      -6.339   6.503  68.137  1.00  0.00    -0.040 C  
HETATM   39  H   UNL     1      -5.644   7.597  69.613  1.00  0.00     0.000 HD 
HETATM   40  O   UNL     1      -5.535   7.549  68.670  1.00  0.00    -0.021 OA 
ENDBRANCH  37  38
ENDBRANCH  36  37
ENDBRANCH  29  36
ENDBRANCH  13  27
ENDBRANCH   4   5
ENDBRANCH   3   4
ENDBRANCH   2   3
TORSDOF 10
ENDMDL
MODEL      181
REMARK 921   NORMALIZED FREE ENERGY PREDICTED BY IDOCK:   -3.98 KCAL/MOL
REMARK 922        TOTAL FREE ENERGY PREDICTED BY IDOCK:   -8.37 KCAL/MOL
REMARK 923 INTER-LIGAND FREE ENERGY PREDICTED BY IDOCK:   -7.41 KCAL/MOL
REMARK 924 INTRA-LIGAND FREE ENERGY PREDICTED BY IDOCK:   -0.96 KCAL/MOL
REMARK 927      BINDING AFFINITY PREDICTED BY RF-SCORE:    0.00 PKD
ROOT
HETATM    1  C   UNL     1      -5.804  11.641  66.673  1.00  0.00    -0.108 C  
HETATM    2  C   UNL     1      -5.356  10.625  67.714  1.00  0.00    -0.040 C  
ENDROOT
BRANCH   2   3
HETATM    3  C   UNL     1      -5.532  11.140  69.147  1.00  0.00    -0.040 C  
BRANCH   3   4
HETATM    4  S   UNL     1      -6.860  10.183  69.962  1.00  0.00    -0.149 SA 
BRANCH   4   5
HETATM    5  C   UNL     1      -8.236  10.567  68.901  1.00  0.00    -0.141 A  
HETATM    6  N   UNL     1      -8.418  11.879  68.627  1.00  0.00    -0.097 NA 
HETATM    7  C   UNL     1      -9.487  12.084  67.838  1.00  0.00    -0.196 A  
HETATM    8  C   UNL     1     -10.336  11.118  67.333  1.00  0.00    -0.196 A  
HETATM    9  N   UNL     1     -11.288  11.701  66.545  1.00  0.00    -0.392 NA 
HETATM   10  C   UNL     1     -10.052   9.779  67.641  1.00  0.00    -0.190 A  
HETATM   11  N   UNL     1      -8.976   9.533  68.444  1.00  0.00    -0.127 NA 
HETATM   12  N   UNL     1     -11.053  13.010  66.516  1.00  0.00    -0.282 NA 
HETATM   13  N   UNL     1      -9.948  13.244  67.271  1.00  0.00    -0.228 NA 
BRANCH  10  14
HETATM   14  N   UNL     1     -10.822   8.732  67.096  1.00  0.00    -0.376 NA 
HETATM   15  H   UNL     1     -11.715   8.922  66.641  1.00  0.00     0.000 HD 
BRANCH  14  16
HETATM   16  C   UNL     1     -10.308   7.365  67.199  1.00  0.00    -0.307 C  
HETATM   17  C   UNL     1     -10.780   6.450  68.309  1.00  0.00    -0.351 C  
HETATM   18  C   UNL     1     -11.188   6.192  66.882  1.00  0.00    -0.157 C  
BRANCH  17  19
HETATM   19  C   UNL     1      -9.746   5.616  69.024  1.00  0.00    -0.187 A  
HETATM   20  C   UNL     1      -7.759   4.212  69.063  1.00  0.00    -0.054 A  
HETATM   21  C   UNL     1      -8.683   4.986  68.359  1.00  0.00    -0.107 A  
HETATM   22  F   UNL     1      -6.750   3.634  68.400  1.00  0.00    -0.042 F  
HETATM   23  C   UNL     1      -7.883   4.046  70.437  1.00  0.00    -0.051 A  
HETATM   24  C   UNL     1      -9.850   5.424  70.417  1.00  0.00    -0.270 A  
HETATM   25  F   UNL     1      -6.996   3.300  71.107  1.00  0.00    -0.030 F  
HETATM   26  C   UNL     1      -8.928   4.647  71.121  1.00  0.00    -0.162 A  
ENDBRANCH  17  19
ENDBRANCH  14  16
ENDBRANCH  10  14
BRANCH  13  27
HETATM   27  C   UNL     1      -9.438  14.600  67.302  1.00  0.00    -0.219 C  
HETATM   28  C   UNL     1      -9.487  15.231  68.704  1.00  0.00    -0.204 C  
HETATM   29  C   UNL     1     -10.889  15.834  68.802  1.00  0.00    -0.274 C  
HETATM   30  H   UNL     1      -9.601  17.207  65.415  1.00  0.00     0.000 HD 
HETATM   31  C   UNL     1     -11.138  16.384  67.376  1.00  0.00    -0.062 C  
HETATM   32  H   UNL     1     -11.044  18.136  66.406  1.00  0.00     0.000 HD 
HETATM   33  O   UNL     1      -9.157  16.560  65.952  1.00  0.00    -0.460 OA 
HETATM   34  C   UNL     1     -10.153  15.639  66.439  1.00  0.00    -0.287 C  
HETATM   35  O   UNL     1     -10.890  17.799  67.280  1.00  0.00    -0.293 OA 
BRANCH  29  36
HETATM   36  O   UNL     1     -11.875  14.846  69.126  1.00  0.00    -0.299 OA 
BRANCH  36  37
HETATM   37  C   UNL     1     -11.769  14.345  70.468  1.00  0.00    -0.264 C  
BRANCH  37  38
HETATM   38  C   UNL     1     -11.189  15.426  71.376  1.00  0.00    -0.342 C  
HETATM   39  H   UNL     1     -11.349  15.964  73.258  1.00  0.00     0.000 HD 
HETATM   40  O   UNL     1     -11.710  15.290  72.693  1.00  0.00    -0.427 OA 
ENDBRANCH  37  38
ENDBRANCH  36  37
ENDBRANCH  29  36
ENDBRANCH  13  27
ENDBRANCH   4   5
ENDBRANCH   3   4
ENDBRANCH   2   3
TORSDOF 10
ENDMDL
MODEL      182
REMARK 921   NORMALIZED FREE ENERGY PREDICTED BY IDOCK:   -3.97 KCAL/MOL
REMARK 922        TOTAL FREE ENERGY PREDICTED BY IDOCK:   -8.36 KCAL/MOL
REMARK 923 INTER-LIGAND FREE ENERGY PREDICTED BY IDOCK:   -7.49 KCAL/MOL
REMARK 924 INTRA-LIGAND FREE ENERGY PREDICTED BY IDOCK:   -0.87 KCAL/MOL
REMARK 927      BINDING AFFINITY PREDICTED BY RF-SCORE:    0.00 PKD
ROOT
HETATM    1  C   UNL     1      -5.667   4.336  70.023  1.00  0.00    -0.016 C  
HETATM    2  C   UNL     1      -5.682   5.191  68.763  1.00  0.00    -0.016 C  
ENDROOT
BRANCH   2   3
HETATM    3  C   UNL     1      -5.589   6.689  69.071  1.00  0.00    -0.017 C  
BRANCH   3   4
HETATM    4  S   UNL     1      -5.726   7.625  67.506  1.00  0.00    -0.037 SA 
BRANCH   4   5
HETATM    5  C   UNL     1      -7.336   8.359  67.707  1.00  0.00    -0.093 A  
HETATM    6  N   UNL     1      -7.986   8.045  68.850  1.00  0.00    -0.116 NA 
HETATM    7  C   UNL     1      -9.198   8.622  68.914  1.00  0.00    -0.145 A  
HETATM    8  C   UNL     1      -9.769   9.446  67.963  1.00  0.00    -0.145 A  
HETATM    9  N   UNL     1     -10.997   9.869  68.390  1.00  0.00    -0.217 NA 
HETATM   10  C   UNL     1      -9.009   9.744  66.822  1.00  0.00    -0.138 A  
HETATM   11  N   UNL     1      -7.774   9.173  66.722  1.00  0.00    -0.096 NA 
HETATM   12  N   UNL     1     -11.212   9.355  69.598  1.00  0.00    -0.139 NA 
HETATM   13  N   UNL     1     -10.115   8.625  69.933  1.00  0.00    -0.190 NA 
BRANCH  10  14
HETATM   14  N   UNL     1      -9.490  10.643  65.848  1.00  0.00    -0.187 NA 
HETATM   15  H   UNL     1      -9.092  10.659  64.909  1.00  0.00     0.000 HD 
BRANCH  14  16
HETATM   16  C   UNL     1     -10.575  11.554  66.218  1.00  0.00    -0.263 C  
HETATM   17  C   UNL     1     -10.369  13.053  66.169  1.00  0.00    -0.285 C  
HETATM   18  C   UNL     1     -11.273  12.374  65.175  1.00  0.00    -0.356 C  
BRANCH  17  19
HETATM   19  C   UNL     1     -10.894  13.876  67.319  1.00  0.00    -0.292 A  
HETATM   20  C   UNL     1     -11.272  15.990  68.462  1.00  0.00    -0.374 A  
HETATM   21  C   UNL     1     -10.783  15.274  67.368  1.00  0.00    -0.293 A  
HETATM   22  F   UNL     1     -11.161  17.325  68.472  1.00  0.00    -0.274 F  
HETATM   23  C   UNL     1     -11.869  15.328  69.527  1.00  0.00    -0.345 A  
HETATM   24  C   UNL     1     -11.499  13.230  68.417  1.00  0.00    -0.349 A  
HETATM   25  F   UNL     1     -12.334  16.019  70.574  1.00  0.00    -0.393 F  
HETATM   26  C   UNL     1     -11.985  13.946  69.513  1.00  0.00    -0.396 A  
ENDBRANCH  17  19
ENDBRANCH  14  16
ENDBRANCH  10  14
BRANCH  13  27
HETATM   27  C   UNL     1     -10.080   8.049  71.262  1.00  0.00    -0.185 C  
HETATM   28  C   UNL     1      -9.239   6.764  71.341  1.00  0.00    -0.153 C  
HETATM   29  C   UNL     1     -10.215   5.648  70.964  1.00  0.00    -0.220 C  
HETATM   30  H   UNL     1     -12.164   7.608  73.679  1.00  0.00     0.000 HD 
HETATM   31  C   UNL     1     -11.541   6.097  71.627  1.00  0.00    -0.257 C  
HETATM   32  H   UNL     1     -12.593   5.714  73.289  1.00  0.00     0.000 HD 
HETATM   33  O   UNL     1     -11.336   7.874  73.295  1.00  0.00    -0.312 OA 
HETATM   34  C   UNL     1     -11.411   7.622  71.878  1.00  0.00    -0.272 C  
HETATM   35  O   UNL     1     -11.780   5.438  72.883  1.00  0.00    -0.297 OA 
BRANCH  29  36
HETATM   36  O   UNL     1     -10.386   5.543  69.545  1.00  0.00    -0.236 OA 
BRANCH  36  37
HETATM   37  C   UNL     1      -9.491   4.607  68.925  1.00  0.00    -0.153 C  
BRANCH  37  38
HETATM   38  C   UNL     1      -9.358   3.364  69.800  1.00  0.00    -0.168 C  
HETATM   39  H   UNL     1      -8.499   1.603  69.679  1.00  0.00     0.000 HD 
HETATM   40  O   UNL     1      -8.581   2.376  69.134  1.00  0.00    -0.062 OA 
ENDBRANCH  37  38
ENDBRANCH  36  37
ENDBRANCH  29  36
ENDBRANCH  13  27
ENDBRANCH   4   5
ENDBRANCH   3   4
ENDBRANCH   2   3
TORSDOF 10
ENDMDL
MODEL      183
REMARK 921   NORMALIZED FREE ENERGY PREDICTED BY IDOCK:   -3.97 KCAL/MOL
REMARK 922        TOTAL FREE ENERGY PREDICTED BY IDOCK:   -8.35 KCAL/MOL
REMARK 923 INTER-LIGAND FREE ENERGY PREDICTED BY IDOCK:   -6.83 KCAL/MOL
REMARK 924 INTRA-LIGAND FREE ENERGY PREDICTED BY IDOCK:   -1.52 KCAL/MOL
REMARK 927      BINDING AFFINITY PREDICTED BY RF-SCORE:    0.00 PKD
ROOT
HETATM    1  C   UNL     1      -6.376  10.638  65.028  1.00  0.00     0.026 C  
HETATM    2  C   UNL     1      -6.454   9.911  66.363  1.00  0.00    -0.072 C  
ENDROOT
BRANCH   2   3
HETATM    3  C   UNL     1      -6.599  10.875  67.546  1.00  0.00    -0.063 C  
BRANCH   3   4
HETATM    4  S   UNL     1      -6.790   9.902  69.083  1.00  0.00    -0.058 SA 
BRANCH   4   5
HETATM    5  C   UNL     1      -8.496  10.234  69.467  1.00  0.00    -0.142 A  
HETATM    6  N   UNL     1      -8.967  11.434  69.060  1.00  0.00     0.005 NA 
HETATM    7  C   UNL     1     -10.254  11.613  69.406  1.00  0.00     0.255 A  
HETATM    8  C   UNL     1     -11.054  10.720  70.093  1.00  0.00    -0.223 A  
HETATM    9  N   UNL     1     -12.313  11.235  70.233  1.00  0.00    -0.315 NA 
HETATM   10  C   UNL     1     -10.492   9.485  70.447  1.00  0.00    -0.278 A  
HETATM   11  N   UNL     1      -9.185   9.270  70.115  1.00  0.00    -0.206 NA 
HETATM   12  N   UNL     1     -12.340  12.421  69.632  1.00  0.00    -0.066 NA 
HETATM   13  N   UNL     1     -11.108  12.642  69.104  1.00  0.00    -0.228 NA 
BRANCH  10  14
HETATM   14  N   UNL     1     -11.269   8.490  71.076  1.00  0.00    -0.260 NA 
HETATM   15  H   UNL     1     -11.709   8.663  71.979  1.00  0.00     0.000 HD 
BRANCH  14  16
HETATM   16  C   UNL     1     -11.427   7.201  70.398  1.00  0.00    -0.278 C  
HETATM   17  C   UNL     1     -10.235   6.292  70.191  1.00  0.00    -0.237 C  
HETATM   18  C   UNL     1     -11.321   5.917  71.165  1.00  0.00    -0.230 C  
BRANCH  17  19
HETATM   19  C   UNL     1     -10.080   5.626  68.847  1.00  0.00    -0.254 A  
HETATM   20  C   UNL     1      -9.084   3.979  67.358  1.00  0.00    -0.150 A  
HETATM   21  C   UNL     1      -9.203   4.553  68.625  1.00  0.00    -0.181 A  
HETATM   22  F   UNL     1      -8.248   2.948  67.183  1.00  0.00    -0.079 F  
HETATM   23  C   UNL     1      -9.828   4.468  66.292  1.00  0.00    -0.230 A  
HETATM   24  C   UNL     1     -10.817   6.106  67.744  1.00  0.00    -0.413 A  
HETATM   25  F   UNL     1      -9.708   3.916  65.078  1.00  0.00    -0.150 F  
HETATM   26  C   UNL     1     -10.695   5.534  66.475  1.00  0.00    -0.309 A  
ENDBRANCH  17  19
ENDBRANCH  14  16
ENDBRANCH  10  14
BRANCH  13  27
HETATM   27  C   UNL     1     -10.930  13.839  68.307  1.00  0.00    -0.250 C  
HETATM   28  C   UNL     1     -12.030  14.029  67.249  1.00  0.00    -0.448 C  
HETATM   29  C   UNL     1     -11.533  13.238  66.038  1.00  0.00    -0.330 C  
HETATM   30  H   UNL     1      -8.460  15.410  66.962  1.00  0.00     0.000 HD 
HETATM   31  C   UNL     1     -10.005  13.498  66.047  1.00  0.00    -0.299 C  
HETATM   32  H   UNL     1      -8.680  14.689  65.130  1.00  0.00     0.000 HD 
HETATM   33  O   UNL     1      -9.258  15.340  67.473  1.00  0.00    -0.195 OA 
HETATM   34  C   UNL     1      -9.646  13.951  67.486  1.00  0.00    -0.229 C  
HETATM   35  O   UNL     1      -9.617  14.530  65.124  1.00  0.00    -0.085 OA 
BRANCH  29  36
HETATM   36  O   UNL     1     -11.793  11.835  66.171  1.00  0.00    -0.477 OA 
BRANCH  36  37
HETATM   37  C   UNL     1     -11.033  11.021  65.265  1.00  0.00    -0.027 C  
BRANCH  37  38
HETATM   38  C   UNL     1     -10.075  10.131  66.053  1.00  0.00    -0.248 C  
HETATM   39  H   UNL     1     -10.208   8.603  67.279  1.00  0.00     0.000 HD 
HETATM   40  O   UNL     1     -10.805   9.157  66.788  1.00  0.00    -0.109 OA 
ENDBRANCH  37  38
ENDBRANCH  36  37
ENDBRANCH  29  36
ENDBRANCH  13  27
ENDBRANCH   4   5
ENDBRANCH   3   4
ENDBRANCH   2   3
TORSDOF 10
ENDMDL
MODEL      184
REMARK 921   NORMALIZED FREE ENERGY PREDICTED BY IDOCK:   -3.97 KCAL/MOL
REMARK 922        TOTAL FREE ENERGY PREDICTED BY IDOCK:   -8.35 KCAL/MOL
REMARK 923 INTER-LIGAND FREE ENERGY PREDICTED BY IDOCK:   -6.76 KCAL/MOL
REMARK 924 INTRA-LIGAND FREE ENERGY PREDICTED BY IDOCK:   -1.59 KCAL/MOL
REMARK 927      BINDING AFFINITY PREDICTED BY RF-SCORE:    0.00 PKD
ROOT
HETATM    1  C   UNL     1     -11.145   6.220  69.915  1.00  0.00    -0.469 C  
HETATM    2  C   UNL     1     -10.007   6.621  70.844  1.00  0.00    -0.204 C  
ENDROOT
BRANCH   2   3
HETATM    3  C   UNL     1      -9.975   8.129  71.114  1.00  0.00    -0.180 C  
BRANCH   3   4
HETATM    4  S   UNL     1     -11.157   8.957  69.991  1.00  0.00    -0.111 SA 
BRANCH   4   5
HETATM    5  C   UNL     1     -10.031   9.774  68.880  1.00  0.00    -0.176 A  
HETATM    6  N   UNL     1      -9.583   9.028  67.845  1.00  0.00    -0.145 NA 
HETATM    7  C   UNL     1      -8.725   9.710  67.068  1.00  0.00    -0.128 A  
HETATM    8  C   UNL     1      -8.311  11.017  67.247  1.00  0.00    -0.125 A  
HETATM    9  N   UNL     1      -7.461  11.378  66.238  1.00  0.00    -0.024 NA 
HETATM   10  C   UNL     1      -8.853  11.726  68.329  1.00  0.00    -0.172 A  
HETATM   11  N   UNL     1      -9.725  11.063  69.142  1.00  0.00    -0.134 NA 
HETATM   12  N   UNL     1      -7.343  10.345  65.410  1.00  0.00    -0.142 NA 
HETATM   13  N   UNL     1      -8.128   9.343  65.889  1.00  0.00    -0.113 NA 
BRANCH  10  14
HETATM   14  N   UNL     1      -8.543  13.087  68.529  1.00  0.00    -0.338 NA 
HETATM   15  H   UNL     1      -7.708  13.363  69.045  1.00  0.00     0.000 HD 
BRANCH  14  16
HETATM   16  C   UNL     1      -9.451  14.095  67.976  1.00  0.00    -0.213 C  
HETATM   17  C   UNL     1      -8.945  15.122  66.986  1.00  0.00    -0.255 C  
HETATM   18  C   UNL     1      -9.883  14.030  66.542  1.00  0.00    -0.298 C  
BRANCH  17  19
HETATM   19  C   UNL     1      -9.388  16.553  67.164  1.00  0.00    -0.242 A  
HETATM   20  C   UNL     1     -10.416  18.607  66.364  1.00  0.00    -0.418 A  
HETATM   21  C   UNL     1     -10.040  17.279  66.156  1.00  0.00    -0.312 A  
HETATM   22  F   UNL     1     -11.048  19.269  65.387  1.00  0.00    -0.466 F  
HETATM   23  C   UNL     1     -10.143  19.235  67.573  1.00  0.00    -0.389 A  
HETATM   24  C   UNL     1      -9.117  17.218  68.378  1.00  0.00    -0.265 A  
HETATM   25  F   UNL     1     -10.504  20.509  67.766  1.00  0.00    -0.454 F  
HETATM   26  C   UNL     1      -9.491  18.548  68.585  1.00  0.00    -0.373 A  
ENDBRANCH  17  19
ENDBRANCH  14  16
ENDBRANCH  10  14
BRANCH  13  27
HETATM   27  C   UNL     1      -8.238   8.142  65.086  1.00  0.00    -0.154 C  
HETATM   28  C   UNL     1      -7.552   6.924  65.726  1.00  0.00    -0.091 C  
HETATM   29  C   UNL     1      -6.099   7.015  65.256  1.00  0.00    -0.037 C  
HETATM   30  H   UNL     1      -8.092   7.397  61.956  1.00  0.00     0.000 HD 
HETATM   31  C   UNL     1      -6.229   7.523  63.798  1.00  0.00    -0.053 C  
HETATM   32  H   UNL     1      -6.213   6.771  61.941  1.00  0.00     0.000 HD 
HETATM   33  O   UNL     1      -8.470   7.376  62.827  1.00  0.00     0.011 OA 
HETATM   34  C   UNL     1      -7.631   8.176  63.685  1.00  0.00    -0.132 C  
HETATM   35  O   UNL     1      -6.133   6.459  62.834  1.00  0.00    -0.026 OA 
BRANCH  29  36
HETATM   36  O   UNL     1      -5.342   7.950  66.035  1.00  0.00    -0.028 OA 
BRANCH  36  37
HETATM   37  C   UNL     1      -5.127   7.529  67.391  1.00  0.00    -0.025 C  
BRANCH  37  38
HETATM   38  C   UNL     1      -5.291   8.719  68.332  1.00  0.00    -0.038 C  
HETATM   39  H   UNL     1      -6.558   9.296  69.717  1.00  0.00     0.000 HD 
HETATM   40  O   UNL     1      -6.456   8.554  69.131  1.00  0.00    -0.042 OA 
ENDBRANCH  37  38
ENDBRANCH  36  37
ENDBRANCH  29  36
ENDBRANCH  13  27
ENDBRANCH   4   5
ENDBRANCH   3   4
ENDBRANCH   2   3
TORSDOF 10
ENDMDL
MODEL      185
REMARK 921   NORMALIZED FREE ENERGY PREDICTED BY IDOCK:   -3.95 KCAL/MOL
REMARK 922        TOTAL FREE ENERGY PREDICTED BY IDOCK:   -8.33 KCAL/MOL
REMARK 923 INTER-LIGAND FREE ENERGY PREDICTED BY IDOCK:   -6.98 KCAL/MOL
REMARK 924 INTRA-LIGAND FREE ENERGY PREDICTED BY IDOCK:   -1.35 KCAL/MOL
REMARK 927      BINDING AFFINITY PREDICTED BY RF-SCORE:    0.00 PKD
ROOT
HETATM    1  C   UNL     1      -7.851   6.887  63.380  1.00  0.00    -0.101 C  
HETATM    2  C   UNL     1      -6.952   7.897  64.080  1.00  0.00    -0.063 C  
ENDROOT
BRANCH   2   3
HETATM    3  C   UNL     1      -6.274   7.314  65.324  1.00  0.00    -0.038 C  
BRANCH   3   4
HETATM    4  S   UNL     1      -5.707   8.689  66.389  1.00  0.00    -0.047 SA 
BRANCH   4   5
HETATM    5  C   UNL     1      -7.193   9.021  67.310  1.00  0.00    -0.083 A  
HETATM    6  N   UNL     1      -7.999   7.957  67.529  1.00  0.00    -0.121 NA 
HETATM    7  C   UNL     1      -9.105   8.297  68.212  1.00  0.00    -0.135 A  
HETATM    8  C   UNL     1      -9.439   9.559  68.666  1.00  0.00    -0.142 A  
HETATM    9  N   UNL     1     -10.623   9.510  69.348  1.00  0.00    -0.214 NA 
HETATM   10  C   UNL     1      -8.528  10.597  68.423  1.00  0.00    -0.132 A  
HETATM   11  N   UNL     1      -7.394  10.290  67.728  1.00  0.00    -0.087 NA 
HETATM   12  N   UNL     1     -11.038   8.247  69.361  1.00  0.00     0.007 NA 
HETATM   13  N   UNL     1     -10.111   7.503  68.702  1.00  0.00    -0.179 NA 
BRANCH  10  14
HETATM   14  N   UNL     1      -8.759  11.894  68.927  1.00  0.00    -0.369 NA 
HETATM   15  H   UNL     1      -8.318  12.205  69.792  1.00  0.00     0.000 HD 
BRANCH  14  16
HETATM   16  C   UNL     1      -9.647  12.783  68.175  1.00  0.00    -0.223 C  
HETATM   17  C   UNL     1      -9.098  13.662  67.072  1.00  0.00    -0.254 C  
HETATM   18  C   UNL     1      -9.988  12.493  66.745  1.00  0.00    -0.234 C  
BRANCH  17  19
HETATM   19  C   UNL     1      -9.574  15.092  67.005  1.00  0.00    -0.235 A  
HETATM   20  C   UNL     1     -10.078  17.247  68.017  1.00  0.00    -0.324 A  
HETATM   21  C   UNL     1      -9.615  15.935  68.127  1.00  0.00    -0.208 A  
HETATM   22  F   UNL     1     -10.092  18.029  69.104  1.00  0.00    -0.355 F  
HETATM   23  C   UNL     1     -10.516  17.738  66.794  1.00  0.00    -0.300 A  
HETATM   24  C   UNL     1     -10.032  15.616  65.779  1.00  0.00    -0.390 A  
HETATM   25  F   UNL     1     -10.962  18.996  66.695  1.00  0.00    -0.449 F  
HETATM   26  C   UNL     1     -10.499  16.928  65.670  1.00  0.00    -0.252 A  
ENDBRANCH  17  19
ENDBRANCH  14  16
ENDBRANCH  10  14
BRANCH  13  27
HETATM   27  C   UNL     1     -10.303   6.068  68.678  1.00  0.00    -0.214 C  
HETATM   28  C   UNL     1     -10.613   5.477  70.064  1.00  0.00    -0.384 C  
HETATM   29  C   UNL     1      -9.239   5.207  70.679  1.00  0.00    -0.147 C  
HETATM   30  H   UNL     1      -8.955   3.550  67.188  1.00  0.00     0.000 HD 
HETATM   31  C   UNL     1      -8.401   4.715  69.472  1.00  0.00    -0.074 C  
HETATM   32  H   UNL     1      -7.785   2.980  68.682  1.00  0.00     0.000 HD 
HETATM   33  O   UNL     1      -9.682   4.083  67.487  1.00  0.00    -0.184 OA 
HETATM   34  C   UNL     1      -9.133   5.210  68.198  1.00  0.00    -0.112 C  
HETATM   35  O   UNL     1      -8.299   3.281  69.421  1.00  0.00    -0.058 OA 
BRANCH  29  36
HETATM   36  O   UNL     1      -8.656   6.396  71.228  1.00  0.00    -0.126 OA 
BRANCH  36  37
HETATM   37  C   UNL     1      -8.905   6.563  72.633  1.00  0.00    -0.124 C  
BRANCH  37  38
HETATM   38  C   UNL     1      -9.824   7.762  72.852  1.00  0.00    -0.264 C  
HETATM   39  H   UNL     1      -9.775   9.695  72.511  1.00  0.00     0.000 HD 
HETATM   40  O   UNL     1      -9.203   8.949  72.374  1.00  0.00    -0.362 OA 
ENDBRANCH  37  38
ENDBRANCH  36  37
ENDBRANCH  29  36
ENDBRANCH  13  27
ENDBRANCH   4   5
ENDBRANCH   3   4
ENDBRANCH   2   3
TORSDOF 10
ENDMDL
MODEL      186
REMARK 921   NORMALIZED FREE ENERGY PREDICTED BY IDOCK:   -3.94 KCAL/MOL
REMARK 922        TOTAL FREE ENERGY PREDICTED BY IDOCK:   -8.31 KCAL/MOL
REMARK 923 INTER-LIGAND FREE ENERGY PREDICTED BY IDOCK:   -7.24 KCAL/MOL
REMARK 924 INTRA-LIGAND FREE ENERGY PREDICTED BY IDOCK:   -1.07 KCAL/MOL
REMARK 927      BINDING AFFINITY PREDICTED BY RF-SCORE:    0.00 PKD
ROOT
HETATM    1  C   UNL     1      -6.686  19.858  65.180  1.00  0.00    -0.308 C  
HETATM    2  C   UNL     1      -6.487  18.800  66.256  1.00  0.00    -0.230 C  
ENDROOT
BRANCH   2   3
HETATM    3  C   UNL     1      -7.344  17.552  66.017  1.00  0.00    -0.253 C  
BRANCH   3   4
HETATM    4  S   UNL     1      -8.530  17.374  67.397  1.00  0.00    -0.209 SA 
BRANCH   4   5
HETATM    5  C   UNL     1      -8.571  15.603  67.564  1.00  0.00    -0.172 A  
HETATM    6  N   UNL     1      -9.697  14.997  67.123  1.00  0.00    -0.223 NA 
HETATM    7  C   UNL     1      -9.655  13.666  67.303  1.00  0.00    -0.238 A  
HETATM    8  C   UNL     1      -8.619  12.942  67.863  1.00  0.00    -0.185 A  
HETATM    9  N   UNL     1      -8.922  11.609  67.849  1.00  0.00    -0.163 NA 
HETATM   10  C   UNL     1      -7.476  13.649  68.263  1.00  0.00    -0.124 A  
HETATM   11  N   UNL     1      -7.485  15.004  68.098  1.00  0.00    -0.105 NA 
HETATM   12  N   UNL     1     -10.112  11.463  67.273  1.00  0.00    -0.190 NA 
HETATM   13  N   UNL     1     -10.547  12.700  66.913  1.00  0.00    -0.239 NA 
BRANCH  10  14
HETATM   14  N   UNL     1      -6.346  12.972  68.766  1.00  0.00    -0.078 NA 
HETATM   15  H   UNL     1      -5.403  13.281  68.530  1.00  0.00     0.000 HD 
BRANCH  14  16
HETATM   16  C   UNL     1      -6.560  11.814  69.636  1.00  0.00    -0.081 C  
HETATM   17  C   UNL     1      -5.815  10.520  69.386  1.00  0.00    -0.038 C  
HETATM   18  C   UNL     1      -5.493  11.366  70.589  1.00  0.00    -0.138 C  
BRANCH  17  19
HETATM   19  C   UNL     1      -6.590   9.229  69.483  1.00  0.00    -0.043 A  
HETATM   20  C   UNL     1      -8.468   7.895  70.267  1.00  0.00    -0.128 A  
HETATM   21  C   UNL     1      -7.795   9.116  70.194  1.00  0.00    -0.114 A  
HETATM   22  F   UNL     1      -9.621   7.823  70.944  1.00  0.00    -0.165 F  
HETATM   23  C   UNL     1      -7.950   6.768  69.642  1.00  0.00    -0.124 A  
HETATM   24  C   UNL     1      -6.085   8.067  68.865  1.00  0.00    -0.039 A  
HETATM   25  F   UNL     1      -8.598   5.599  69.717  1.00  0.00    -0.113 F  
HETATM   26  C   UNL     1      -6.757   6.844  68.941  1.00  0.00    -0.059 A  
ENDBRANCH  17  19
ENDBRANCH  14  16
ENDBRANCH  10  14
BRANCH  13  27
HETATM   27  C   UNL     1     -11.788  12.778  66.170  1.00  0.00    -0.425 C  
HETATM   28  C   UNL     1     -11.976  11.614  65.184  1.00  0.00     0.187 C  
HETATM   29  C   UNL     1     -11.269  12.077  63.909  1.00  0.00    -0.417 C  
HETATM   30  H   UNL     1     -13.539  15.095  64.775  1.00  0.00     0.000 HD 
HETATM   31  C   UNL     1     -11.601  13.589  63.849  1.00  0.00    -0.306 C  
HETATM   32  H   UNL     1     -12.897  14.805  62.923  1.00  0.00     0.000 HD 
HETATM   33  O   UNL     1     -13.405  14.331  65.324  1.00  0.00    -0.660 OA 
HETATM   34  C   UNL     1     -12.001  14.007  65.288  1.00  0.00    -0.379 C  
HETATM   35  O   UNL     1     -12.694  13.878  62.960  1.00  0.00    -0.634 OA 
BRANCH  29  36
HETATM   36  O   UNL     1      -9.851  11.888  63.984  1.00  0.00    -0.276 OA 
BRANCH  36  37
HETATM   37  C   UNL     1      -9.423  10.574  63.593  1.00  0.00    -0.304 C  
BRANCH  37  38
HETATM   38  C   UNL     1      -8.120  10.224  64.308  1.00  0.00    -0.143 C  
HETATM   39  H   UNL     1      -6.276   9.778  63.802  1.00  0.00     0.000 HD 
HETATM   40  O   UNL     1      -7.086   9.997  63.357  1.00  0.00    -0.124 OA 
ENDBRANCH  37  38
ENDBRANCH  36  37
ENDBRANCH  29  36
ENDBRANCH  13  27
ENDBRANCH   4   5
ENDBRANCH   3   4
ENDBRANCH   2   3
TORSDOF 10
ENDMDL
MODEL      187
REMARK 921   NORMALIZED FREE ENERGY PREDICTED BY IDOCK:   -3.89 KCAL/MOL
REMARK 922        TOTAL FREE ENERGY PREDICTED BY IDOCK:   -8.23 KCAL/MOL
REMARK 923 INTER-LIGAND FREE ENERGY PREDICTED BY IDOCK:   -6.77 KCAL/MOL
REMARK 924 INTRA-LIGAND FREE ENERGY PREDICTED BY IDOCK:   -1.46 KCAL/MOL
REMARK 927      BINDING AFFINITY PREDICTED BY RF-SCORE:    0.00 PKD
ROOT
HETATM    1  C   UNL     1     -12.378  14.682  64.253  1.00  0.00    -0.375 C  
HETATM    2  C   UNL     1     -12.055  13.314  63.667  1.00  0.00    -0.551 C  
ENDROOT
BRANCH   2   3
HETATM    3  C   UNL     1     -12.089  12.203  64.722  1.00  0.00    -0.294 C  
BRANCH   3   4
HETATM    4  S   UNL     1     -11.780  12.938  66.367  1.00  0.00    -0.411 SA 
BRANCH   4   5
HETATM    5  C   UNL     1     -10.382  11.973  66.898  1.00  0.00    -0.213 A  
HETATM    6  N   UNL     1     -10.442  11.499  68.163  1.00  0.00    -0.186 NA 
HETATM    7  C   UNL     1      -9.341  10.800  68.491  1.00  0.00    -0.174 A  
HETATM    8  C   UNL     1      -8.248  10.557  67.681  1.00  0.00    -0.111 A  
HETATM    9  N   UNL     1      -7.339   9.783  68.346  1.00  0.00    -0.078 NA 
HETATM   10  C   UNL     1      -8.286  11.060  66.372  1.00  0.00    -0.165 A  
HETATM   11  N   UNL     1      -9.387  11.779  66.006  1.00  0.00    -0.229 NA 
HETATM   12  N   UNL     1      -7.836   9.506  69.548  1.00  0.00    -0.093 NA 
HETATM   13  N   UNL     1      -9.059  10.092  69.631  1.00  0.00    -0.200 NA 
BRANCH  10  14
HETATM   14  N   UNL     1      -7.246  10.783  65.461  1.00  0.00    -0.344 NA 
HETATM   15  H   UNL     1      -6.569  11.502  65.206  1.00  0.00     0.000 HD 
BRANCH  14  16
HETATM   16  C   UNL     1      -7.163   9.438  64.888  1.00  0.00    -0.106 C  
HETATM   17  C   UNL     1      -8.406   8.584  64.753  1.00  0.00    -0.163 C  
HETATM   18  C   UNL     1      -7.731   9.148  63.531  1.00  0.00    -0.121 C  
BRANCH  17  19
HETATM   19  C   UNL     1      -8.309   7.129  65.139  1.00  0.00    -0.081 A  
HETATM   20  C   UNL     1      -9.242   5.069  66.035  1.00  0.00    -0.153 A  
HETATM   21  C   UNL     1      -9.386   6.411  65.680  1.00  0.00     0.182 A  
HETATM   22  F   UNL     1     -10.294   4.408  66.537  1.00  0.00    -0.248 F  
HETATM   23  C   UNL     1      -8.024   4.423  65.867  1.00  0.00    -0.099 A  
HETATM   24  C   UNL     1      -7.082   6.450  64.987  1.00  0.00    -0.060 A  
HETATM   25  F   UNL     1      -7.890   3.137  66.213  1.00  0.00    -0.075 F  
HETATM   26  C   UNL     1      -6.937   5.108  65.346  1.00  0.00    -0.062 A  
ENDBRANCH  17  19
ENDBRANCH  14  16
ENDBRANCH  10  14
BRANCH  13  27
HETATM   27  C   UNL     1      -9.840   9.839  70.825  1.00  0.00    -0.032 C  
HETATM   28  C   UNL     1      -9.290   8.678  71.671  1.00  0.00    -0.333 C  
HETATM   29  C   UNL     1      -9.938   7.430  71.071  1.00  0.00    -0.183 C  
HETATM   30  H   UNL     1     -12.963   9.790  71.614  1.00  0.00     0.000 HD 
HETATM   31  C   UNL     1     -11.369   7.908  70.718  1.00  0.00    -0.274 C  
HETATM   32  H   UNL     1     -13.213   7.828  71.500  1.00  0.00     0.000 HD 
HETATM   33  O   UNL     1     -12.051  10.028  71.730  1.00  0.00    -0.373 OA 
HETATM   34  C   UNL     1     -11.307   9.455  70.636  1.00  0.00    -0.292 C  
HETATM   35  O   UNL     1     -12.336   7.535  71.717  1.00  0.00    -0.304 OA 
BRANCH  29  36
HETATM   36  O   UNL     1      -9.262   6.991  69.886  1.00  0.00    -0.145 OA 
BRANCH  36  37
HETATM   37  C   UNL     1      -9.387   5.582  69.640  1.00  0.00    -0.134 C  
BRANCH  37  38
HETATM   38  C   UNL     1      -8.965   4.804  70.884  1.00  0.00    -0.121 C  
HETATM   39  H   UNL     1      -9.649   3.296  71.940  1.00  0.00     0.000 HD 
HETATM   40  O   UNL     1      -9.912   3.780  71.166  1.00  0.00    -0.172 OA 
ENDBRANCH  37  38
ENDBRANCH  36  37
ENDBRANCH  29  36
ENDBRANCH  13  27
ENDBRANCH   4   5
ENDBRANCH   3   4
ENDBRANCH   2   3
TORSDOF 10
ENDMDL
MODEL      188
REMARK 921   NORMALIZED FREE ENERGY PREDICTED BY IDOCK:   -3.85 KCAL/MOL
REMARK 922        TOTAL FREE ENERGY PREDICTED BY IDOCK:   -8.16 KCAL/MOL
REMARK 923 INTER-LIGAND FREE ENERGY PREDICTED BY IDOCK:   -6.57 KCAL/MOL
REMARK 924 INTRA-LIGAND FREE ENERGY PREDICTED BY IDOCK:   -1.59 KCAL/MOL
REMARK 927      BINDING AFFINITY PREDICTED BY RF-SCORE:    0.00 PKD
ROOT
HETATM    1  C   UNL     1      -7.100   7.468  71.347  1.00  0.00    -0.058 C  
HETATM    2  C   UNL     1      -5.851   8.330  71.470  1.00  0.00    -0.037 C  
ENDROOT
BRANCH   2   3
HETATM    3  C   UNL     1      -5.313   8.780  70.108  1.00  0.00    -0.028 C  
BRANCH   3   4
HETATM    4  S   UNL     1      -5.711  10.548  69.868  1.00  0.00    -0.061 SA 
BRANCH   4   5
HETATM    5  C   UNL     1      -6.789  10.451  68.455  1.00  0.00    -0.061 A  
HETATM    6  N   UNL     1      -7.015   9.207  67.973  1.00  0.00    -0.076 NA 
HETATM    7  C   UNL     1      -7.820   9.223  66.897  1.00  0.00    -0.098 A  
HETATM    8  C   UNL     1      -8.384  10.338  66.306  1.00  0.00    -0.134 A  
HETATM    9  N   UNL     1      -9.170   9.960  65.254  1.00  0.00    -0.207 NA 
HETATM   10  C   UNL     1      -8.122  11.585  66.893  1.00  0.00    -0.164 A  
HETATM   11  N   UNL     1      -7.304  11.607  67.986  1.00  0.00    -0.084 NA 
HETATM   12  N   UNL     1      -9.141   8.633  65.176  1.00  0.00    -0.065 NA 
HETATM   13  N   UNL     1      -8.352   8.179  66.185  1.00  0.00    -0.119 NA 
BRANCH  10  14
HETATM   14  N   UNL     1      -8.727  12.759  66.398  1.00  0.00    -0.426 NA 
HETATM   15  H   UNL     1      -9.006  12.830  65.420  1.00  0.00     0.000 HD 
BRANCH  14  16
HETATM   16  C   UNL     1      -8.945  13.872  67.324  1.00  0.00    -0.221 C  
HETATM   17  C   UNL     1     -10.131  14.795  67.147  1.00  0.00    -0.240 C  
HETATM   18  C   UNL     1     -10.075  13.838  68.308  1.00  0.00    -0.239 C  
BRANCH  17  19
HETATM   19  C   UNL     1      -9.902  16.278  67.303  1.00  0.00    -0.243 A  
HETATM   20  C   UNL     1      -8.854  18.377  66.658  1.00  0.00    -0.289 A  
HETATM   21  C   UNL     1      -9.045  17.008  66.465  1.00  0.00    -0.291 A  
HETATM   22  F   UNL     1      -8.039  19.047  65.833  1.00  0.00    -0.294 F  
HETATM   23  C   UNL     1      -9.503  19.039  67.692  1.00  0.00    -0.306 A  
HETATM   24  C   UNL     1     -10.542  16.975  68.348  1.00  0.00    -0.375 A  
HETATM   25  F   UNL     1      -9.314  20.351  67.875  1.00  0.00    -0.422 F  
HETATM   26  C   UNL     1     -10.348  18.344  68.544  1.00  0.00    -0.326 A  
ENDBRANCH  17  19
ENDBRANCH  14  16
ENDBRANCH  10  14
BRANCH  13  27
HETATM   27  C   UNL     1      -8.254   6.745  66.360  1.00  0.00    -0.117 C  
HETATM   28  C   UNL     1      -9.623   6.044  66.380  1.00  0.00    -0.168 C  
HETATM   29  C   UNL     1     -10.067   6.118  67.842  1.00  0.00    -0.153 C  
HETATM   30  H   UNL     1      -6.465   4.717  68.111  1.00  0.00     0.000 HD 
HETATM   31  C   UNL     1      -8.747   5.903  68.625  1.00  0.00    -0.109 C  
HETATM   32  H   UNL     1      -7.783   4.416  69.559  1.00  0.00     0.000 HD 
HETATM   33  O   UNL     1      -6.874   5.033  67.314  1.00  0.00    -0.054 OA 
HETATM   34  C   UNL     1      -7.595   6.237  67.642  1.00  0.00    -0.097 C  
HETATM   35  O   UNL     1      -8.592   4.547  69.079  1.00  0.00    -0.082 OA 
BRANCH  29  36
HETATM   36  O   UNL     1     -10.628   7.396  68.167  1.00  0.00    -0.203 OA 
BRANCH  36  37
HETATM   37  C   UNL     1     -10.497   7.746  69.554  1.00  0.00    -0.225 C  
BRANCH  37  38
HETATM   38  C   UNL     1     -10.248   9.246  69.685  1.00  0.00    -0.208 C  
HETATM   39  H   UNL     1     -10.041  10.550  71.139  1.00  0.00     0.000 HD 
HETATM   40  O   UNL     1     -10.195   9.616  71.057  1.00  0.00    -0.288 OA 
ENDBRANCH  37  38
ENDBRANCH  36  37
ENDBRANCH  29  36
ENDBRANCH  13  27
ENDBRANCH   4   5
ENDBRANCH   3   4
ENDBRANCH   2   3
TORSDOF 10
ENDMDL
MODEL      189
REMARK 921   NORMALIZED FREE ENERGY PREDICTED BY IDOCK:   -3.81 KCAL/MOL
REMARK 922        TOTAL FREE ENERGY PREDICTED BY IDOCK:   -8.10 KCAL/MOL
REMARK 923 INTER-LIGAND FREE ENERGY PREDICTED BY IDOCK:   -6.36 KCAL/MOL
REMARK 924 INTRA-LIGAND FREE ENERGY PREDICTED BY IDOCK:   -1.74 KCAL/MOL
REMARK 927      BINDING AFFINITY PREDICTED BY RF-SCORE:    0.00 PKD
ROOT
HETATM    1  C   UNL     1      -8.540   3.046  67.490  1.00  0.00    -0.120 C  
HETATM    2  C   UNL     1      -8.415   3.827  66.190  1.00  0.00    -0.110 C  
ENDROOT
BRANCH   2   3
HETATM    3  C   UNL     1      -9.206   5.139  66.216  1.00  0.00    -0.146 C  
BRANCH   3   4
HETATM    4  S   UNL     1      -8.147   6.483  65.571  1.00  0.00    -0.131 SA 
BRANCH   4   5
HETATM    5  C   UNL     1      -7.821   7.387  67.068  1.00  0.00    -0.116 A  
HETATM    6  N   UNL     1      -8.191   6.776  68.216  1.00  0.00    -0.115 NA 
HETATM    7  C   UNL     1      -7.929   7.532  69.296  1.00  0.00    -0.121 A  
HETATM    8  C   UNL     1      -7.351   8.788  69.302  1.00  0.00    -0.070 A  
HETATM    9  N   UNL     1      -7.213   9.229  70.589  1.00  0.00    -0.104 NA 
HETATM   10  C   UNL     1      -6.969   9.331  68.068  1.00  0.00    -0.076 A  
HETATM   11  N   UNL     1      -7.223   8.593  66.948  1.00  0.00    -0.075 NA 
HETATM   12  N   UNL     1      -7.663   8.278  71.401  1.00  0.00    -0.088 NA 
HETATM   13  N   UNL     1      -8.070   7.237  70.628  1.00  0.00    -0.107 NA 
BRANCH  10  14
HETATM   14  N   UNL     1      -6.299  10.571  67.999  1.00  0.00    -0.058 NA 
HETATM   15  H   UNL     1      -5.326  10.656  68.293  1.00  0.00     0.000 HD 
BRANCH  14  16
HETATM   16  C   UNL     1      -7.036  11.732  67.497  1.00  0.00    -0.113 C  
HETATM   17  C   UNL     1      -7.445  12.846  68.436  1.00  0.00    -0.124 C  
HETATM   18  C   UNL     1      -6.375  13.074  67.402  1.00  0.00    -0.096 C  
BRANCH  17  19
HETATM   19  C   UNL     1      -8.839  13.406  68.304  1.00  0.00    -0.172 A  
HETATM   20  C   UNL     1     -11.186  13.225  67.687  1.00  0.00    -0.280 A  
HETATM   21  C   UNL     1      -9.916  12.657  67.805  1.00  0.00    -0.218 A  
HETATM   22  F   UNL     1     -12.195  12.480  67.220  1.00  0.00    -0.395 F  
HETATM   23  C   UNL     1     -11.402  14.548  68.054  1.00  0.00    -0.306 A  
HETATM   24  C   UNL     1      -9.086  14.748  68.661  1.00  0.00    -0.186 A  
HETATM   25  F   UNL     1     -12.621  15.088  67.937  1.00  0.00    -0.002 F  
HETATM   26  C   UNL     1     -10.356  15.317  68.540  1.00  0.00    -0.231 A  
ENDBRANCH  17  19
ENDBRANCH  14  16
ENDBRANCH  10  14
BRANCH  13  27
HETATM   27  C   UNL     1      -8.508   6.035  71.307  1.00  0.00    -0.128 C  
HETATM   28  C   UNL     1      -9.811   5.456  70.729  1.00  0.00    -0.252 C  
HETATM   29  C   UNL     1     -10.921   6.196  71.478  1.00  0.00    -0.273 C  
HETATM   30  H   UNL     1      -8.622   4.972  74.346  1.00  0.00     0.000 HD 
HETATM   31  C   UNL     1     -10.355   6.323  72.915  1.00  0.00    -0.207 C  
HETATM   32  H   UNL     1     -10.528   5.395  74.682  1.00  0.00     0.000 HD 
HETATM   33  O   UNL     1      -8.428   4.904  73.419  1.00  0.00    -0.106 OA 
HETATM   34  C   UNL     1      -8.820   6.146  72.799  1.00  0.00    -0.123 C  
HETATM   35  O   UNL     1     -10.874   5.316  73.802  1.00  0.00    -0.282 OA 
BRANCH  29  36
HETATM   36  O   UNL     1     -11.162   7.497  70.929  1.00  0.00    -0.259 OA 
BRANCH  36  37
HETATM   37  C   UNL     1     -11.634   8.450  71.894  1.00  0.00    -0.329 C  
BRANCH  37  38
HETATM   38  C   UNL     1     -11.884   9.792  71.211  1.00  0.00    -0.399 C  
HETATM   39  H   UNL     1     -13.013  11.372  71.509  1.00  0.00     0.000 HD 
HETATM   40  O   UNL     1     -12.857  10.536  71.934  1.00  0.00    -0.444 OA 
ENDBRANCH  37  38
ENDBRANCH  36  37
ENDBRANCH  29  36
ENDBRANCH  13  27
ENDBRANCH   4   5
ENDBRANCH   3   4
ENDBRANCH   2   3
TORSDOF 10
ENDMDL
MODEL      190
REMARK 921   NORMALIZED FREE ENERGY PREDICTED BY IDOCK:   -3.80 KCAL/MOL
REMARK 922        TOTAL FREE ENERGY PREDICTED BY IDOCK:   -8.09 KCAL/MOL
REMARK 923 INTER-LIGAND FREE ENERGY PREDICTED BY IDOCK:   -6.89 KCAL/MOL
REMARK 924 INTRA-LIGAND FREE ENERGY PREDICTED BY IDOCK:   -1.20 KCAL/MOL
REMARK 927      BINDING AFFINITY PREDICTED BY RF-SCORE:    0.00 PKD
ROOT
HETATM    1  C   UNL     1     -10.918   6.421  71.132  1.00  0.00    -0.327 C  
HETATM    2  C   UNL     1     -10.206   7.235  72.205  1.00  0.00    -0.216 C  
ENDROOT
BRANCH   2   3
HETATM    3  C   UNL     1     -10.104   8.720  71.841  1.00  0.00    -0.339 C  
BRANCH   3   4
HETATM    4  S   UNL     1     -11.248   9.072  70.459  1.00  0.00    -0.247 SA 
BRANCH   4   5
HETATM    5  C   UNL     1     -10.102   9.655  69.229  1.00  0.00    -0.193 A  
HETATM    6  N   UNL     1      -9.809   8.782  68.238  1.00  0.00    -0.159 NA 
HETATM    7  C   UNL     1      -8.923   9.292  67.365  1.00  0.00    -0.124 A  
HETATM    8  C   UNL     1      -8.346  10.547  67.414  1.00  0.00    -0.121 A  
HETATM    9  N   UNL     1      -7.521  10.722  66.337  1.00  0.00    -0.137 NA 
HETATM   10  C   UNL     1      -8.734  11.398  68.458  1.00  0.00    -0.149 A  
HETATM   11  N   UNL     1      -9.629  10.913  69.367  1.00  0.00    -0.049 NA 
HETATM   12  N   UNL     1      -7.578   9.622  65.593  1.00  0.00    -0.104 NA 
HETATM   13  N   UNL     1      -8.446   8.765  66.192  1.00  0.00    -0.125 NA 
BRANCH  10  14
HETATM   14  N   UNL     1      -8.253  12.722  68.529  1.00  0.00    -0.295 NA 
HETATM   15  H   UNL     1      -7.293  12.915  68.815  1.00  0.00     0.000 HD 
BRANCH  14  16
HETATM   16  C   UNL     1      -9.166  13.813  68.181  1.00  0.00    -0.199 C  
HETATM   17  C   UNL     1      -8.716  14.923  67.256  1.00  0.00    -0.224 C  
HETATM   18  C   UNL     1      -9.740  13.918  66.800  1.00  0.00    -0.282 C  
BRANCH  17  19
HETATM   19  C   UNL     1      -9.075  16.341  67.627  1.00  0.00    -0.194 A  
HETATM   20  C   UNL     1      -8.555  18.518  68.580  1.00  0.00    -0.324 A  
HETATM   21  C   UNL     1      -8.170  17.220  68.241  1.00  0.00    -0.237 A  
HETATM   22  F   UNL     1      -7.664  19.336  69.154  1.00  0.00    -0.371 F  
HETATM   23  C   UNL     1      -9.846  18.959  68.320  1.00  0.00    -0.374 A  
HETATM   24  C   UNL     1     -10.381  16.813  67.382  1.00  0.00    -0.302 A  
HETATM   25  F   UNL     1     -10.211  20.205  68.648  1.00  0.00    -0.514 F  
HETATM   26  C   UNL     1     -10.767  18.112  67.723  1.00  0.00    -0.355 A  
ENDBRANCH  17  19
ENDBRANCH  14  16
ENDBRANCH  10  14
BRANCH  13  27
HETATM   27  C   UNL     1      -8.747   7.529  65.499  1.00  0.00    -0.035 C  
HETATM   28  C   UNL     1      -9.248   6.417  66.436  1.00  0.00    -0.176 C  
HETATM   29  C   UNL     1      -7.972   5.739  66.938  1.00  0.00    -0.102 C  
HETATM   30  H   UNL     1      -7.449   5.815  63.099  1.00  0.00     0.000 HD 
HETATM   31  C   UNL     1      -7.051   5.750  65.691  1.00  0.00    -0.069 C  
HETATM   32  H   UNL     1      -6.493   4.499  64.229  1.00  0.00     0.000 HD 
HETATM   33  O   UNL     1      -8.160   6.238  63.566  1.00  0.00    -0.113 OA 
HETATM   34  C   UNL     1      -7.603   6.849  64.748  1.00  0.00    -0.108 C  
HETATM   35  O   UNL     1      -7.057   4.492  64.992  1.00  0.00    -0.060 OA 
BRANCH  29  36
HETATM   36  O   UNL     1      -7.359   6.473  68.005  1.00  0.00    -0.085 OA 
BRANCH  36  37
HETATM   37  C   UNL     1      -7.698   5.980  69.311  1.00  0.00    -0.095 C  
BRANCH  37  38
HETATM   38  C   UNL     1      -7.751   4.455  69.286  1.00  0.00    -0.055 C  
HETATM   39  H   UNL     1      -6.526   2.965  69.653  1.00  0.00     0.000 HD 
HETATM   40  O   UNL     1      -6.492   3.914  69.669  1.00  0.00    -0.031 OA 
ENDBRANCH  37  38
ENDBRANCH  36  37
ENDBRANCH  29  36
ENDBRANCH  13  27
ENDBRANCH   4   5
ENDBRANCH   3   4
ENDBRANCH   2   3
TORSDOF 10
ENDMDL
MODEL      191
REMARK 921   NORMALIZED FREE ENERGY PREDICTED BY IDOCK:   -3.74 KCAL/MOL
REMARK 922        TOTAL FREE ENERGY PREDICTED BY IDOCK:   -7.98 KCAL/MOL
REMARK 923 INTER-LIGAND FREE ENERGY PREDICTED BY IDOCK:   -6.96 KCAL/MOL
REMARK 924 INTRA-LIGAND FREE ENERGY PREDICTED BY IDOCK:   -1.02 KCAL/MOL
REMARK 927      BINDING AFFINITY PREDICTED BY RF-SCORE:    0.00 PKD
ROOT
HETATM    1  C   UNL     1      -6.660   6.034  66.455  1.00  0.00    -0.058 C  
HETATM    2  C   UNL     1      -6.875   7.526  66.241  1.00  0.00    -0.061 C  
ENDROOT
BRANCH   2   3
HETATM    3  C   UNL     1      -8.154   7.826  65.451  1.00  0.00    -0.131 C  
BRANCH   3   4
HETATM    4  S   UNL     1      -8.246   9.624  65.134  1.00  0.00    -0.143 SA 
BRANCH   4   5
HETATM    5  C   UNL     1      -9.286  10.140  66.484  1.00  0.00    -0.153 A  
HETATM    6  N   UNL     1      -9.461  11.474  66.614  1.00  0.00    -0.188 NA 
HETATM    7  C   UNL     1     -10.240  11.779  67.667  1.00  0.00    -0.199 A  
HETATM    8  C   UNL     1     -10.824  10.886  68.545  1.00  0.00    -0.220 A  
HETATM    9  N   UNL     1     -11.572  11.563  69.467  1.00  0.00    -0.304 NA 
HETATM   10  C   UNL     1     -10.615   9.519  68.314  1.00  0.00    -0.216 A  
HETATM   11  N   UNL     1      -9.825   9.172  67.256  1.00  0.00    -0.176 NA 
HETATM   12  N   UNL     1     -11.500  12.860  69.183  1.00  0.00    -0.291 NA 
HETATM   13  N   UNL     1     -10.721  12.995  68.078  1.00  0.00    -0.226 NA 
BRANCH  10  14
HETATM   14  N   UNL     1     -11.245   8.545  69.117  1.00  0.00    -0.370 NA 
HETATM   15  H   UNL     1     -12.202   8.677  69.445  1.00  0.00     0.000 HD 
BRANCH  14  16
HETATM   16  C   UNL     1     -10.491   7.340  69.469  1.00  0.00    -0.230 C  
HETATM   17  C   UNL     1     -11.004   6.399  70.537  1.00  0.00    -0.364 C  
HETATM   18  C   UNL     1     -11.001   5.982  69.090  1.00  0.00    -0.429 C  
BRANCH  17  19
HETATM   19  C   UNL     1     -10.014   5.863  71.541  1.00  0.00    -0.221 A  
HETATM   20  C   UNL     1      -7.810   5.049  72.173  1.00  0.00    -0.110 A  
HETATM   21  C   UNL     1      -8.685   5.557  71.211  1.00  0.00    -0.135 A  
HETATM   22  F   UNL     1      -6.545   4.778  71.829  1.00  0.00    -0.026 F  
HETATM   23  C   UNL     1      -8.245   4.829  73.474  1.00  0.00    -0.107 A  
HETATM   24  C   UNL     1     -10.430   5.624  72.867  1.00  0.00    -0.246 A  
HETATM   25  F   UNL     1      -7.403   4.340  74.392  1.00  0.00    -0.066 F  
HETATM   26  C   UNL     1      -9.555   5.112  73.829  1.00  0.00    -0.136 A  
ENDBRANCH  17  19
ENDBRANCH  14  16
ENDBRANCH  10  14
BRANCH  13  27
HETATM   27  C   UNL     1     -10.582  14.325  67.519  1.00  0.00    -0.261 C  
HETATM   28  C   UNL     1      -9.296  14.502  66.695  1.00  0.00    -0.301 C  
HETATM   29  C   UNL     1      -8.238  14.905  67.724  1.00  0.00    -0.156 C  
HETATM   30  H   UNL     1     -11.149  17.343  68.492  1.00  0.00     0.000 HD 
HETATM   31  C   UNL     1      -9.019  15.826  68.694  1.00  0.00    -0.204 C  
HETATM   32  H   UNL     1      -9.289  17.786  69.010  1.00  0.00     0.000 HD 
HETATM   33  O   UNL     1     -11.187  16.615  67.883  1.00  0.00    -0.263 OA 
HETATM   34  C   UNL     1     -10.521  15.495  68.500  1.00  0.00    -0.238 C  
HETATM   35  O   UNL     1      -8.810  17.222  68.415  1.00  0.00    -0.253 OA 
BRANCH  29  36
HETATM   36  O   UNL     1      -7.722  13.771  68.432  1.00  0.00    -0.120 OA 
BRANCH  36  37
HETATM   37  C   UNL     1      -6.501  13.254  67.880  1.00  0.00    -0.147 C  
BRANCH  37  38
HETATM   38  C   UNL     1      -5.819  12.346  68.900  1.00  0.00    -0.066 C  
HETATM   39  H   UNL     1      -5.630  12.261  70.853  1.00  0.00     0.000 HD 
HETATM   40  O   UNL     1      -6.055  12.826  70.218  1.00  0.00    -0.148 OA 
ENDBRANCH  37  38
ENDBRANCH  36  37
ENDBRANCH  29  36
ENDBRANCH  13  27
ENDBRANCH   4   5
ENDBRANCH   3   4
ENDBRANCH   2   3
TORSDOF 10
ENDMDL
MODEL      192
REMARK 921   NORMALIZED FREE ENERGY PREDICTED BY IDOCK:   -3.73 KCAL/MOL
REMARK 922        TOTAL FREE ENERGY PREDICTED BY IDOCK:   -7.98 KCAL/MOL
REMARK 923 INTER-LIGAND FREE ENERGY PREDICTED BY IDOCK:   -7.09 KCAL/MOL
REMARK 924 INTRA-LIGAND FREE ENERGY PREDICTED BY IDOCK:   -0.89 KCAL/MOL
REMARK 927      BINDING AFFINITY PREDICTED BY RF-SCORE:    0.00 PKD
ROOT
HETATM    1  C   UNL     1      -9.728  10.697  62.898  1.00  0.00    -0.329 C  
HETATM    2  C   UNL     1      -9.031   9.663  63.772  1.00  0.00    -0.251 C  
ENDROOT
BRANCH   2   3
HETATM    3  C   UNL     1      -7.769   9.096  63.114  1.00  0.00    -0.114 C  
BRANCH   3   4
HETATM    4  S   UNL     1      -6.303   9.908  63.846  1.00  0.00    -0.131 SA 
BRANCH   4   5
HETATM    5  C   UNL     1      -6.836  10.078  65.535  1.00  0.00    -0.120 A  
HETATM    6  N   UNL     1      -7.571  11.179  65.811  1.00  0.00     0.058 NA 
HETATM    7  C   UNL     1      -7.915  11.242  67.109  1.00  0.00    -0.151 A  
HETATM    8  C   UNL     1      -7.591  10.327  68.093  1.00  0.00    -0.087 A  
HETATM    9  N   UNL     1      -8.144  10.709  69.284  1.00  0.00    -0.149 NA 
HETATM   10  C   UNL     1      -6.853   9.198  67.710  1.00  0.00    -0.076 A  
HETATM   11  N   UNL     1      -6.482   9.103  66.400  1.00  0.00    -0.066 NA 
HETATM   12  N   UNL     1      -8.831  11.829  69.078  1.00  0.00     0.152 NA 
HETATM   13  N   UNL     1      -8.722  12.140  67.759  1.00  0.00    -0.162 NA 
BRANCH  10  14
HETATM   14  N   UNL     1      -6.555   8.180  68.639  1.00  0.00    -0.056 NA 
HETATM   15  H   UNL     1      -5.711   8.224  69.210  1.00  0.00     0.000 HD 
BRANCH  14  16
HETATM   16  C   UNL     1      -7.488   7.058  68.764  1.00  0.00    -0.099 C  
HETATM   17  C   UNL     1      -8.908   7.291  69.232  1.00  0.00    -0.136 C  
HETATM   18  C   UNL     1      -8.629   6.903  67.804  1.00  0.00    -0.122 C  
BRANCH  17  19
HETATM   19  C   UNL     1      -9.487   6.329  70.240  1.00  0.00    -0.173 A  
HETATM   20  C   UNL     1     -10.643   5.821  72.319  1.00  0.00    -0.218 A  
HETATM   21  C   UNL     1     -10.137   6.751  71.409  1.00  0.00    -0.198 A  
HETATM   22  F   UNL     1     -11.270   6.256  73.420  1.00  0.00    -0.241 F  
HETATM   23  C   UNL     1     -10.502   4.459  72.085  1.00  0.00    -0.091 A  
HETATM   24  C   UNL     1      -9.352   4.941  70.032  1.00  0.00    -0.207 A  
HETATM   25  F   UNL     1     -10.986   3.571  72.962  1.00  0.00    -0.250 F  
HETATM   26  C   UNL     1      -9.855   4.010  70.944  1.00  0.00    -0.229 A  
ENDBRANCH  17  19
ENDBRANCH  14  16
ENDBRANCH  10  14
BRANCH  13  27
HETATM   27  C   UNL     1      -9.481  13.277  67.279  1.00  0.00    -0.233 C  
HETATM   28  C   UNL     1     -10.633  13.674  68.218  1.00  0.00    -0.261 C  
HETATM   29  C   UNL     1     -11.805  12.797  67.774  1.00  0.00    -0.332 C  
HETATM   30  H   UNL     1     -10.571  14.332  64.437  1.00  0.00     0.000 HD 
HETATM   31  C   UNL     1     -11.651  12.754  66.232  1.00  0.00    -0.379 C  
HETATM   32  H   UNL     1     -12.426  13.661  64.622  1.00  0.00     0.000 HD 
HETATM   33  O   UNL     1     -10.136  14.420  65.277  1.00  0.00    -0.369 OA 
HETATM   34  C   UNL     1     -10.180  13.134  65.927  1.00  0.00    -0.291 C  
HETATM   35  O   UNL     1     -12.520  13.688  65.566  1.00  0.00    -0.450 OA 
BRANCH  29  36
HETATM   36  O   UNL     1     -11.717  11.472  68.312  1.00  0.00    -0.385 OA 
BRANCH  36  37
HETATM   37  C   UNL     1     -12.156  11.375  69.676  1.00  0.00    -0.305 C  
BRANCH  37  38
HETATM   38  C   UNL     1     -11.671  10.059  70.280  1.00  0.00    -0.251 C  
HETATM   39  H   UNL     1     -11.866   9.097  71.980  1.00  0.00     0.000 HD 
HETATM   40  O   UNL     1     -12.168   9.916  71.605  1.00  0.00    -0.382 OA 
ENDBRANCH  37  38
ENDBRANCH  36  37
ENDBRANCH  29  36
ENDBRANCH  13  27
ENDBRANCH   4   5
ENDBRANCH   3   4
ENDBRANCH   2   3
TORSDOF 10
ENDMDL
MODEL      193
REMARK 921   NORMALIZED FREE ENERGY PREDICTED BY IDOCK:   -3.69 KCAL/MOL
REMARK 922        TOTAL FREE ENERGY PREDICTED BY IDOCK:   -7.91 KCAL/MOL
REMARK 923 INTER-LIGAND FREE ENERGY PREDICTED BY IDOCK:   -7.48 KCAL/MOL
REMARK 924 INTRA-LIGAND FREE ENERGY PREDICTED BY IDOCK:   -0.43 KCAL/MOL
REMARK 927      BINDING AFFINITY PREDICTED BY RF-SCORE:    0.00 PKD
ROOT
HETATM    1  C   UNL     1      -9.277  10.543  63.012  1.00  0.00    -0.313 C  
HETATM    2  C   UNL     1      -7.789  10.257  63.157  1.00  0.00    -0.144 C  
ENDROOT
BRANCH   2   3
HETATM    3  C   UNL     1      -7.400   9.891  64.593  1.00  0.00    -0.140 C  
BRANCH   3   4
HETATM    4  S   UNL     1      -8.341   8.408  65.102  1.00  0.00    -0.154 SA 
BRANCH   4   5
HETATM    5  C   UNL     1      -9.192   9.037  66.532  1.00  0.00    -0.179 A  
HETATM    6  N   UNL     1      -9.127  10.375  66.713  1.00  0.00    -0.143 NA 
HETATM    7  C   UNL     1      -9.776  10.765  67.824  1.00  0.00    -0.162 A  
HETATM    8  C   UNL     1     -10.450   9.950  68.714  1.00  0.00    -0.213 A  
HETATM    9  N   UNL     1     -11.013  10.707  69.703  1.00  0.00    -0.261 NA 
HETATM   10  C   UNL     1     -10.495   8.577  68.429  1.00  0.00    -0.171 A  
HETATM   11  N   UNL     1      -9.842   8.145  67.311  1.00  0.00    -0.178 NA 
HETATM   12  N   UNL     1     -10.737  11.983  69.453  1.00  0.00    -0.015 NA 
HETATM   13  N   UNL     1     -10.015  12.028  68.302  1.00  0.00    -0.200 NA 
BRANCH  10  14
HETATM   14  N   UNL     1     -11.232   7.694  69.244  1.00  0.00    -0.433 NA 
HETATM   15  H   UNL     1     -12.221   7.520  69.066  1.00  0.00     0.000 HD 
BRANCH  14  16
HETATM   16  C   UNL     1     -10.541   7.030  70.352  1.00  0.00    -0.223 C  
HETATM   17  C   UNL     1     -10.417   7.714  71.697  1.00  0.00    -0.229 C  
HETATM   18  C   UNL     1     -11.309   6.512  71.531  1.00  0.00    -0.339 C  
BRANCH  17  19
HETATM   19  C   UNL     1      -9.085   7.648  72.402  1.00  0.00    -0.191 A  
HETATM   20  C   UNL     1      -6.684   7.259  72.443  1.00  0.00    -0.059 A  
HETATM   21  C   UNL     1      -7.890   7.322  71.744  1.00  0.00    -0.091 A  
HETATM   22  F   UNL     1      -5.559   6.957  71.783  1.00  0.00    -0.033 F  
HETATM   23  C   UNL     1      -6.649   7.511  73.809  1.00  0.00    -0.078 A  
HETATM   24  C   UNL     1      -9.021   7.891  73.790  1.00  0.00    -0.324 A  
HETATM   25  F   UNL     1      -5.490   7.447  74.476  1.00  0.00    -0.062 F  
HETATM   26  C   UNL     1      -7.814   7.825  74.491  1.00  0.00    -0.250 A  
ENDBRANCH  17  19
ENDBRANCH  14  16
ENDBRANCH  10  14
BRANCH  13  27
HETATM   27  C   UNL     1      -9.684  13.336  67.774  1.00  0.00    -0.217 C  
HETATM   28  C   UNL     1      -9.865  14.465  68.803  1.00  0.00    -0.214 C  
HETATM   29  C   UNL     1     -11.335  14.866  68.674  1.00  0.00    -0.292 C  
HETATM   30  H   UNL     1     -10.108  14.916  64.999  1.00  0.00     0.000 HD 
HETATM   31  C   UNL     1     -11.600  14.758  67.151  1.00  0.00    -0.359 C  
HETATM   32  H   UNL     1     -11.693  15.967  65.555  1.00  0.00     0.000 HD 
HETATM   33  O   UNL     1      -9.605  14.605  65.743  1.00  0.00    -0.303 OA 
HETATM   34  C   UNL     1     -10.493  13.835  66.578  1.00  0.00    -0.282 C  
HETATM   35  O   UNL     1     -11.530  16.034  66.489  1.00  0.00     0.163 OA 
BRANCH  29  36
HETATM   36  O   UNL     1     -12.199  13.972  69.386  1.00  0.00    -0.336 OA 
BRANCH  36  37
HETATM   37  C   UNL     1     -12.950  14.608  70.432  1.00  0.00    -0.200 C  
BRANCH  37  38
HETATM   38  C   UNL     1     -12.420  14.160  71.791  1.00  0.00    -0.276 C  
HETATM   39  H   UNL     1     -13.167  13.713  73.552  1.00  0.00     0.000 HD 
HETATM   40  O   UNL     1     -13.497  13.991  72.705  1.00  0.00    -0.576 OA 
ENDBRANCH  37  38
ENDBRANCH  36  37
ENDBRANCH  29  36
ENDBRANCH  13  27
ENDBRANCH   4   5
ENDBRANCH   3   4
ENDBRANCH   2   3
TORSDOF 10
ENDMDL
MODEL      194
REMARK 921   NORMALIZED FREE ENERGY PREDICTED BY IDOCK:   -3.66 KCAL/MOL
REMARK 922        TOTAL FREE ENERGY PREDICTED BY IDOCK:   -7.86 KCAL/MOL
REMARK 923 INTER-LIGAND FREE ENERGY PREDICTED BY IDOCK:   -6.36 KCAL/MOL
REMARK 924 INTRA-LIGAND FREE ENERGY PREDICTED BY IDOCK:   -1.50 KCAL/MOL
REMARK 927      BINDING AFFINITY PREDICTED BY RF-SCORE:    0.00 PKD
ROOT
HETATM    1  C   UNL     1     -11.496   8.325  71.688  1.00  0.00    -0.333 C  
HETATM    2  C   UNL     1     -12.452   9.508  71.762  1.00  0.00    -0.484 C  
ENDROOT
BRANCH   2   3
HETATM    3  C   UNL     1     -11.813  10.809  71.263  1.00  0.00    -0.080 C  
BRANCH   3   4
HETATM    4  S   UNL     1     -11.904  10.851  69.438  1.00  0.00    -0.322 SA 
BRANCH   4   5
HETATM    5  C   UNL     1     -10.226  11.288  69.038  1.00  0.00    -0.150 A  
HETATM    6  N   UNL     1     -10.066  12.444  68.355  1.00  0.00    -0.223 NA 
HETATM    7  C   UNL     1      -8.775  12.690  68.076  1.00  0.00    -0.190 A  
HETATM    8  C   UNL     1      -7.693  11.901  68.419  1.00  0.00    -0.131 A  
HETATM    9  N   UNL     1      -6.534  12.490  67.995  1.00  0.00    -0.076 NA 
HETATM   10  C   UNL     1      -7.949  10.736  69.157  1.00  0.00    -0.134 A  
HETATM   11  N   UNL     1      -9.250  10.452  69.454  1.00  0.00    -0.190 NA 
HETATM   12  N   UNL     1      -6.848  13.644  67.414  1.00  0.00    -0.193 NA 
HETATM   13  N   UNL     1      -8.198  13.786  67.487  1.00  0.00    -0.176 NA 
BRANCH  10  14
HETATM   14  N   UNL     1      -6.891   9.923  69.614  1.00  0.00    -0.065 NA 
HETATM   15  H   UNL     1      -6.074  10.333  70.065  1.00  0.00     0.000 HD 
BRANCH  14  16
HETATM   16  C   UNL     1      -6.996   8.474  69.426  1.00  0.00    -0.049 C  
HETATM   17  C   UNL     1      -6.906   7.873  68.039  1.00  0.00    -0.072 C  
HETATM   18  C   UNL     1      -5.796   7.666  69.035  1.00  0.00    -0.030 C  
BRANCH  17  19
HETATM   19  C   UNL     1      -7.888   6.787  67.676  1.00  0.00    -0.112 A  
HETATM   20  C   UNL     1      -9.807   5.368  68.149  1.00  0.00    -0.145 A  
HETATM   21  C   UNL     1      -8.933   6.390  68.524  1.00  0.00    -0.125 A  
HETATM   22  F   UNL     1     -10.801   5.021  68.976  1.00  0.00    -0.187 F  
HETATM   23  C   UNL     1      -9.651   4.721  66.930  1.00  0.00    -0.172 A  
HETATM   24  C   UNL     1      -7.749   6.108  66.448  1.00  0.00    -0.102 A  
HETATM   25  F   UNL     1     -10.490   3.740  66.576  1.00  0.00     0.058 F  
HETATM   26  C   UNL     1      -8.622   5.083  66.074  1.00  0.00    -0.121 A  
ENDBRANCH  17  19
ENDBRANCH  14  16
ENDBRANCH  10  14
BRANCH  13  27
HETATM   27  C   UNL     1      -8.763  15.029  67.004  1.00  0.00    -0.237 C  
HETATM   28  C   UNL     1      -7.794  16.217  67.116  1.00  0.00    -0.225 C  
HETATM   29  C   UNL     1      -8.012  16.754  68.532  1.00  0.00    -0.235 C  
HETATM   30  H   UNL     1     -11.621  16.510  67.141  1.00  0.00     0.000 HD 
HETATM   31  C   UNL     1      -9.541  16.600  68.737  1.00  0.00    -0.254 C  
HETATM   32  H   UNL     1     -11.189  17.736  68.637  1.00  0.00     0.000 HD 
HETATM   33  O   UNL     1     -10.840  16.187  66.706  1.00  0.00    -0.277 OA 
HETATM   34  C   UNL     1     -10.018  15.548  67.704  1.00  0.00    -0.233 C  
HETATM   35  O   UNL     1     -10.252  17.831  68.510  1.00  0.00    -0.349 OA 
BRANCH  29  36
HETATM   36  O   UNL     1      -7.307  15.983  69.512  1.00  0.00    -0.221 OA 
BRANCH  36  37
HETATM   37  C   UNL     1      -5.940  16.387  69.687  1.00  0.00    -0.191 C  
BRANCH  37  38
HETATM   38  C   UNL     1      -5.238  15.428  70.645  1.00  0.00    -0.141 C  
HETATM   39  H   UNL     1      -5.689  13.787  71.626  1.00  0.00     0.000 HD 
HETATM   40  O   UNL     1      -6.125  14.384  71.030  1.00  0.00    -0.195 OA 
ENDBRANCH  37  38
ENDBRANCH  36  37
ENDBRANCH  29  36
ENDBRANCH  13  27
ENDBRANCH   4   5
ENDBRANCH   3   4
ENDBRANCH   2   3
TORSDOF 10
ENDMDL
MODEL      195
REMARK 921   NORMALIZED FREE ENERGY PREDICTED BY IDOCK:   -3.65 KCAL/MOL
REMARK 922        TOTAL FREE ENERGY PREDICTED BY IDOCK:   -7.86 KCAL/MOL
REMARK 923 INTER-LIGAND FREE ENERGY PREDICTED BY IDOCK:   -6.14 KCAL/MOL
REMARK 924 INTRA-LIGAND FREE ENERGY PREDICTED BY IDOCK:   -1.71 KCAL/MOL
REMARK 927      BINDING AFFINITY PREDICTED BY RF-SCORE:    0.00 PKD
ROOT
HETATM    1  C   UNL     1      -9.814  14.635  68.045  1.00  0.00    -0.216 C  
HETATM    2  C   UNL     1     -10.246  14.600  66.586  1.00  0.00    -0.275 C  
ENDROOT
BRANCH   2   3
HETATM    3  C   UNL     1     -10.799  13.232  66.171  1.00  0.00    -0.280 C  
BRANCH   3   4
HETATM    4  S   UNL     1     -11.533  12.421  67.636  1.00  0.00    -0.357 SA 
BRANCH   4   5
HETATM    5  C   UNL     1     -10.342  11.130  67.925  1.00  0.00    -0.185 A  
HETATM    6  N   UNL     1     -10.644  10.264  68.918  1.00  0.00    -0.206 NA 
HETATM    7  C   UNL     1      -9.687   9.335  69.084  1.00  0.00    -0.164 A  
HETATM    8  C   UNL     1      -8.514   9.222  68.360  1.00  0.00    -0.120 A  
HETATM    9  N   UNL     1      -7.804   8.136  68.792  1.00  0.00    -0.111 NA 
HETATM   10  C   UNL     1      -8.299  10.145  67.327  1.00  0.00    -0.121 A  
HETATM   11  N   UNL     1      -9.249  11.106  67.132  1.00  0.00    -0.157 NA 
HETATM   12  N   UNL     1      -8.505   7.542  69.752  1.00  0.00    -0.134 NA 
HETATM   13  N   UNL     1      -9.658   8.243  69.913  1.00  0.00    -0.170 NA 
BRANCH  10  14
HETATM   14  N   UNL     1      -7.167  10.045  66.492  1.00  0.00    -0.098 NA 
HETATM   15  H   UNL     1      -6.496  10.810  66.426  1.00  0.00     0.000 HD 
BRANCH  14  16
HETATM   16  C   UNL     1      -6.979   8.813  65.721  1.00  0.00    -0.076 C  
HETATM   17  C   UNL     1      -8.106   8.258  64.877  1.00  0.00    -0.150 C  
HETATM   18  C   UNL     1      -6.886   8.854  64.225  1.00  0.00    -0.082 C  
BRANCH  17  19
HETATM   19  C   UNL     1      -8.358   6.772  64.925  1.00  0.00    -0.025 A  
HETATM   20  C   UNL     1      -9.163   4.756  66.026  1.00  0.00    -0.148 A  
HETATM   21  C   UNL     1      -8.964   6.138  66.021  1.00  0.00    -0.156 A  
HETATM   22  F   UNL     1      -9.755   4.184  67.081  1.00  0.00    -0.192 F  
HETATM   23  C   UNL     1      -8.755   3.983  64.946  1.00  0.00    -0.118 A  
HETATM   24  C   UNL     1      -7.948   5.961  63.847  1.00  0.00    -0.119 A  
HETATM   25  F   UNL     1      -8.946   2.658  64.956  1.00  0.00    -0.110 F  
HETATM   26  C   UNL     1      -8.144   4.578  63.853  1.00  0.00    -0.098 A  
ENDBRANCH  17  19
ENDBRANCH  14  16
ENDBRANCH  10  14
BRANCH  13  27
HETATM   27  C   UNL     1     -10.634   7.716  70.844  1.00  0.00    -0.213 C  
HETATM   28  C   UNL     1     -10.793   8.581  72.106  1.00  0.00    -0.427 C  
HETATM   29  C   UNL     1      -9.714   8.065  73.059  1.00  0.00    -0.278 C  
HETATM   30  H   UNL     1     -11.494   4.811  71.940  1.00  0.00     0.000 HD 
HETATM   31  C   UNL     1      -9.718   6.537  72.806  1.00  0.00    -0.157 C  
HETATM   32  H   UNL     1     -10.479   4.881  73.640  1.00  0.00     0.000 HD 
HETATM   33  O   UNL     1     -11.654   5.677  71.583  1.00  0.00    -0.115 OA 
HETATM   34  C   UNL     1     -10.376   6.324  71.419  1.00  0.00    -0.210 C  
HETATM   35  O   UNL     1     -10.477   5.817  73.795  1.00  0.00    -0.235 OA 
BRANCH  29  36
HETATM   36  O   UNL     1      -8.424   8.609  72.753  1.00  0.00    -0.396 OA 
BRANCH  36  37
HETATM   37  C   UNL     1      -7.361   8.046  73.537  1.00  0.00    -0.143 C  
BRANCH  37  38
HETATM   38  C   UNL     1      -6.177   7.711  72.633  1.00  0.00    -0.055 C  
HETATM   39  H   UNL     1      -5.562   6.173  71.579  1.00  0.00     0.000 HD 
HETATM   40  O   UNL     1      -6.299   6.381  72.141  1.00  0.00    -0.048 OA 
ENDBRANCH  37  38
ENDBRANCH  36  37
ENDBRANCH  29  36
ENDBRANCH  13  27
ENDBRANCH   4   5
ENDBRANCH   3   4
ENDBRANCH   2   3
TORSDOF 10
ENDMDL
MODEL      196
REMARK 921   NORMALIZED FREE ENERGY PREDICTED BY IDOCK:   -3.65 KCAL/MOL
REMARK 922        TOTAL FREE ENERGY PREDICTED BY IDOCK:   -7.85 KCAL/MOL
REMARK 923 INTER-LIGAND FREE ENERGY PREDICTED BY IDOCK:   -6.29 KCAL/MOL
REMARK 924 INTRA-LIGAND FREE ENERGY PREDICTED BY IDOCK:   -1.56 KCAL/MOL
REMARK 927      BINDING AFFINITY PREDICTED BY RF-SCORE:    0.00 PKD
ROOT
HETATM    1  C   UNL     1     -11.220  10.786  68.013  1.00  0.00    -0.372 C  
HETATM    2  C   UNL     1     -11.165  10.332  69.465  1.00  0.00    -0.314 C  
ENDROOT
BRANCH   2   3
HETATM    3  C   UNL     1     -10.564   8.930  69.618  1.00  0.00    -0.226 C  
BRANCH   3   4
HETATM    4  S   UNL     1      -8.974   9.062  70.513  1.00  0.00    -0.232 SA 
BRANCH   4   5
HETATM    5  C   UNL     1      -7.988   9.913  69.300  1.00  0.00    -0.121 A  
HETATM    6  N   UNL     1      -7.916  11.256  69.439  1.00  0.00     0.089 NA 
HETATM    7  C   UNL     1      -7.170  11.822  68.475  1.00  0.00    -0.095 A  
HETATM    8  C   UNL     1      -6.527  11.169  67.440  1.00  0.00    -0.071 A  
HETATM    9  N   UNL     1      -5.840  12.071  66.677  1.00  0.00    -0.242 NA 
HETATM   10  C   UNL     1      -6.629   9.771  67.393  1.00  0.00    -0.070 A  
HETATM   11  N   UNL     1      -7.382   9.162  68.354  1.00  0.00    -0.077 NA 
HETATM   12  N   UNL     1      -6.008  13.276  67.213  1.00  0.00    -0.315 NA 
HETATM   13  N   UNL     1      -6.786  13.129  68.317  1.00  0.00    -0.091 NA 
BRANCH  10  14
HETATM   14  N   UNL     1      -5.934   9.028  66.416  1.00  0.00    -0.058 NA 
HETATM   15  H   UNL     1      -5.352   9.494  65.721  1.00  0.00     0.000 HD 
BRANCH  14  16
HETATM   16  C   UNL     1      -6.069   7.570  66.427  1.00  0.00    -0.041 C  
HETATM   17  C   UNL     1      -7.185   6.898  65.655  1.00  0.00    -0.073 C  
HETATM   18  C   UNL     1      -5.755   6.765  65.201  1.00  0.00    -0.031 C  
BRANCH  17  19
HETATM   19  C   UNL     1      -7.933   5.775  66.330  1.00  0.00    -0.102 A  
HETATM   20  C   UNL     1      -9.565   4.921  67.919  1.00  0.00    -0.145 A  
HETATM   21  C   UNL     1      -8.911   5.994  67.312  1.00  0.00    -0.107 A  
HETATM   22  F   UNL     1     -10.503   5.164  68.844  1.00  0.00    -0.269 F  
HETATM   23  C   UNL     1      -9.252   3.615  67.564  1.00  0.00    -0.189 A  
HETATM   24  C   UNL     1      -7.631   4.439  65.996  1.00  0.00    -0.086 A  
HETATM   25  F   UNL     1      -9.881   2.589  68.151  1.00  0.00    -0.245 F  
HETATM   26  C   UNL     1      -8.283   3.365  66.605  1.00  0.00    -0.096 A  
ENDBRANCH  17  19
ENDBRANCH  14  16
ENDBRANCH  10  14
BRANCH  13  27
HETATM   27  C   UNL     1      -7.021  14.306  69.128  1.00  0.00    -0.118 C  
HETATM   28  C   UNL     1      -8.513  14.647  69.280  1.00  0.00     0.030 C  
HETATM   29  C   UNL     1      -8.831  15.515  68.061  1.00  0.00    -0.165 C  
HETATM   30  H   UNL     1      -5.654  17.199  69.505  1.00  0.00     0.000 HD 
HETATM   31  C   UNL     1      -7.552  16.373  67.893  1.00  0.00    -0.148 C  
HETATM   32  H   UNL     1      -6.909  18.214  68.357  1.00  0.00     0.000 HD 
HETATM   33  O   UNL     1      -6.028  16.379  69.807  1.00  0.00    -0.182 OA 
HETATM   34  C   UNL     1      -6.419  15.624  68.643  1.00  0.00    -0.107 C  
HETATM   35  O   UNL     1      -7.693  17.688  68.460  1.00  0.00    -0.262 OA 
BRANCH  29  36
HETATM   36  O   UNL     1      -9.049  14.726  66.885  1.00  0.00    -0.221 OA 
BRANCH  36  37
HETATM   37  C   UNL     1      -9.309  15.507  65.708  1.00  0.00    -0.257 C  
BRANCH  37  38
HETATM   38  C   UNL     1     -10.805  15.498  65.405  1.00  0.00    -0.390 C  
HETATM   39  H   UNL     1     -12.044  16.480  64.241  1.00  0.00     0.000 HD 
HETATM   40  O   UNL     1     -11.113  16.486  64.429  1.00  0.00    -0.894 OA 
ENDBRANCH  37  38
ENDBRANCH  36  37
ENDBRANCH  29  36
ENDBRANCH  13  27
ENDBRANCH   4   5
ENDBRANCH   3   4
ENDBRANCH   2   3
TORSDOF 10
ENDMDL
MODEL      197
REMARK 921   NORMALIZED FREE ENERGY PREDICTED BY IDOCK:   -3.52 KCAL/MOL
REMARK 922        TOTAL FREE ENERGY PREDICTED BY IDOCK:   -7.64 KCAL/MOL
REMARK 923 INTER-LIGAND FREE ENERGY PREDICTED BY IDOCK:   -5.71 KCAL/MOL
REMARK 924 INTRA-LIGAND FREE ENERGY PREDICTED BY IDOCK:   -1.94 KCAL/MOL
REMARK 927      BINDING AFFINITY PREDICTED BY RF-SCORE:    0.00 PKD
ROOT
HETATM    1  C   UNL     1      -8.874   9.293  62.495  1.00  0.00    -0.226 C  
HETATM    2  C   UNL     1      -7.625   8.814  63.222  1.00  0.00    -0.113 C  
ENDROOT
BRANCH   2   3
HETATM    3  C   UNL     1      -7.885   7.565  64.072  1.00  0.00    -0.127 C  
BRANCH   3   4
HETATM    4  S   UNL     1      -6.367   7.159  65.007  1.00  0.00    -0.037 SA 
BRANCH   4   5
HETATM    5  C   UNL     1      -6.773   7.842  66.599  1.00  0.00    -0.063 A  
HETATM    6  N   UNL     1      -7.854   8.654  66.632  1.00  0.00    -0.096 NA 
HETATM    7  C   UNL     1      -8.080   9.142  67.864  1.00  0.00    -0.105 A  
HETATM    8  C   UNL     1      -7.338   8.884  69.001  1.00  0.00    -0.073 A  
HETATM    9  N   UNL     1      -7.890   9.530  70.072  1.00  0.00    -0.131 NA 
HETATM   10  C   UNL     1      -6.253   8.003  68.881  1.00  0.00    -0.040 A  
HETATM   11  N   UNL     1      -5.992   7.491  67.643  1.00  0.00    -0.038 NA 
HETATM   12  N   UNL     1      -8.975  10.172  69.652  1.00  0.00    -0.196 NA 
HETATM   13  N   UNL     1      -9.114   9.917  68.324  1.00  0.00    -0.122 NA 
BRANCH  10  14
HETATM   14  N   UNL     1      -5.500   7.626  70.012  1.00  0.00    -0.023 NA 
HETATM   15  H   UNL     1      -4.549   7.969  70.145  1.00  0.00     0.000 HD 
BRANCH  14  16
HETATM   16  C   UNL     1      -6.118   6.730  70.992  1.00  0.00    -0.036 C  
HETATM   17  C   UNL     1      -7.086   5.656  70.544  1.00  0.00    -0.066 C  
HETATM   18  C   UNL     1      -5.722   5.286  71.063  1.00  0.00    -0.016 C  
BRANCH  17  19
HETATM   19  C   UNL     1      -8.346   5.460  71.351  1.00  0.00    -0.122 A  
HETATM   20  C   UNL     1     -10.097   6.253  72.842  1.00  0.00    -0.183 A  
HETATM   21  C   UNL     1      -8.939   6.488  72.099  1.00  0.00    -0.139 A  
HETATM   22  F   UNL     1     -10.646   7.259  73.535  1.00  0.00    -0.324 F  
HETATM   23  C   UNL     1     -10.677   4.991  72.860  1.00  0.00    -0.242 A  
HETATM   24  C   UNL     1      -8.952   4.187  71.394  1.00  0.00    -0.165 A  
HETATM   25  F   UNL     1     -11.786   4.770  73.577  1.00  0.00    -0.362 F  
HETATM   26  C   UNL     1     -10.109   3.951  72.141  1.00  0.00    -0.225 A  
ENDBRANCH  17  19
ENDBRANCH  14  16
ENDBRANCH  10  14
BRANCH  13  27
HETATM   27  C   UNL     1     -10.296  10.434  67.666  1.00  0.00    -0.219 C  
HETATM   28  C   UNL     1     -10.034  10.886  66.220  1.00  0.00    -0.274 C  
HETATM   29  C   UNL     1      -9.564  12.336  66.353  1.00  0.00    -0.237 C  
HETATM   30  H   UNL     1     -12.804  12.287  68.477  1.00  0.00     0.000 HD 
HETATM   31  C   UNL     1     -10.445  12.890  67.501  1.00  0.00    -0.223 C  
HETATM   32  H   UNL     1     -12.112  13.981  67.719  1.00  0.00     0.000 HD 
HETATM   33  O   UNL     1     -12.388  11.525  68.091  1.00  0.00    -0.473 OA 
HETATM   34  C   UNL     1     -10.966  11.659  68.288  1.00  0.00    -0.226 C  
HETATM   35  O   UNL     1     -11.573  13.641  67.015  1.00  0.00    -0.323 OA 
BRANCH  29  36
HETATM   36  O   UNL     1      -8.180  12.419  66.714  1.00  0.00    -0.135 OA 
BRANCH  36  37
HETATM   37  C   UNL     1      -7.882  13.505  67.605  1.00  0.00    -0.175 C  
BRANCH  37  38
HETATM   38  C   UNL     1      -7.011  13.005  68.754  1.00  0.00    -0.103 C  
HETATM   39  H   UNL     1      -5.511  11.758  68.986  1.00  0.00     0.000 HD 
HETATM   40  O   UNL     1      -6.053  12.070  68.271  1.00  0.00    -0.049 OA 
ENDBRANCH  37  38
ENDBRANCH  36  37
ENDBRANCH  29  36
ENDBRANCH  13  27
ENDBRANCH   4   5
ENDBRANCH   3   4
ENDBRANCH   2   3
TORSDOF 10
ENDMDL
MODEL      198
REMARK 921   NORMALIZED FREE ENERGY PREDICTED BY IDOCK:   -3.51 KCAL/MOL
REMARK 922        TOTAL FREE ENERGY PREDICTED BY IDOCK:   -7.63 KCAL/MOL
REMARK 923 INTER-LIGAND FREE ENERGY PREDICTED BY IDOCK:   -6.24 KCAL/MOL
REMARK 924 INTRA-LIGAND FREE ENERGY PREDICTED BY IDOCK:   -1.39 KCAL/MOL
REMARK 927      BINDING AFFINITY PREDICTED BY RF-SCORE:    0.00 PKD
ROOT
HETATM    1  C   UNL     1     -12.526  13.322  63.519  1.00  0.00    -0.328 C  
HETATM    2  C   UNL     1     -12.362  11.814  63.384  1.00  0.00    -0.476 C  
ENDROOT
BRANCH   2   3
HETATM    3  C   UNL     1     -10.908  11.365  63.566  1.00  0.00    -0.353 C  
BRANCH   3   4
HETATM    4  S   UNL     1     -10.001  12.654  64.493  1.00  0.00    -0.090 SA 
BRANCH   4   5
HETATM    5  C   UNL     1      -9.552  11.748  65.957  1.00  0.00    -0.230 A  
HETATM    6  N   UNL     1     -10.478  11.727  66.942  1.00  0.00    -0.216 NA 
HETATM    7  C   UNL     1     -10.054  11.041  68.017  1.00  0.00    -0.179 A  
HETATM    8  C   UNL     1      -8.834  10.407  68.161  1.00  0.00    -0.132 A  
HETATM    9  N   UNL     1      -8.773   9.785  69.377  1.00  0.00    -0.159 NA 
HETATM   10  C   UNL     1      -7.947  10.452  67.075  1.00  0.00    -0.116 A  
HETATM   11  N   UNL     1      -8.344  11.145  65.968  1.00  0.00    -0.150 NA 
HETATM   12  N   UNL     1      -9.931   9.985  69.999  1.00  0.00    -0.247 NA 
HETATM   13  N   UNL     1     -10.721  10.717  69.171  1.00  0.00    -0.213 NA 
BRANCH  10  14
HETATM   14  N   UNL     1      -6.719   9.761  67.115  1.00  0.00    -0.074 NA 
HETATM   15  H   UNL     1      -5.850  10.250  67.329  1.00  0.00     0.000 HD 
BRANCH  14  16
HETATM   16  C   UNL     1      -6.722   8.322  66.843  1.00  0.00    -0.062 C  
HETATM   17  C   UNL     1      -7.874   7.686  66.096  1.00  0.00    -0.096 C  
HETATM   18  C   UNL     1      -6.520   7.808  65.449  1.00  0.00    -0.041 C  
BRANCH  17  19
HETATM   19  C   UNL     1      -8.415   6.376  66.614  1.00  0.00    -0.115 A  
HETATM   20  C   UNL     1      -9.817   5.060  68.105  1.00  0.00    -0.146 A  
HETATM   21  C   UNL     1      -9.358   6.298  67.650  1.00  0.00    -0.116 A  
HETATM   22  F   UNL     1     -10.726   5.021  69.087  1.00  0.00    -0.253 F  
HETATM   23  C   UNL     1      -9.339   3.883  67.544  1.00  0.00    -0.191 A  
HETATM   24  C   UNL     1      -7.942   5.165  66.068  1.00  0.00    -0.107 A  
HETATM   25  F   UNL     1      -9.780   2.699  67.986  1.00  0.00    -0.264 F  
HETATM   26  C   UNL     1      -8.398   3.926  66.526  1.00  0.00    -0.104 A  
ENDBRANCH  17  19
ENDBRANCH  14  16
ENDBRANCH  10  14
BRANCH  13  27
HETATM   27  C   UNL     1     -12.081  10.972  69.600  1.00  0.00    -0.340 C  
HETATM   28  C   UNL     1     -12.656  12.284  69.039  1.00  0.00     0.712 C  
HETATM   29  C   UNL     1     -12.217  13.352  70.042  1.00  0.00    -0.298 C  
HETATM   30  H   UNL     1     -13.781  10.632  72.315  1.00  0.00     0.000 HD 
HETATM   31  C   UNL     1     -12.344  12.629  71.407  1.00  0.00     0.052 C  
HETATM   32  H   UNL     1     -13.645  12.512  72.926  1.00  0.00     0.000 HD 
HETATM   33  O   UNL     1     -13.626  10.547  71.382  1.00  0.00    -0.186 OA 
HETATM   34  C   UNL     1     -12.329  11.109  71.102  1.00  0.00    -0.346 C  
HETATM   35  O   UNL     1     -13.568  12.954  72.090  1.00  0.00    -0.528 OA 
BRANCH  29  36
HETATM   36  O   UNL     1     -10.860  13.762  69.829  1.00  0.00     0.009 OA 
BRANCH  36  37
HETATM   37  C   UNL     1     -10.669  15.183  69.912  1.00  0.00    -0.257 C  
BRANCH  37  38
HETATM   38  C   UNL     1     -11.018  15.828  68.573  1.00  0.00    -0.312 C  
HETATM   39  H   UNL     1     -10.413  17.368  67.515  1.00  0.00     0.000 HD 
HETATM   40  O   UNL     1     -10.196  16.967  68.348  1.00  0.00    -0.284 OA 
ENDBRANCH  37  38
ENDBRANCH  36  37
ENDBRANCH  29  36
ENDBRANCH  13  27
ENDBRANCH   4   5
ENDBRANCH   3   4
ENDBRANCH   2   3
TORSDOF 10
ENDMDL
MODEL      199
REMARK 921   NORMALIZED FREE ENERGY PREDICTED BY IDOCK:   -3.51 KCAL/MOL
REMARK 922        TOTAL FREE ENERGY PREDICTED BY IDOCK:   -7.63 KCAL/MOL
REMARK 923 INTER-LIGAND FREE ENERGY PREDICTED BY IDOCK:   -6.04 KCAL/MOL
REMARK 924 INTRA-LIGAND FREE ENERGY PREDICTED BY IDOCK:   -1.58 KCAL/MOL
REMARK 927      BINDING AFFINITY PREDICTED BY RF-SCORE:    0.00 PKD
ROOT
HETATM    1  C   UNL     1     -11.005  12.856  64.115  1.00  0.00    -0.442 C  
HETATM    2  C   UNL     1     -10.883  11.339  64.077  1.00  0.00    -0.414 C  
ENDROOT
BRANCH   2   3
HETATM    3  C   UNL     1     -10.310  10.765  65.378  1.00  0.00    -0.247 C  
BRANCH   3   4
HETATM    4  S   UNL     1      -8.550  10.345  65.115  1.00  0.00    -0.183 SA 
BRANCH   4   5
HETATM    5  C   UNL     1      -7.825  11.048  66.580  1.00  0.00    -0.153 A  
HETATM    6  N   UNL     1      -7.927  12.392  66.699  1.00  0.00     0.058 NA 
HETATM    7  C   UNL     1      -7.339  12.844  67.820  1.00  0.00    -0.134 A  
HETATM    8  C   UNL     1      -6.693  12.083  68.776  1.00  0.00    -0.087 A  
HETATM    9  N   UNL     1      -6.250  12.887  69.789  1.00  0.00    -0.124 NA 
HETATM   10  C   UNL     1      -6.664  10.693  68.588  1.00  0.00    -0.057 A  
HETATM   11  N   UNL     1      -7.248  10.199  67.458  1.00  0.00    -0.087 NA 
HETATM   12  N   UNL     1      -6.618  14.134  69.515  1.00  0.00    -0.125 NA 
HETATM   13  N   UNL     1      -7.303  14.112  68.341  1.00  0.00    -0.105 NA 
BRANCH  10  14
HETATM   14  N   UNL     1      -6.097   9.843  69.560  1.00  0.00    -0.043 NA 
HETATM   15  H   UNL     1      -5.117   9.567  69.505  1.00  0.00     0.000 HD 
BRANCH  14  16
HETATM   16  C   UNL     1      -6.951   9.367  70.650  1.00  0.00    -0.115 C  
HETATM   17  C   UNL     1      -6.538   8.172  71.481  1.00  0.00    -0.049 C  
HETATM   18  C   UNL     1      -6.541   9.554  72.080  1.00  0.00     0.421 C  
BRANCH  17  19
HETATM   19  C   UNL     1      -7.590   7.141  71.808  1.00  0.00    -0.087 A  
HETATM   20  C   UNL     1      -8.369   5.146  72.963  1.00  0.00    -0.112 A  
HETATM   21  C   UNL     1      -7.368   6.085  72.705  1.00  0.00    -0.090 A  
HETATM   22  F   UNL     1      -8.130   4.158  73.834  1.00  0.00    -0.087 F  
HETATM   23  C   UNL     1      -9.600   5.238  72.327  1.00  0.00    -0.152 A  
HETATM   24  C   UNL     1      -8.846   7.205  71.171  1.00  0.00    -0.144 A  
HETATM   25  F   UNL     1     -10.555   4.334  72.575  1.00  0.00    -0.238 F  
HETATM   26  C   UNL     1      -9.847   6.263  71.427  1.00  0.00    -0.195 A  
ENDBRANCH  17  19
ENDBRANCH  14  16
ENDBRANCH  10  14
BRANCH  13  27
HETATM   27  C   UNL     1      -7.894  15.355  67.891  1.00  0.00    -0.133 C  
HETATM   28  C   UNL     1      -8.926  15.926  68.879  1.00  0.00    -0.228 C  
HETATM   29  C   UNL     1     -10.240  15.246  68.492  1.00  0.00    -0.224 C  
HETATM   30  H   UNL     1      -8.932  16.577  65.097  1.00  0.00     0.000 HD 
HETATM   31  C   UNL     1     -10.165  15.184  66.946  1.00  0.00    -0.259 C  
HETATM   32  H   UNL     1     -10.859  16.207  65.368  1.00  0.00     0.000 HD 
HETATM   33  O   UNL     1      -8.451  16.593  65.916  1.00  0.00    -0.451 OA 
HETATM   34  C   UNL     1      -8.667  15.328  66.573  1.00  0.00    -0.279 C  
HETATM   35  O   UNL     1     -10.905  16.246  66.316  1.00  0.00    -0.231 OA 
BRANCH  29  36
HETATM   36  O   UNL     1     -10.338  13.922  69.032  1.00  0.00    -0.200 OA 
BRANCH  36  37
HETATM   37  C   UNL     1     -11.245  13.073  68.312  1.00  0.00    -0.275 C  
BRANCH  37  38
HETATM   38  C   UNL     1     -11.229  11.672  68.918  1.00  0.00    -0.246 C  
HETATM   39  H   UNL     1     -12.194   9.981  68.663  1.00  0.00     0.000 HD 
HETATM   40  O   UNL     1     -12.204  10.853  68.285  1.00  0.00    -0.526 OA 
ENDBRANCH  37  38
ENDBRANCH  36  37
ENDBRANCH  29  36
ENDBRANCH  13  27
ENDBRANCH   4   5
ENDBRANCH   3   4
ENDBRANCH   2   3
TORSDOF 10
ENDMDL
MODEL      200
REMARK 921   NORMALIZED FREE ENERGY PREDICTED BY IDOCK:   -3.48 KCAL/MOL
REMARK 922        TOTAL FREE ENERGY PREDICTED BY IDOCK:   -7.59 KCAL/MOL
REMARK 923 INTER-LIGAND FREE ENERGY PREDICTED BY IDOCK:   -7.51 KCAL/MOL
REMARK 924 INTRA-LIGAND FREE ENERGY PREDICTED BY IDOCK:   -0.07 KCAL/MOL
REMARK 927      BINDING AFFINITY PREDICTED BY RF-SCORE:    0.00 PKD
ROOT
HETATM    1  C   UNL     1      -9.402  10.659  62.678  1.00  0.00    -0.332 C  
HETATM    2  C   UNL     1      -7.896  10.453  62.766  1.00  0.00    -0.153 C  
ENDROOT
BRANCH   2   3
HETATM    3  C   UNL     1      -7.459   9.899  64.127  1.00  0.00    -0.139 C  
BRANCH   3   4
HETATM    4  S   UNL     1      -8.559   8.511  64.582  1.00  0.00     0.020 SA 
BRANCH   4   5
HETATM    5  C   UNL     1      -9.220   9.111  66.122  1.00  0.00    -0.205 A  
HETATM    6  N   UNL     1      -9.093  10.440  66.337  1.00  0.00    -0.154 NA 
HETATM    7  C   UNL     1      -9.598  10.807  67.528  1.00  0.00    -0.158 A  
HETATM    8  C   UNL     1     -10.190   9.979  68.462  1.00  0.00    -0.175 A  
HETATM    9  N   UNL     1     -10.612  10.715  69.535  1.00  0.00    -0.236 NA 
HETATM   10  C   UNL     1     -10.309   8.619  68.141  1.00  0.00    -0.216 A  
HETATM   11  N   UNL     1      -9.803   8.210  66.941  1.00  0.00    -0.222 NA 
HETATM   12  N   UNL     1     -10.327  11.991  69.296  1.00  0.00     0.092 NA 
HETATM   13  N   UNL     1      -9.741  12.058  68.071  1.00  0.00    -0.192 NA 
BRANCH  10  14
HETATM   14  N   UNL     1     -10.974   7.727  69.006  1.00  0.00    -0.428 NA 
HETATM   15  H   UNL     1     -11.421   8.062  69.860  1.00  0.00     0.000 HD 
BRANCH  14  16
HETATM   16  C   UNL     1     -11.009   6.307  68.649  1.00  0.00    -0.346 C  
HETATM   17  C   UNL     1      -9.723   5.523  68.498  1.00  0.00    -0.175 C  
HETATM   18  C   UNL     1     -10.648   5.257  69.655  1.00  0.00    -0.261 C  
BRANCH  17  19
HETATM   19  C   UNL     1      -9.600   4.588  67.321  1.00  0.00    -0.213 A  
HETATM   20  C   UNL     1      -8.661   2.642  66.202  1.00  0.00    -0.111 A  
HETATM   21  C   UNL     1      -8.751   3.470  67.322  1.00  0.00    -0.131 A  
HETATM   22  F   UNL     1      -7.851   1.576  66.240  1.00  0.00    -0.065 F  
HETATM   23  C   UNL     1      -9.405   2.917  65.062  1.00  0.00    -0.133 A  
HETATM   24  C   UNL     1     -10.337   4.847  66.147  1.00  0.00    -0.329 A  
HETATM   25  F   UNL     1      -9.312   2.122  63.989  1.00  0.00    -0.099 F  
HETATM   26  C   UNL     1     -10.244   4.020  65.025  1.00  0.00    -0.192 A  
ENDBRANCH  17  19
ENDBRANCH  14  16
ENDBRANCH  10  14
BRANCH  13  27
HETATM   27  C   UNL     1      -9.434  13.375  67.551  1.00  0.00    -0.219 C  
HETATM   28  C   UNL     1      -9.469  14.473  68.628  1.00  0.00    -0.205 C  
HETATM   29  C   UNL     1     -10.932  14.914  68.674  1.00  0.00    -0.257 C  
HETATM   30  H   UNL     1     -10.113  15.059  64.890  1.00  0.00     0.000 HD 
HETATM   31  C   UNL     1     -11.364  14.864  67.187  1.00  0.00    -0.343 C  
HETATM   32  H   UNL     1     -11.597  16.129  65.650  1.00  0.00     0.000 HD 
HETATM   33  O   UNL     1      -9.541  14.711  65.564  1.00  0.00    -0.273 OA 
HETATM   34  C   UNL     1     -10.354  13.935  66.467  1.00  0.00    -0.286 C  
HETATM   35  O   UNL     1     -11.332  16.160  66.561  1.00  0.00     0.102 OA 
BRANCH  29  36
HETATM   36  O   UNL     1     -11.738  14.017  69.449  1.00  0.00    -0.272 OA 
BRANCH  36  37
HETATM   37  C   UNL     1     -12.642  14.683  70.344  1.00  0.00    -0.343 C  
BRANCH  37  38
HETATM   38  C   UNL     1     -11.937  15.868  71.000  1.00  0.00    -0.412 C  
HETATM   39  H   UNL     1     -12.103  16.903  72.660  1.00  0.00     0.000 HD 
HETATM   40  O   UNL     1     -12.542  16.166  72.253  1.00  0.00    -0.449 OA 
ENDBRANCH  37  38
ENDBRANCH  36  37
ENDBRANCH  29  36
ENDBRANCH  13  27
ENDBRANCH   4   5
ENDBRANCH   3   4
ENDBRANCH   2   3
TORSDOF 10
ENDMDL
MODEL      201
REMARK 921   NORMALIZED FREE ENERGY PREDICTED BY IDOCK:   -3.45 KCAL/MOL
REMARK 922        TOTAL FREE ENERGY PREDICTED BY IDOCK:   -7.54 KCAL/MOL
REMARK 923 INTER-LIGAND FREE ENERGY PREDICTED BY IDOCK:   -6.99 KCAL/MOL
REMARK 924 INTRA-LIGAND FREE ENERGY PREDICTED BY IDOCK:   -0.55 KCAL/MOL
REMARK 927      BINDING AFFINITY PREDICTED BY RF-SCORE:    0.00 PKD
ROOT
HETATM    1  C   UNL     1     -10.739  18.798  67.447  1.00  0.00    -0.487 C  
HETATM    2  C   UNL     1     -10.598  17.367  67.947  1.00  0.00    -0.383 C  
ENDROOT
BRANCH   2   3
HETATM    3  C   UNL     1      -9.465  16.611  67.246  1.00  0.00    -0.232 C  
BRANCH   3   4
HETATM    4  S   UNL     1      -8.710  15.442  68.432  1.00  0.00    -0.178 SA 
BRANCH   4   5
HETATM    5  C   UNL     1      -9.451  13.914  67.900  1.00  0.00    -0.212 A  
HETATM    6  N   UNL     1      -9.925  13.117  68.884  1.00  0.00    -0.010 NA 
HETATM    7  C   UNL     1     -10.448  11.977  68.399  1.00  0.00    -0.219 A  
HETATM    8  C   UNL     1     -10.525  11.605  67.070  1.00  0.00    -0.224 A  
HETATM    9  N   UNL     1     -11.152  10.395  66.962  1.00  0.00    -0.178 NA 
HETATM   10  C   UNL     1     -10.038  12.509  66.115  1.00  0.00    -0.251 A  
HETATM   11  N   UNL     1      -9.495  13.675  66.571  1.00  0.00    -0.272 NA 
HETATM   12  N   UNL     1     -11.497   9.999  68.183  1.00  0.00    -0.125 NA 
HETATM   13  N   UNL     1     -11.102  10.965  69.054  1.00  0.00    -0.225 NA 
BRANCH  10  14
HETATM   14  N   UNL     1     -10.157  12.237  64.736  1.00  0.00    -0.365 NA 
HETATM   15  H   UNL     1     -10.939  12.607  64.196  1.00  0.00     0.000 HD 
BRANCH  14  16
HETATM   16  C   UNL     1      -9.129  11.412  64.100  1.00  0.00     0.116 C  
HETATM   17  C   UNL     1      -9.448  10.003  63.647  1.00  0.00    -0.253 C  
HETATM   18  C   UNL     1      -9.202  11.093  62.637  1.00  0.00    -0.357 C  
BRANCH  17  19
HETATM   19  C   UNL     1      -8.440   8.921  63.939  1.00  0.00    -0.147 A  
HETATM   20  C   UNL     1      -6.918   7.735  65.423  1.00  0.00    -0.055 A  
HETATM   21  C   UNL     1      -7.860   8.743  65.205  1.00  0.00    -0.108 A  
HETATM   22  F   UNL     1      -6.393   7.583  66.645  1.00  0.00    -0.040 F  
HETATM   23  C   UNL     1      -6.533   6.896  64.385  1.00  0.00    -0.036 A  
HETATM   24  C   UNL     1      -8.024   8.059  62.903  1.00  0.00    -0.152 A  
HETATM   25  F   UNL     1      -5.628   5.933  64.599  1.00  0.00    -0.015 F  
HETATM   26  C   UNL     1      -7.079   7.053  63.121  1.00  0.00    -0.064 A  
ENDBRANCH  17  19
ENDBRANCH  14  16
ENDBRANCH  10  14
BRANCH  13  27
HETATM   27  C   UNL     1     -11.467  10.796  70.446  1.00  0.00    -0.307 C  
HETATM   28  C   UNL     1     -10.610   9.745  71.172  1.00  0.00    -0.215 C  
HETATM   29  C   UNL     1     -11.323   8.420  70.901  1.00  0.00    -0.268 C  
HETATM   30  H   UNL     1     -14.196  10.697  72.155  1.00  0.00     0.000 HD 
HETATM   31  C   UNL     1     -12.823   8.804  70.967  1.00  0.00    -0.001 C  
HETATM   32  H   UNL     1     -14.335   8.725  72.280  1.00  0.00     0.000 HD 
HETATM   33  O   UNL     1     -13.309  10.983  71.967  1.00  0.00    -0.455 OA 
HETATM   34  C   UNL     1     -12.893  10.337  70.747  1.00  0.00    -0.344 C  
HETATM   35  O   UNL     1     -13.416   8.490  72.240  1.00  0.00    -0.348 OA 
BRANCH  29  36
HETATM   36  O   UNL     1     -11.008   7.897  69.604  1.00  0.00    -0.214 OA 
BRANCH  36  37
HETATM   37  C   UNL     1     -10.220   6.697  69.643  1.00  0.00    -0.186 C  
BRANCH  37  38
HETATM   38  C   UNL     1      -9.960   6.206  68.222  1.00  0.00    -0.143 C  
HETATM   39  H   UNL     1     -10.177   4.536  67.212  1.00  0.00     0.000 HD 
HETATM   40  O   UNL     1     -10.340   4.841  68.097  1.00  0.00    -0.040 OA 
ENDBRANCH  37  38
ENDBRANCH  36  37
ENDBRANCH  29  36
ENDBRANCH  13  27
ENDBRANCH   4   5
ENDBRANCH   3   4
ENDBRANCH   2   3
TORSDOF 10
ENDMDL
MODEL      202
REMARK 921   NORMALIZED FREE ENERGY PREDICTED BY IDOCK:   -3.38 KCAL/MOL
REMARK 922        TOTAL FREE ENERGY PREDICTED BY IDOCK:   -7.43 KCAL/MOL
REMARK 923 INTER-LIGAND FREE ENERGY PREDICTED BY IDOCK:   -6.03 KCAL/MOL
REMARK 924 INTRA-LIGAND FREE ENERGY PREDICTED BY IDOCK:   -1.39 KCAL/MOL
REMARK 927      BINDING AFFINITY PREDICTED BY RF-SCORE:    0.00 PKD
ROOT
HETATM    1  C   UNL     1      -8.049   8.191  72.636  1.00  0.00    -0.215 C  
HETATM    2  C   UNL     1      -7.405   8.759  71.379  1.00  0.00    -0.117 C  
ENDROOT
BRANCH   2   3
HETATM    3  C   UNL     1      -5.878   8.836  71.487  1.00  0.00    -0.052 C  
BRANCH   3   4
HETATM    4  S   UNL     1      -5.145   7.500  70.475  1.00  0.00    -0.023 SA 
BRANCH   4   5
HETATM    5  C   UNL     1      -5.877   7.851  68.892  1.00  0.00    -0.035 A  
HETATM    6  N   UNL     1      -6.700   6.897  68.401  1.00  0.00    -0.065 NA 
HETATM    7  C   UNL     1      -7.194   7.231  67.196  1.00  0.00    -0.092 A  
HETATM    8  C   UNL     1      -6.935   8.391  66.491  1.00  0.00    -0.071 A  
HETATM    9  N   UNL     1      -7.641   8.392  65.321  1.00  0.00    -0.086 NA 
HETATM   10  C   UNL     1      -6.095   9.340  67.092  1.00  0.00    -0.057 A  
HETATM   11  N   UNL     1      -5.571   9.033  68.315  1.00  0.00    -0.038 NA 
HETATM   12  N   UNL     1      -8.362   7.276  65.274  1.00  0.00    -0.132 NA 
HETATM   13  N   UNL     1      -8.120   6.584  66.419  1.00  0.00    -0.109 NA 
BRANCH  10  14
HETATM   14  N   UNL     1      -5.848  10.583  66.473  1.00  0.00    -0.066 NA 
HETATM   15  H   UNL     1      -4.956  10.772  66.016  1.00  0.00     0.000 HD 
BRANCH  14  16
HETATM   16  C   UNL     1      -6.907  11.595  66.501  1.00  0.00     0.043 C  
HETATM   17  C   UNL     1      -8.206  11.325  67.229  1.00  0.00    -0.140 C  
HETATM   18  C   UNL     1      -7.225  12.332  67.767  1.00  0.00    -0.114 C  
BRANCH  17  19
HETATM   19  C   UNL     1      -9.492  11.724  66.549  1.00  0.00    -0.225 A  
HETATM   20  C   UNL     1     -11.537  13.035  66.401  1.00  0.00    -0.363 A  
HETATM   21  C   UNL     1     -10.349  12.711  67.059  1.00  0.00    -0.241 A  
HETATM   22  F   UNL     1     -12.326  13.990  66.908  1.00  0.00    -0.444 F  
HETATM   23  C   UNL     1     -11.895  12.377  65.231  1.00  0.00    -0.399 A  
HETATM   24  C   UNL     1      -9.885  11.068  65.364  1.00  0.00    -0.301 A  
HETATM   25  F   UNL     1     -13.036  12.689  64.605  1.00  0.00    -0.505 F  
HETATM   26  C   UNL     1     -11.075  11.389  64.707  1.00  0.00    -0.258 A  
ENDBRANCH  17  19
ENDBRANCH  14  16
ENDBRANCH  10  14
BRANCH  13  27
HETATM   27  C   UNL     1      -8.882   5.371  66.636  1.00  0.00    -0.115 C  
HETATM   28  C   UNL     1     -10.366   5.636  66.940  1.00  0.00    -0.312 C  
HETATM   29  C   UNL     1     -10.412   5.849  68.454  1.00  0.00    -0.237 C  
HETATM   30  H   UNL     1      -8.414   2.546  68.113  1.00  0.00     0.000 HD 
HETATM   31  C   UNL     1      -9.380   4.823  68.988  1.00  0.00    -0.135 C  
HETATM   32  H   UNL     1      -9.368   2.988  69.793  1.00  0.00     0.000 HD 
HETATM   33  O   UNL     1      -8.680   3.106  67.393  1.00  0.00    -0.103 OA 
HETATM   34  C   UNL     1      -8.454   4.472  67.795  1.00  0.00    -0.102 C  
HETATM   35  O   UNL     1     -10.001   3.616  69.465  1.00  0.00    -0.018 OA 
BRANCH  29  36
HETATM   36  O   UNL     1     -10.017   7.177  68.821  1.00  0.00    -0.156 OA 
BRANCH  36  37
HETATM   37  C   UNL     1     -10.722   7.692  69.961  1.00  0.00    -0.241 C  
BRANCH  37  38
HETATM   38  C   UNL     1     -10.743   9.217  69.906  1.00  0.00    -0.234 C  
HETATM   39  H   UNL     1     -10.632  10.706  71.183  1.00  0.00     0.000 HD 
HETATM   40  O   UNL     1     -10.619   9.756  71.217  1.00  0.00    -0.273 OA 
ENDBRANCH  37  38
ENDBRANCH  36  37
ENDBRANCH  29  36
ENDBRANCH  13  27
ENDBRANCH   4   5
ENDBRANCH   3   4
ENDBRANCH   2   3
TORSDOF 10
ENDMDL
MODEL      203
REMARK 921   NORMALIZED FREE ENERGY PREDICTED BY IDOCK:   -3.37 KCAL/MOL
REMARK 922        TOTAL FREE ENERGY PREDICTED BY IDOCK:   -7.40 KCAL/MOL
REMARK 923 INTER-LIGAND FREE ENERGY PREDICTED BY IDOCK:   -6.09 KCAL/MOL
REMARK 924 INTRA-LIGAND FREE ENERGY PREDICTED BY IDOCK:   -1.31 KCAL/MOL
REMARK 927      BINDING AFFINITY PREDICTED BY RF-SCORE:    0.00 PKD
ROOT
HETATM    1  C   UNL     1     -11.058  12.827  63.878  1.00  0.00    -0.477 C  
HETATM    2  C   UNL     1     -10.088  12.097  64.797  1.00  0.00    -0.276 C  
ENDROOT
BRANCH   2   3
HETATM    3  C   UNL     1     -10.570  10.686  65.153  1.00  0.00    -0.120 C  
BRANCH   3   4
HETATM    4  S   UNL     1      -9.123   9.570  65.234  1.00  0.00    -0.233 SA 
BRANCH   4   5
HETATM    5  C   UNL     1      -8.947   9.394  66.997  1.00  0.00    -0.130 A  
HETATM    6  N   UNL     1      -9.973   9.867  67.740  1.00  0.00    -0.158 NA 
HETATM    7  C   UNL     1      -9.753   9.714  69.057  1.00  0.00    -0.169 A  
HETATM    8  C   UNL     1      -8.637   9.150  69.646  1.00  0.00    -0.143 A  
HETATM    9  N   UNL     1      -8.785   9.137  71.005  1.00  0.00    -0.237 NA 
HETATM   10  C   UNL     1      -7.636   8.655  68.797  1.00  0.00    -0.096 A  
HETATM   11  N   UNL     1      -7.825   8.797  67.452  1.00  0.00    -0.097 NA 
HETATM   12  N   UNL     1      -9.974   9.656  71.294  1.00  0.00    -0.071 NA 
HETATM   13  N   UNL     1     -10.578   9.979  70.120  1.00  0.00    -0.282 NA 
BRANCH  10  14
HETATM   14  N   UNL     1      -6.507   7.992  69.320  1.00  0.00    -0.035 NA 
HETATM   15  H   UNL     1      -5.579   8.408  69.254  1.00  0.00     0.000 HD 
BRANCH  14  16
HETATM   16  C   UNL     1      -6.702   6.689  69.960  1.00  0.00    -0.049 C  
HETATM   17  C   UNL     1      -7.953   5.881  69.690  1.00  0.00    -0.101 C  
HETATM   18  C   UNL     1      -6.619   5.424  69.160  1.00  0.00    -0.051 C  
BRANCH  17  19
HETATM   19  C   UNL     1      -8.633   5.219  70.862  1.00  0.00    -0.133 A  
HETATM   20  C   UNL     1     -10.484   4.971  72.422  1.00  0.00    -0.217 A  
HETATM   21  C   UNL     1      -9.902   5.604  71.323  1.00  0.00    -0.225 A  
HETATM   22  F   UNL     1     -11.701   5.354  72.828  1.00  0.00    -0.335 F  
HETATM   23  C   UNL     1      -9.811   3.953  73.085  1.00  0.00    -0.127 A  
HETATM   24  C   UNL     1      -7.971   4.188  71.559  1.00  0.00    -0.077 A  
HETATM   25  F   UNL     1     -10.373   3.350  74.140  1.00  0.00    -0.168 F  
HETATM   26  C   UNL     1      -8.552   3.556  72.661  1.00  0.00    -0.091 A  
ENDBRANCH  17  19
ENDBRANCH  14  16
ENDBRANCH  10  14
BRANCH  13  27
HETATM   27  C   UNL     1     -11.939  10.471  70.184  1.00  0.00    -0.316 C  
HETATM   28  C   UNL     1     -12.322  11.345  68.978  1.00  0.00    -0.033 C  
HETATM   29  C   UNL     1     -11.873  12.753  69.370  1.00  0.00    -0.300 C  
HETATM   30  H   UNL     1     -13.910  11.613  72.462  1.00  0.00     0.000 HD 
HETATM   31  C   UNL     1     -12.199  12.821  70.883  1.00  0.00    -0.191 C  
HETATM   32  H   UNL     1     -13.642  13.537  72.076  1.00  0.00     0.000 HD 
HETATM   33  O   UNL     1     -13.679  11.063  71.722  1.00  0.00    -0.067 OA 
HETATM   34  C   UNL     1     -12.310  11.355  71.374  1.00  0.00    -0.165 C  
HETATM   35  O   UNL     1     -13.442  13.496  71.148  1.00  0.00    -0.159 OA 
BRANCH  29  36
HETATM   36  O   UNL     1     -10.468  12.944  69.162  1.00  0.00    -0.055 OA 
BRANCH  36  37
HETATM   37  C   UNL     1     -10.162  13.828  68.072  1.00  0.00    -0.248 C  
BRANCH  37  38
HETATM   38  C   UNL     1      -9.191  14.907  68.542  1.00  0.00    -0.192 C  
HETATM   39  H   UNL     1      -8.990  16.084  70.102  1.00  0.00     0.000 HD 
HETATM   40  O   UNL     1      -9.595  15.411  69.810  1.00  0.00    -0.266 OA 
ENDBRANCH  37  38
ENDBRANCH  36  37
ENDBRANCH  29  36
ENDBRANCH  13  27
ENDBRANCH   4   5
ENDBRANCH   3   4
ENDBRANCH   2   3
TORSDOF 10
ENDMDL
MODEL      204
REMARK 921   NORMALIZED FREE ENERGY PREDICTED BY IDOCK:   -3.35 KCAL/MOL
REMARK 922        TOTAL FREE ENERGY PREDICTED BY IDOCK:   -7.37 KCAL/MOL
REMARK 923 INTER-LIGAND FREE ENERGY PREDICTED BY IDOCK:   -7.19 KCAL/MOL
REMARK 924 INTRA-LIGAND FREE ENERGY PREDICTED BY IDOCK:   -0.18 KCAL/MOL
REMARK 927      BINDING AFFINITY PREDICTED BY RF-SCORE:    0.00 PKD
ROOT
HETATM    1  C   UNL     1     -10.537   9.585  70.751  1.00  0.00    -0.387 C  
HETATM    2  C   UNL     1      -9.308   8.982  70.084  1.00  0.00    -0.213 C  
ENDROOT
BRANCH   2   3
HETATM    3  C   UNL     1      -8.023   9.250  70.875  1.00  0.00    -0.122 C  
BRANCH   3   4
HETATM    4  S   UNL     1      -6.922  10.313  69.874  1.00  0.00    -0.153 SA 
BRANCH   4   5
HETATM    5  C   UNL     1      -7.922  10.538  68.419  1.00  0.00    -0.116 A  
HETATM    6  N   UNL     1      -8.231  11.818  68.111  1.00  0.00    -0.146 NA 
HETATM    7  C   UNL     1      -9.003  11.899  67.014  1.00  0.00    -0.190 A  
HETATM    8  C   UNL     1      -9.459  10.843  66.247  1.00  0.00    -0.194 A  
HETATM    9  N   UNL     1     -10.189  11.315  65.192  1.00  0.00    -0.274 NA 
HETATM   10  C   UNL     1      -9.062   9.551  66.622  1.00  0.00    -0.148 A  
HETATM   11  N   UNL     1      -8.280   9.431  67.734  1.00  0.00    -0.114 NA 
HETATM   12  N   UNL     1     -10.189  12.643  65.254  1.00  0.00    -0.289 NA 
HETATM   13  N   UNL     1      -9.449  13.004  66.335  1.00  0.00    -0.249 NA 
BRANCH  10  14
HETATM   14  N   UNL     1      -9.418   8.431  65.843  1.00  0.00    -0.425 NA 
HETATM   15  H   UNL     1     -10.270   8.433  65.282  1.00  0.00     0.000 HD 
BRANCH  14  16
HETATM   16  C   UNL     1      -8.532   7.264  65.858  1.00  0.00    -0.144 C  
HETATM   17  C   UNL     1      -9.082   5.881  65.581  1.00  0.00    -0.058 C  
HETATM   18  C   UNL     1      -8.177   6.557  64.584  1.00  0.00    -0.052 C  
BRANCH  17  19
HETATM   19  C   UNL     1      -8.619   4.748  66.462  1.00  0.00    -0.109 A  
HETATM   20  C   UNL     1      -9.031   2.840  67.915  1.00  0.00    -0.161 A  
HETATM   21  C   UNL     1      -9.507   3.865  67.096  1.00  0.00    -0.231 A  
HETATM   22  F   UNL     1      -9.904   2.007  68.495  1.00  0.00    -0.243 F  
HETATM   23  C   UNL     1      -7.667   2.683  68.124  1.00  0.00    -0.055 A  
HETATM   24  C   UNL     1      -7.241   4.569  66.698  1.00  0.00    -0.080 A  
HETATM   25  F   UNL     1      -7.216   1.700  68.912  1.00  0.00    -0.038 F  
HETATM   26  C   UNL     1      -6.764   3.545  67.521  1.00  0.00    -0.042 A  
ENDBRANCH  17  19
ENDBRANCH  14  16
ENDBRANCH  10  14
BRANCH  13  27
HETATM   27  C   UNL     1      -9.222  14.419  66.545  1.00  0.00    -0.244 C  
HETATM   28  C   UNL     1      -9.011  14.784  68.024  1.00  0.00    -0.174 C  
HETATM   29  C   UNL     1     -10.424  15.005  68.567  1.00  0.00    -0.232 C  
HETATM   30  H   UNL     1     -10.390  17.178  65.359  1.00  0.00     0.000 HD 
HETATM   31  C   UNL     1     -11.151  15.702  67.389  1.00  0.00    -0.260 C  
HETATM   32  H   UNL     1     -11.663  17.557  66.829  1.00  0.00     0.000 HD 
HETATM   33  O   UNL     1      -9.701  16.581  65.627  1.00  0.00    -0.513 OA 
HETATM   34  C   UNL     1     -10.331  15.379  66.114  1.00  0.00    -0.313 C  
HETATM   35  O   UNL     1     -11.217  17.130  67.551  1.00  0.00    -0.081 OA 
BRANCH  29  36
HETATM   36  O   UNL     1     -11.076  13.768  68.883  1.00  0.00    -0.250 OA 
BRANCH  36  37
HETATM   37  C   UNL     1     -12.332  13.936  69.559  1.00  0.00    -0.227 C  
BRANCH  37  38
HETATM   38  C   UNL     1     -12.298  13.202  70.896  1.00  0.00    -0.307 C  
HETATM   39  H   UNL     1     -13.351  13.180  72.554  1.00  0.00     0.000 HD 
HETATM   40  O   UNL     1     -13.372  13.637  71.721  1.00  0.00    -0.360 OA 
ENDBRANCH  37  38
ENDBRANCH  36  37
ENDBRANCH  29  36
ENDBRANCH  13  27
ENDBRANCH   4   5
ENDBRANCH   3   4
ENDBRANCH   2   3
TORSDOF 10
ENDMDL
MODEL      205
REMARK 921   NORMALIZED FREE ENERGY PREDICTED BY IDOCK:   -3.33 KCAL/MOL
REMARK 922        TOTAL FREE ENERGY PREDICTED BY IDOCK:   -7.35 KCAL/MOL
REMARK 923 INTER-LIGAND FREE ENERGY PREDICTED BY IDOCK:   -6.20 KCAL/MOL
REMARK 924 INTRA-LIGAND FREE ENERGY PREDICTED BY IDOCK:   -1.15 KCAL/MOL
REMARK 927      BINDING AFFINITY PREDICTED BY RF-SCORE:    0.00 PKD
ROOT
HETATM    1  C   UNL     1     -12.139  12.389  70.510  1.00  0.00    -0.363 C  
HETATM    2  C   UNL     1     -12.101  11.045  69.796  1.00  0.00    -0.424 C  
ENDROOT
BRANCH   2   3
HETATM    3  C   UNL     1     -10.712  10.399  69.837  1.00  0.00    -0.279 C  
BRANCH   3   4
HETATM    4  S   UNL     1     -10.672   9.004  68.655  1.00  0.00    -0.031 SA 
BRANCH   4   5
HETATM    5  C   UNL     1      -9.020   9.167  68.014  1.00  0.00    -0.128 A  
HETATM    6  N   UNL     1      -8.466   8.036  67.521  1.00  0.00    -0.126 NA 
HETATM    7  C   UNL     1      -7.214   8.241  67.077  1.00  0.00    -0.083 A  
HETATM    8  C   UNL     1      -6.520   9.436  67.092  1.00  0.00    -0.067 A  
HETATM    9  N   UNL     1      -5.287   9.264  66.527  1.00  0.00    -0.044 NA 
HETATM   10  C   UNL     1      -7.184  10.565  67.591  1.00  0.00    -0.086 A  
HETATM   11  N   UNL     1      -8.456  10.394  68.055  1.00  0.00    -0.118 NA 
HETATM   12  N   UNL     1      -5.188   7.998  66.132  1.00  0.00    -0.025 NA 
HETATM   13  N   UNL     1      -6.361   7.382  66.434  1.00  0.00    -0.041 NA 
BRANCH  10  14
HETATM   14  N   UNL     1      -6.572  11.836  67.563  1.00  0.00    -0.085 NA 
HETATM   15  H   UNL     1      -5.576  11.941  67.756  1.00  0.00     0.000 HD 
BRANCH  14  16
HETATM   16  C   UNL     1      -7.402  13.000  67.247  1.00  0.00    -0.057 C  
HETATM   17  C   UNL     1      -8.834  13.074  67.732  1.00  0.00    -0.188 C  
HETATM   18  C   UNL     1      -7.783  13.980  68.317  1.00  0.00    -0.141 C  
BRANCH  17  19
HETATM   19  C   UNL     1      -9.883  13.563  66.764  1.00  0.00    -0.267 A  
HETATM   20  C   UNL     1     -11.942  13.291  65.497  1.00  0.00    -0.405 A  
HETATM   21  C   UNL     1     -11.007  12.801  66.409  1.00  0.00    -0.305 A  
HETATM   22  F   UNL     1     -13.010  12.544  65.190  1.00  0.00    -0.524 F  
HETATM   23  C   UNL     1     -11.771  14.541  64.916  1.00  0.00    -0.402 A  
HETATM   24  C   UNL     1      -9.731  14.825  66.153  1.00  0.00    -0.338 A  
HETATM   25  F   UNL     1     -12.670  15.005  64.040  1.00  0.00    -0.432 F  
HETATM   26  C   UNL     1     -10.666  15.314  65.237  1.00  0.00    -0.433 A  
ENDBRANCH  17  19
ENDBRANCH  14  16
ENDBRANCH  10  14
BRANCH  13  27
HETATM   27  C   UNL     1      -6.523   6.009  65.999  1.00  0.00    -0.046 C  
HETATM   28  C   UNL     1      -5.914   5.739  64.613  1.00  0.00    -0.025 C  
HETATM   29  C   UNL     1      -7.028   6.104  63.630  1.00  0.00    -0.046 C  
HETATM   30  H   UNL     1      -8.831   3.766  66.139  1.00  0.00     0.000 HD 
HETATM   31  C   UNL     1      -8.310   5.610  64.347  1.00  0.00    -0.093 C  
HETATM   32  H   UNL     1      -9.535   4.024  64.305  1.00  0.00     0.000 HD 
HETATM   33  O   UNL     1      -7.944   4.093  66.232  1.00  0.00    -0.097 OA 
HETATM   34  C   UNL     1      -7.950   5.484  65.850  1.00  0.00    -0.106 C  
HETATM   35  O   UNL     1      -8.749   4.327  63.866  1.00  0.00    -0.113 OA 
BRANCH  29  36
HETATM   36  O   UNL     1      -7.105   7.518  63.409  1.00  0.00    -0.067 OA 
BRANCH  36  37
HETATM   37  C   UNL     1      -8.449   8.026  63.396  1.00  0.00     0.146 C  
BRANCH  37  38
HETATM   38  C   UNL     1      -8.577   9.114  62.333  1.00  0.00    -0.222 C  
HETATM   39  H   UNL     1      -9.837  10.554  61.891  1.00  0.00     0.000 HD 
HETATM   40  O   UNL     1      -9.757   9.877  62.553  1.00  0.00    -0.141 OA 
ENDBRANCH  37  38
ENDBRANCH  36  37
ENDBRANCH  29  36
ENDBRANCH  13  27
ENDBRANCH   4   5
ENDBRANCH   3   4
ENDBRANCH   2   3
TORSDOF 10
ENDMDL
MODEL      206
REMARK 921   NORMALIZED FREE ENERGY PREDICTED BY IDOCK:   -3.30 KCAL/MOL
REMARK 922        TOTAL FREE ENERGY PREDICTED BY IDOCK:   -7.29 KCAL/MOL
REMARK 923 INTER-LIGAND FREE ENERGY PREDICTED BY IDOCK:   -6.02 KCAL/MOL
REMARK 924 INTRA-LIGAND FREE ENERGY PREDICTED BY IDOCK:   -1.27 KCAL/MOL
REMARK 927      BINDING AFFINITY PREDICTED BY RF-SCORE:    0.00 PKD
ROOT
HETATM    1  C   UNL     1      -7.614   6.048  62.685  1.00  0.00    -0.075 C  
HETATM    2  C   UNL     1      -6.743   7.092  63.369  1.00  0.00    -0.052 C  
ENDROOT
BRANCH   2   3
HETATM    3  C   UNL     1      -6.039   6.542  64.614  1.00  0.00    -0.034 C  
BRANCH   3   4
HETATM    4  S   UNL     1      -5.519   7.943  65.668  1.00  0.00    -0.029 SA 
BRANCH   4   5
HETATM    5  C   UNL     1      -6.996   8.193  66.629  1.00  0.00    -0.072 A  
HETATM    6  N   UNL     1      -7.723   7.082  66.888  1.00  0.00    -0.101 NA 
HETATM    7  C   UNL     1      -8.829   7.360  67.600  1.00  0.00    -0.127 A  
HETATM    8  C   UNL     1      -9.231   8.604  68.045  1.00  0.00    -0.140 A  
HETATM    9  N   UNL     1     -10.389   8.489  68.764  1.00  0.00    -0.217 NA 
HETATM   10  C   UNL     1      -8.399   9.696  67.759  1.00  0.00    -0.121 A  
HETATM   11  N   UNL     1      -7.268   9.452  67.034  1.00  0.00    -0.086 NA 
HETATM   12  N   UNL     1     -10.719   7.202  68.808  1.00  0.00    -0.198 NA 
HETATM   13  N   UNL     1      -9.765   6.510  68.132  1.00  0.00    -0.125 NA 
BRANCH  10  14
HETATM   14  N   UNL     1      -8.699  10.983  68.250  1.00  0.00    -0.137 NA 
HETATM   15  H   UNL     1      -8.246  11.341  69.090  1.00  0.00     0.000 HD 
BRANCH  14  16
HETATM   16  C   UNL     1      -9.679  11.793  67.523  1.00  0.00    -0.180 C  
HETATM   17  C   UNL     1      -9.307  12.456  66.214  1.00  0.00    -0.189 C  
HETATM   18  C   UNL     1     -10.274  11.301  66.237  1.00  0.00    -0.280 C  
BRANCH  17  19
HETATM   19  C   UNL     1      -9.746  13.882  65.994  1.00  0.00    -0.270 A  
HETATM   20  C   UNL     1     -11.119  15.573  64.910  1.00  0.00    -0.416 A  
HETATM   21  C   UNL     1     -10.758  14.236  65.089  1.00  0.00    -0.407 A  
HETATM   22  F   UNL     1     -12.097  15.876  64.047  1.00  0.00    -0.455 F  
HETATM   23  C   UNL     1     -10.474  16.577  65.620  1.00  0.00    -0.324 A  
HETATM   24  C   UNL     1      -9.104  14.923  66.697  1.00  0.00    -0.309 A  
HETATM   25  F   UNL     1     -10.822  17.857  65.443  1.00  0.00    -0.422 F  
HETATM   26  C   UNL     1      -9.463  16.261  66.515  1.00  0.00    -0.289 A  
ENDBRANCH  17  19
ENDBRANCH  14  16
ENDBRANCH  10  14
BRANCH  13  27
HETATM   27  C   UNL     1      -9.862   5.065  68.135  1.00  0.00    -0.146 C  
HETATM   28  C   UNL     1     -10.088   4.478  69.539  1.00  0.00    -0.139 C  
HETATM   29  C   UNL     1      -8.679   4.310  70.111  1.00  0.00    -0.074 C  
HETATM   30  H   UNL     1      -8.400   2.616  66.637  1.00  0.00     0.000 HD 
HETATM   31  C   UNL     1      -7.850   3.854  68.884  1.00  0.00    -0.056 C  
HETATM   32  H   UNL     1      -7.147   2.149  68.099  1.00  0.00     0.000 HD 
HETATM   33  O   UNL     1      -9.151   3.106  66.952  1.00  0.00    -0.150 OA 
HETATM   34  C   UNL     1      -8.654   4.278  67.629  1.00  0.00    -0.103 C  
HETATM   35  O   UNL     1      -7.655   2.428  68.851  1.00  0.00    -0.044 OA 
BRANCH  29  36
HETATM   36  O   UNL     1      -8.159   5.543  70.624  1.00  0.00    -0.109 OA 
BRANCH  36  37
HETATM   37  C   UNL     1      -7.217   5.369  71.694  1.00  0.00    -0.084 C  
BRANCH  37  38
HETATM   38  C   UNL     1      -5.933   6.132  71.379  1.00  0.00    -0.031 C  
HETATM   39  H   UNL     1      -5.253   7.269  69.930  1.00  0.00     0.000 HD 
HETATM   40  O   UNL     1      -6.053   6.794  70.126  1.00  0.00    -0.023 OA 
ENDBRANCH  37  38
ENDBRANCH  36  37
ENDBRANCH  29  36
ENDBRANCH  13  27
ENDBRANCH   4   5
ENDBRANCH   3   4
ENDBRANCH   2   3
TORSDOF 10
ENDMDL
MODEL      207
REMARK 921   NORMALIZED FREE ENERGY PREDICTED BY IDOCK:   -3.26 KCAL/MOL
REMARK 922        TOTAL FREE ENERGY PREDICTED BY IDOCK:   -7.23 KCAL/MOL
REMARK 923 INTER-LIGAND FREE ENERGY PREDICTED BY IDOCK:   -6.30 KCAL/MOL
REMARK 924 INTRA-LIGAND FREE ENERGY PREDICTED BY IDOCK:   -0.93 KCAL/MOL
REMARK 927      BINDING AFFINITY PREDICTED BY RF-SCORE:    0.00 PKD
ROOT
HETATM    1  C   UNL     1      -6.235  18.018  67.220  1.00  0.00    -0.176 C  
HETATM    2  C   UNL     1      -6.692  16.572  67.089  1.00  0.00    -0.232 C  
ENDROOT
BRANCH   2   3
HETATM    3  C   UNL     1      -8.210  16.422  67.235  1.00  0.00    -0.168 C  
BRANCH   3   4
HETATM    4  S   UNL     1      -8.579  15.684  68.867  1.00  0.00    -0.229 SA 
BRANCH   4   5
HETATM    5  C   UNL     1      -8.879  13.993  68.399  1.00  0.00    -0.180 A  
HETATM    6  N   UNL     1      -9.993  13.776  67.663  1.00  0.00    -0.234 NA 
HETATM    7  C   UNL     1     -10.155  12.474  67.370  1.00  0.00    -0.210 A  
HETATM    8  C   UNL     1      -9.323  11.435  67.742  1.00  0.00    -0.162 A  
HETATM    9  N   UNL     1      -9.794  10.257  67.232  1.00  0.00    -0.176 NA 
HETATM   10  C   UNL     1      -8.173  11.757  68.476  1.00  0.00    -0.134 A  
HETATM   11  N   UNL     1      -7.977  13.070  68.796  1.00  0.00    -0.013 NA 
HETATM   12  N   UNL     1     -10.889  10.523  66.526  1.00  0.00    -0.120 NA 
HETATM   13  N   UNL     1     -11.096  11.865  66.579  1.00  0.00    -0.293 NA 
BRANCH  10  14
HETATM   14  N   UNL     1      -7.233  10.764  68.821  1.00  0.00    -0.084 NA 
HETATM   15  H   UNL     1      -6.301  10.759  68.408  1.00  0.00     0.000 HD 
BRANCH  14  16
HETATM   16  C   UNL     1      -7.630   9.738  69.787  1.00  0.00    -0.137 C  
HETATM   17  C   UNL     1      -6.782   8.500  69.983  1.00  0.00    -0.042 C  
HETATM   18  C   UNL     1      -6.862   9.549  71.061  1.00  0.00    -0.041 C  
BRANCH  17  19
HETATM   19  C   UNL     1      -7.486   7.170  70.088  1.00  0.00    -0.089 A  
HETATM   20  C   UNL     1      -7.776   4.830  69.485  1.00  0.00    -0.062 A  
HETATM   21  C   UNL     1      -7.083   6.036  69.366  1.00  0.00    -0.066 A  
HETATM   22  F   UNL     1      -7.358   3.764  68.792  1.00  0.00    -0.052 F  
HETATM   23  C   UNL     1      -8.886   4.736  70.316  1.00  0.00    -0.101 A  
HETATM   24  C   UNL     1      -8.620   7.047  70.917  1.00  0.00    -0.139 A  
HETATM   25  F   UNL     1      -9.549   3.579  70.424  1.00  0.00    -0.218 F  
HETATM   26  C   UNL     1      -9.316   5.841  71.034  1.00  0.00    -0.183 A  
ENDBRANCH  17  19
ENDBRANCH  14  16
ENDBRANCH  10  14
BRANCH  13  27
HETATM   27  C   UNL     1     -12.186  12.402  65.791  1.00  0.00    -0.203 C  
HETATM   28  C   UNL     1     -12.328  11.726  64.417  1.00  0.00    -0.119 C  
HETATM   29  C   UNL     1     -11.380  12.509  63.507  1.00  0.00    -0.486 C  
HETATM   30  H   UNL     1     -13.444  15.311  65.211  1.00  0.00     0.000 HD 
HETATM   31  C   UNL     1     -11.543  13.969  63.999  1.00  0.00    -0.177 C  
HETATM   32  H   UNL     1     -12.543  15.626  63.475  1.00  0.00     0.000 HD 
HETATM   33  O   UNL     1     -13.479  14.388  65.434  1.00  0.00    -0.485 OA 
HETATM   34  C   UNL     1     -12.127  13.887  65.432  1.00  0.00    -0.408 C  
HETATM   35  O   UNL     1     -12.443  14.731  63.173  1.00  0.00    -0.012 OA 
BRANCH  29  36
HETATM   36  O   UNL     1     -10.019  12.089  63.662  1.00  0.00    -0.374 OA 
BRANCH  36  37
HETATM   37  C   UNL     1      -9.473  11.462  62.490  1.00  0.00    -0.039 C  
BRANCH  37  38
HETATM   38  C   UNL     1      -8.767  10.167  62.882  1.00  0.00    -0.207 C  
HETATM   39  H   UNL     1      -8.785   8.919  64.399  1.00  0.00     0.000 HD 
HETATM   40  O   UNL     1      -9.224   9.725  64.155  1.00  0.00    -0.256 OA 
ENDBRANCH  37  38
ENDBRANCH  36  37
ENDBRANCH  29  36
ENDBRANCH  13  27
ENDBRANCH   4   5
ENDBRANCH   3   4
ENDBRANCH   2   3
TORSDOF 10
ENDMDL
MODEL      208
REMARK 921   NORMALIZED FREE ENERGY PREDICTED BY IDOCK:   -3.20 KCAL/MOL
REMARK 922        TOTAL FREE ENERGY PREDICTED BY IDOCK:   -7.14 KCAL/MOL
REMARK 923 INTER-LIGAND FREE ENERGY PREDICTED BY IDOCK:   -5.98 KCAL/MOL
REMARK 924 INTRA-LIGAND FREE ENERGY PREDICTED BY IDOCK:   -1.15 KCAL/MOL
REMARK 927      BINDING AFFINITY PREDICTED BY RF-SCORE:    0.00 PKD
ROOT
HETATM    1  C   UNL     1     -11.391  15.599  64.626  1.00  0.00    -0.355 C  
HETATM    2  C   UNL     1     -11.576  14.091  64.733  1.00  0.00    -0.387 C  
ENDROOT
BRANCH   2   3
HETATM    3  C   UNL     1     -10.325  13.316  64.307  1.00  0.00    -0.294 C  
BRANCH   3   4
HETATM    4  S   UNL     1     -10.362  11.660  65.081  1.00  0.00    -0.291 SA 
BRANCH   4   5
HETATM    5  C   UNL     1      -9.221  11.903  66.425  1.00  0.00    -0.215 A  
HETATM    6  N   UNL     1      -8.957  13.190  66.746  1.00  0.00    -0.210 NA 
HETATM    7  C   UNL     1      -8.074  13.286  67.755  1.00  0.00    -0.166 A  
HETATM    8  C   UNL     1      -7.473  12.238  68.426  1.00  0.00    -0.122 A  
HETATM    9  N   UNL     1      -6.659  12.723  69.412  1.00  0.00    -0.095 NA 
HETATM   10  C   UNL     1      -7.831  10.936  68.049  1.00  0.00    -0.107 A  
HETATM   11  N   UNL     1      -8.723  10.800  67.025  1.00  0.00    -0.134 NA 
HETATM   12  N   UNL     1      -6.746  14.050  69.401  1.00  0.00    -0.118 NA 
HETATM   13  N   UNL     1      -7.623  14.396  68.422  1.00  0.00    -0.113 NA 
BRANCH  10  14
HETATM   14  N   UNL     1      -7.324   9.817  68.741  1.00  0.00    -0.072 NA 
HETATM   15  H   UNL     1      -6.429   9.865  69.228  1.00  0.00     0.000 HD 
BRANCH  14  16
HETATM   16  C   UNL     1      -8.115   8.585  68.745  1.00  0.00    -0.120 C  
HETATM   17  C   UNL     1      -7.876   7.524  69.798  1.00  0.00    -0.108 C  
HETATM   18  C   UNL     1      -9.142   8.339  69.810  1.00  0.00    -0.147 C  
BRANCH  17  19
HETATM   19  C   UNL     1      -7.840   6.083  69.352  1.00  0.00    -0.099 A  
HETATM   20  C   UNL     1      -8.057   4.340  67.668  1.00  0.00    -0.095 A  
HETATM   21  C   UNL     1      -8.087   5.688  68.029  1.00  0.00    -0.097 A  
HETATM   22  F   UNL     1      -8.285   3.998  66.394  1.00  0.00    -0.099 F  
HETATM   23  C   UNL     1      -7.790   3.364  68.619  1.00  0.00    -0.054 A  
HETATM   24  C   UNL     1      -7.578   5.070  70.298  1.00  0.00    -0.063 A  
HETATM   25  F   UNL     1      -7.764   2.072  68.269  1.00  0.00    -0.052 F  
HETATM   26  C   UNL     1      -7.552   3.720  69.938  1.00  0.00    -0.048 A  
ENDBRANCH  17  19
ENDBRANCH  14  16
ENDBRANCH  10  14
BRANCH  13  27
HETATM   27  C   UNL     1      -7.956  15.800  68.292  1.00  0.00    -0.130 C  
HETATM   28  C   UNL     1      -8.578  16.393  69.567  1.00  0.00     0.189 C  
HETATM   29  C   UNL     1     -10.073  16.102  69.431  1.00  0.00    -0.256 C  
HETATM   30  H   UNL     1      -9.201  17.709  66.015  1.00  0.00     0.000 HD 
HETATM   31  C   UNL     1     -10.339  16.308  67.919  1.00  0.00    -0.285 C  
HETATM   32  H   UNL     1     -11.059  17.729  66.702  1.00  0.00     0.000 HD 
HETATM   33  O   UNL     1      -8.573  17.469  66.687  1.00  0.00    -0.236 OA 
HETATM   34  C   UNL     1      -8.965  16.184  67.211  1.00  0.00    -0.196 C  
HETATM   35  O   UNL     1     -10.896  17.603  67.629  1.00  0.00    -0.350 OA 
BRANCH  29  36
HETATM   36  O   UNL     1     -10.393  14.757  69.807  1.00  0.00    -0.138 OA 
BRANCH  36  37
HETATM   37  C   UNL     1     -11.801  14.475  69.792  1.00  0.00    -0.315 C  
BRANCH  37  38
HETATM   38  C   UNL     1     -12.039  13.024  70.204  1.00  0.00    -0.307 C  
HETATM   39  H   UNL     1     -12.135  11.274  69.319  1.00  0.00     0.000 HD 
HETATM   40  O   UNL     1     -11.987  12.176  69.062  1.00  0.00    -0.297 OA 
ENDBRANCH  37  38
ENDBRANCH  36  37
ENDBRANCH  29  36
ENDBRANCH  13  27
ENDBRANCH   4   5
ENDBRANCH   3   4
ENDBRANCH   2   3
TORSDOF 10
ENDMDL
MODEL      209
REMARK 921   NORMALIZED FREE ENERGY PREDICTED BY IDOCK:   -3.16 KCAL/MOL
REMARK 922        TOTAL FREE ENERGY PREDICTED BY IDOCK:   -7.07 KCAL/MOL
REMARK 923 INTER-LIGAND FREE ENERGY PREDICTED BY IDOCK:   -5.49 KCAL/MOL
REMARK 924 INTRA-LIGAND FREE ENERGY PREDICTED BY IDOCK:   -1.58 KCAL/MOL
REMARK 927      BINDING AFFINITY PREDICTED BY RF-SCORE:    0.00 PKD
ROOT
HETATM    1  C   UNL     1     -12.511  12.021  71.024  1.00  0.00    -0.376 C  
HETATM    2  C   UNL     1     -12.469  10.630  70.405  1.00  0.00    -0.421 C  
ENDROOT
BRANCH   2   3
HETATM    3  C   UNL     1     -11.191   9.866  70.767  1.00  0.00    -0.353 C  
BRANCH   3   4
HETATM    4  S   UNL     1     -11.545   8.072  70.740  1.00  0.00    -0.193 SA 
BRANCH   4   5
HETATM    5  C   UNL     1     -10.730   7.603  69.229  1.00  0.00    -0.161 A  
HETATM    6  N   UNL     1     -10.324   8.623  68.439  1.00  0.00    -0.207 NA 
HETATM    7  C   UNL     1      -9.738   8.183  67.312  1.00  0.00    -0.178 A  
HETATM    8  C   UNL     1      -9.542   6.865  66.945  1.00  0.00    -0.162 A  
HETATM    9  N   UNL     1      -8.884   6.809  65.748  1.00  0.00    -0.116 NA 
HETATM   10  C   UNL     1      -9.966   5.873  67.841  1.00  0.00    -0.134 A  
HETATM   11  N   UNL     1     -10.569   6.282  68.995  1.00  0.00    -0.235 NA 
HETATM   12  N   UNL     1      -8.635   8.054  65.356  1.00  0.00    -0.145 NA 
HETATM   13  N   UNL     1      -9.121   8.890  66.312  1.00  0.00    -0.176 NA 
BRANCH  10  14
HETATM   14  N   UNL     1      -9.726   4.509  67.575  1.00  0.00    -0.176 NA 
HETATM   15  H   UNL     1     -10.078   4.072  66.723  1.00  0.00     0.000 HD 
BRANCH  14  16
HETATM   16  C   UNL     1      -8.960   3.734  68.554  1.00  0.00    -0.124 C  
HETATM   17  C   UNL     1      -9.577   3.356  69.884  1.00  0.00    -0.198 C  
HETATM   18  C   UNL     1      -9.309   2.304  68.839  1.00  0.00    -0.209 C  
BRANCH  17  19
HETATM   19  C   UNL     1      -8.730   3.506  71.123  1.00  0.00    -0.123 A  
HETATM   20  C   UNL     1      -7.138   4.711  72.514  1.00  0.00    -0.079 A  
HETATM   21  C   UNL     1      -7.916   4.625  71.358  1.00  0.00    -0.096 A  
HETATM   22  F   UNL     1      -6.382   5.798  72.714  1.00  0.00    -0.052 F  
HETATM   23  C   UNL     1      -7.152   3.685  73.449  1.00  0.00    -0.051 A  
HETATM   24  C   UNL     1      -8.718   2.476  72.086  1.00  0.00    -0.096 A  
HETATM   25  F   UNL     1      -6.403   3.771  74.555  1.00  0.00    -0.027 F  
HETATM   26  C   UNL     1      -7.938   2.561  73.241  1.00  0.00    -0.058 A  
ENDBRANCH  17  19
ENDBRANCH  14  16
ENDBRANCH  10  14
BRANCH  13  27
HETATM   27  C   UNL     1      -8.871  10.307  66.147  1.00  0.00    -0.151 C  
HETATM   28  C   UNL     1      -7.380  10.672  66.244  1.00  0.00    -0.137 C  
HETATM   29  C   UNL     1      -7.136  10.878  67.740  1.00  0.00    -0.082 C  
HETATM   30  H   UNL     1     -10.272  13.055  67.077  1.00  0.00     0.000 HD 
HETATM   31  C   UNL     1      -8.437  11.569  68.220  1.00  0.00    -0.159 C  
HETATM   32  H   UNL     1      -9.091  13.420  68.625  1.00  0.00     0.000 HD 
HETATM   33  O   UNL     1      -9.869  12.465  66.451  1.00  0.00    -0.229 OA 
HETATM   34  C   UNL     1      -9.519  11.256  67.154  1.00  0.00    -0.170 C  
HETATM   35  O   UNL     1      -8.293  12.997  68.331  1.00  0.00    -0.157 OA 
BRANCH  29  36
HETATM   36  O   UNL     1      -6.958   9.635  68.430  1.00  0.00    -0.064 OA 
BRANCH  36  37
HETATM   37  C   UNL     1      -7.184   9.725  69.845  1.00  0.00    -0.116 C  
BRANCH  37  38
HETATM   38  C   UNL     1      -6.579   8.508  70.541  1.00  0.00    -0.037 C  
HETATM   39  H   UNL     1      -6.338   6.598  70.151  1.00  0.00     0.000 HD 
HETATM   40  O   UNL     1      -6.714   7.356  69.718  1.00  0.00    -0.042 OA 
ENDBRANCH  37  38
ENDBRANCH  36  37
ENDBRANCH  29  36
ENDBRANCH  13  27
ENDBRANCH   4   5
ENDBRANCH   3   4
ENDBRANCH   2   3
TORSDOF 10
ENDMDL
MODEL      210
REMARK 921   NORMALIZED FREE ENERGY PREDICTED BY IDOCK:   -3.14 KCAL/MOL
REMARK 922        TOTAL FREE ENERGY PREDICTED BY IDOCK:   -7.03 KCAL/MOL
REMARK 923 INTER-LIGAND FREE ENERGY PREDICTED BY IDOCK:   -5.72 KCAL/MOL
REMARK 924 INTRA-LIGAND FREE ENERGY PREDICTED BY IDOCK:   -1.31 KCAL/MOL
REMARK 927      BINDING AFFINITY PREDICTED BY RF-SCORE:    0.00 PKD
ROOT
HETATM    1  C   UNL     1      -7.115  16.099  70.133  1.00  0.00     0.616 C  
HETATM    2  C   UNL     1      -6.066  16.280  69.044  1.00  0.00    -0.142 C  
ENDROOT
BRANCH   2   3
HETATM    3  C   UNL     1      -5.128  15.074  68.929  1.00  0.00    -0.096 C  
BRANCH   3   4
HETATM    4  S   UNL     1      -5.800  13.702  69.934  1.00  0.00    -0.133 SA 
BRANCH   4   5
HETATM    5  C   UNL     1      -6.659  12.773  68.683  1.00  0.00    -0.084 A  
HETATM    6  N   UNL     1      -7.725  13.388  68.122  1.00  0.00    -0.130 NA 
HETATM    7  C   UNL     1      -8.328  12.612  67.205  1.00  0.00    -0.189 A  
HETATM    8  C   UNL     1      -7.955  11.335  66.832  1.00  0.00    -0.155 A  
HETATM    9  N   UNL     1      -8.785  10.877  65.847  1.00  0.00    -0.181 NA 
HETATM   10  C   UNL     1      -6.817  10.788  67.442  1.00  0.00    -0.078 A  
HETATM   11  N   UNL     1      -6.181  11.546  68.383  1.00  0.00    -0.049 NA 
HETATM   12  N   UNL     1      -9.661  11.837  65.567  1.00  0.00    -0.224 NA 
HETATM   13  N   UNL     1      -9.371  12.901  66.363  1.00  0.00    -0.224 NA 
BRANCH  10  14
HETATM   14  N   UNL     1      -6.325   9.524  67.055  1.00  0.00    -0.065 NA 
HETATM   15  H   UNL     1      -5.759   9.419  66.214  1.00  0.00     0.000 HD 
BRANCH  14  16
HETATM   16  C   UNL     1      -6.649   8.366  67.891  1.00  0.00    -0.061 C  
HETATM   17  C   UNL     1      -6.172   6.983  67.504  1.00  0.00    -0.041 C  
HETATM   18  C   UNL     1      -5.585   7.686  68.699  1.00  0.00    -0.027 C  
BRANCH  17  19
HETATM   19  C   UNL     1      -7.147   5.839  67.629  1.00  0.00    -0.074 A  
HETATM   20  C   UNL     1      -9.267   4.749  67.141  1.00  0.00    -0.127 A  
HETATM   21  C   UNL     1      -8.392   5.825  66.982  1.00  0.00    -0.108 A  
HETATM   22  F   UNL     1     -10.443   4.762  66.499  1.00  0.00    -0.254 F  
HETATM   23  C   UNL     1      -8.922   3.676  67.951  1.00  0.00    -0.131 A  
HETATM   24  C   UNL     1      -6.827   4.739  68.451  1.00  0.00    -0.055 A  
HETATM   25  F   UNL     1      -9.766   2.648  68.103  1.00  0.00    -0.260 F  
HETATM   26  C   UNL     1      -7.704   3.664  68.613  1.00  0.00    -0.056 A  
ENDBRANCH  17  19
ENDBRANCH  14  16
ENDBRANCH  10  14
BRANCH  13  27
HETATM   27  C   UNL     1     -10.138  14.113  66.159  1.00  0.00    -0.313 C  
HETATM   28  C   UNL     1     -11.069  14.444  67.338  1.00  0.00    -0.317 C  
HETATM   29  C   UNL     1     -12.353  13.669  67.038  1.00  0.00    -0.232 C  
HETATM   30  H   UNL     1     -11.675  15.526  63.706  1.00  0.00     0.000 HD 
HETATM   31  C   UNL     1     -12.493  13.796  65.500  1.00  0.00    -0.512 C  
HETATM   32  H   UNL     1     -13.499  14.910  64.172  1.00  0.00     0.000 HD 
HETATM   33  O   UNL     1     -11.087  15.501  64.451  1.00  0.00    -0.321 OA 
HETATM   34  C   UNL     1     -11.084  14.152  64.960  1.00  0.00    -0.370 C  
HETATM   35  O   UNL     1     -13.414  14.833  65.115  1.00  0.00    -0.063 OA 
BRANCH  29  36
HETATM   36  O   UNL     1     -12.245  12.289  67.408  1.00  0.00    -0.478 OA 
BRANCH  36  37
HETATM   37  C   UNL     1     -11.580  12.080  68.664  1.00  0.00    -0.319 C  
BRANCH  37  38
HETATM   38  C   UNL     1     -11.751  10.627  69.101  1.00  0.00    -0.253 C  
HETATM   39  H   UNL     1     -10.880   8.904  68.742  1.00  0.00     0.000 HD 
HETATM   40  O   UNL     1     -10.774   9.808  68.470  1.00  0.00    -0.217 OA 
ENDBRANCH  37  38
ENDBRANCH  36  37
ENDBRANCH  29  36
ENDBRANCH  13  27
ENDBRANCH   4   5
ENDBRANCH   3   4
ENDBRANCH   2   3
TORSDOF 10
ENDMDL
MODEL      211
REMARK 921   NORMALIZED FREE ENERGY PREDICTED BY IDOCK:   -3.02 KCAL/MOL
REMARK 922        TOTAL FREE ENERGY PREDICTED BY IDOCK:   -6.85 KCAL/MOL
REMARK 923 INTER-LIGAND FREE ENERGY PREDICTED BY IDOCK:   -5.56 KCAL/MOL
REMARK 924 INTRA-LIGAND FREE ENERGY PREDICTED BY IDOCK:   -1.29 KCAL/MOL
REMARK 927      BINDING AFFINITY PREDICTED BY RF-SCORE:    0.00 PKD
ROOT
HETATM    1  C   UNL     1     -13.071  13.036  64.653  1.00  0.00     0.006 C  
HETATM    2  C   UNL     1     -12.181  12.232  63.715  1.00  0.00    -0.642 C  
ENDROOT
BRANCH   2   3
HETATM    3  C   UNL     1     -10.691  12.405  64.030  1.00  0.00    -0.404 C  
BRANCH   3   4
HETATM    4  S   UNL     1     -10.508  13.642  65.365  1.00  0.00    -0.339 SA 
BRANCH   4   5
HETATM    5  C   UNL     1      -9.722  12.653  66.619  1.00  0.00    -0.249 A  
HETATM    6  N   UNL     1     -10.555  12.013  67.470  1.00  0.00    -0.217 NA 
HETATM    7  C   UNL     1      -9.883  11.307  68.396  1.00  0.00    -0.199 A  
HETATM    8  C   UNL     1      -8.510  11.203  68.517  1.00  0.00    -0.156 A  
HETATM    9  N   UNL     1      -8.196  10.371  69.556  1.00  0.00    -0.155 NA 
HETATM   10  C   UNL     1      -7.723  11.874  67.569  1.00  0.00    -0.151 A  
HETATM   11  N   UNL     1      -8.372  12.605  66.617  1.00  0.00    -0.003 NA 
HETATM   12  N   UNL     1      -9.332   9.924  70.082  1.00  0.00    -0.210 NA 
HETATM   13  N   UNL     1     -10.355  10.461  69.367  1.00  0.00    -0.225 NA 
BRANCH  10  14
HETATM   14  N   UNL     1      -6.318  11.749  67.577  1.00  0.00    -0.082 NA 
HETATM   15  H   UNL     1      -5.737  12.414  68.088  1.00  0.00     0.000 HD 
BRANCH  14  16
HETATM   16  C   UNL     1      -5.715  10.642  66.833  1.00  0.00    -0.057 C  
HETATM   17  C   UNL     1      -6.413  10.062  65.622  1.00  0.00    -0.099 C  
HETATM   18  C   UNL     1      -5.146  10.861  65.463  1.00  0.00    -0.134 C  
BRANCH  17  19
HETATM   19  C   UNL     1      -6.452   8.560  65.480  1.00  0.00    -0.059 A  
HETATM   20  C   UNL     1      -7.448   6.380  65.897  1.00  0.00    -0.082 A  
HETATM   21  C   UNL     1      -7.464   7.768  66.043  1.00  0.00    -0.078 A  
HETATM   22  F   UNL     1      -8.437   5.654  66.436  1.00  0.00    -0.114 F  
HETATM   23  C   UNL     1      -6.422   5.758  65.198  1.00  0.00    -0.042 A  
HETATM   24  C   UNL     1      -5.419   7.901  64.783  1.00  0.00    -0.033 A  
HETATM   25  F   UNL     1      -6.410   4.426  65.064  1.00  0.00    -0.030 F  
HETATM   26  C   UNL     1      -5.401   6.511  64.640  1.00  0.00    -0.025 A  
ENDBRANCH  17  19
ENDBRANCH  14  16
ENDBRANCH  10  14
BRANCH  13  27
HETATM   27  C   UNL     1     -11.698  10.030  69.699  1.00  0.00    -0.034 C  
HETATM   28  C   UNL     1     -12.772  11.069  69.336  1.00  0.00     0.302 C  
HETATM   29  C   UNL     1     -12.844  11.986  70.558  1.00  0.00     0.129 C  
HETATM   30  H   UNL     1     -13.117   8.451  72.121  1.00  0.00     0.000 HD 
HETATM   31  C   UNL     1     -12.664  11.007  71.746  1.00  0.00    -0.303 C  
HETATM   32  H   UNL     1     -13.806  10.042  73.080  1.00  0.00     0.000 HD 
HETATM   33  O   UNL     1     -12.931   8.636  71.208  1.00  0.00    -0.285 OA 
HETATM   34  C   UNL     1     -11.996   9.733  71.168  1.00  0.00    -0.376 C  
HETATM   35  O   UNL     1     -13.916  10.641  72.352  1.00  0.00     0.151 OA 
BRANCH  29  36
HETATM   36  O   UNL     1     -11.791  12.958  70.561  1.00  0.00    -0.253 OA 
BRANCH  36  37
HETATM   37  C   UNL     1     -12.262  14.315  70.586  1.00  0.00    -0.357 C  
BRANCH  37  38
HETATM   38  C   UNL     1     -11.532  15.092  71.679  1.00  0.00    -0.313 C  
HETATM   39  H   UNL     1     -11.933  16.573  72.905  1.00  0.00     0.000 HD 
HETATM   40  O   UNL     1     -12.387  16.089  72.225  1.00  0.00    -0.442 OA 
ENDBRANCH  37  38
ENDBRANCH  36  37
ENDBRANCH  29  36
ENDBRANCH  13  27
ENDBRANCH   4   5
ENDBRANCH   3   4
ENDBRANCH   2   3
TORSDOF 10
ENDMDL
MODEL      212
REMARK 921   NORMALIZED FREE ENERGY PREDICTED BY IDOCK:   -2.94 KCAL/MOL
REMARK 922        TOTAL FREE ENERGY PREDICTED BY IDOCK:   -6.72 KCAL/MOL
REMARK 923 INTER-LIGAND FREE ENERGY PREDICTED BY IDOCK:   -6.45 KCAL/MOL
REMARK 924 INTRA-LIGAND FREE ENERGY PREDICTED BY IDOCK:   -0.27 KCAL/MOL
REMARK 927      BINDING AFFINITY PREDICTED BY RF-SCORE:    0.00 PKD
ROOT
HETATM    1  C   UNL     1      -7.042   6.379  69.458  1.00  0.00    -0.073 C  
HETATM    2  C   UNL     1      -8.141   7.428  69.364  1.00  0.00    -0.129 C  
ENDROOT
BRANCH   2   3
HETATM    3  C   UNL     1      -9.426   6.993  70.078  1.00  0.00    -0.161 C  
BRANCH   3   4
HETATM    4  S   UNL     1     -10.820   7.087  68.897  1.00  0.00    -0.125 SA 
BRANCH   4   5
HETATM    5  C   UNL     1      -9.942   7.409  67.383  1.00  0.00    -0.183 A  
HETATM    6  N   UNL     1      -9.095   6.437  66.977  1.00  0.00    -0.124 NA 
HETATM    7  C   UNL     1      -8.459   6.767  65.839  1.00  0.00    -0.144 A  
HETATM    8  C   UNL     1      -8.608   7.939  65.122  1.00  0.00    -0.027 A  
HETATM    9  N   UNL     1      -7.822   7.902  64.004  1.00  0.00    -0.136 NA 
HETATM   10  C   UNL     1      -9.533   8.878  65.600  1.00  0.00    -0.159 A  
HETATM   11  N   UNL     1     -10.195   8.578  66.755  1.00  0.00    -0.298 NA 
HETATM   12  N   UNL     1      -7.197   6.729  63.978  1.00  0.00    -0.065 NA 
HETATM   13  N   UNL     1      -7.600   6.025  65.068  1.00  0.00    -0.085 NA 
BRANCH  10  14
HETATM   14  N   UNL     1      -9.801  10.060  64.879  1.00  0.00    -0.346 NA 
HETATM   15  H   UNL     1      -9.355  10.236  63.979  1.00  0.00     0.000 HD 
BRANCH  14  16
HETATM   16  C   UNL     1     -10.736  11.028  65.455  1.00  0.00    -0.148 C  
HETATM   17  C   UNL     1     -10.305  12.459  65.700  1.00  0.00    -0.284 C  
HETATM   18  C   UNL     1     -11.302  12.136  64.618  1.00  0.00    -0.382 C  
BRANCH  17  19
HETATM   19  C   UNL     1     -10.700  13.102  67.006  1.00  0.00    -0.270 A  
HETATM   20  C   UNL     1     -10.610  14.906  68.636  1.00  0.00    -0.251 A  
HETATM   21  C   UNL     1     -10.227  14.359  67.410  1.00  0.00    -0.247 A  
HETATM   22  F   UNL     1     -10.150  16.114  68.985  1.00  0.00    -0.202 F  
HETATM   23  C   UNL     1     -11.461  14.208  69.482  1.00  0.00    -0.281 A  
HETATM   24  C   UNL     1     -11.557  12.412  67.889  1.00  0.00    -0.415 A  
HETATM   25  F   UNL     1     -11.823  14.736  70.658  1.00  0.00    -0.284 F  
HETATM   26  C   UNL     1     -11.938  12.958  69.117  1.00  0.00    -0.308 A  
ENDBRANCH  17  19
ENDBRANCH  14  16
ENDBRANCH  10  14
BRANCH  13  27
HETATM   27  C   UNL     1      -7.123   4.664  65.196  1.00  0.00    -0.063 C  
HETATM   28  C   UNL     1      -7.174   3.880  63.874  1.00  0.00    -0.051 C  
HETATM   29  C   UNL     1      -8.589   3.301  63.830  1.00  0.00    -0.089 C  
HETATM   30  H   UNL     1      -7.361   2.293  67.364  1.00  0.00     0.000 HD 
HETATM   31  C   UNL     1      -8.863   2.921  65.307  1.00  0.00    -0.131 C  
HETATM   32  H   UNL     1      -8.817   1.289  66.470  1.00  0.00     0.000 HD 
HETATM   33  O   UNL     1      -6.898   2.864  66.762  1.00  0.00    -0.046 OA 
HETATM   34  C   UNL     1      -7.869   3.746  66.164  1.00  0.00    -0.089 C  
HETATM   35  O   UNL     1      -8.648   1.522  65.564  1.00  0.00    -0.096 OA 
BRANCH  29  36
HETATM   36  O   UNL     1      -9.550   4.267  63.386  1.00  0.00    -0.147 OA 
BRANCH  36  37
HETATM   37  C   UNL     1     -10.406   3.787  62.338  1.00  0.00    -0.179 C  
BRANCH  37  38
HETATM   38  C   UNL     1     -10.549   2.271  62.444  1.00  0.00    -0.128 C  
HETATM   39  H   UNL     1     -11.832   0.996  63.208  1.00  0.00     0.000 HD 
HETATM   40  O   UNL     1     -11.744   1.940  63.142  1.00  0.00    -0.301 OA 
ENDBRANCH  37  38
ENDBRANCH  36  37
ENDBRANCH  29  36
ENDBRANCH  13  27
ENDBRANCH   4   5
ENDBRANCH   3   4
ENDBRANCH   2   3
TORSDOF 10
ENDMDL
MODEL      213
REMARK 921   NORMALIZED FREE ENERGY PREDICTED BY IDOCK:   -2.91 KCAL/MOL
REMARK 922        TOTAL FREE ENERGY PREDICTED BY IDOCK:   -6.68 KCAL/MOL
REMARK 923 INTER-LIGAND FREE ENERGY PREDICTED BY IDOCK:   -6.81 KCAL/MOL
REMARK 924 INTRA-LIGAND FREE ENERGY PREDICTED BY IDOCK:    0.14 KCAL/MOL
REMARK 927      BINDING AFFINITY PREDICTED BY RF-SCORE:    0.00 PKD
ROOT
HETATM    1  C   UNL     1      -8.341  16.320  66.388  1.00  0.00    -0.365 C  
HETATM    2  C   UNL     1      -9.485  15.439  66.871  1.00  0.00    -0.246 C  
ENDROOT
BRANCH   2   3
HETATM    3  C   UNL     1      -9.134  13.947  66.827  1.00  0.00    -0.223 C  
BRANCH   3   4
HETATM    4  S   UNL     1     -10.540  13.029  66.104  1.00  0.00    -0.281 SA 
BRANCH   4   5
HETATM    5  C   UNL     1     -10.449  11.512  67.030  1.00  0.00    -0.228 A  
HETATM    6  N   UNL     1      -9.579  10.588  66.561  1.00  0.00    -0.170 NA 
HETATM    7  C   UNL     1      -9.586   9.468  67.303  1.00  0.00    -0.150 A  
HETATM    8  C   UNL     1     -10.361   9.226  68.422  1.00  0.00    -0.209 A  
HETATM    9  N   UNL     1     -10.070   7.990  68.930  1.00  0.00    -0.196 NA 
HETATM   10  C   UNL     1     -11.211  10.253  68.857  1.00  0.00    -0.207 A  
HETATM   11  N   UNL     1     -11.233  11.404  68.124  1.00  0.00    -0.254 NA 
HETATM   12  N   UNL     1      -9.115   7.451  68.179  1.00  0.00    -0.132 NA 
HETATM   13  N   UNL     1      -8.796   8.351  67.212  1.00  0.00    -0.129 NA 
BRANCH  10  14
HETATM   14  N   UNL     1     -11.970  10.112  70.037  1.00  0.00    -0.444 NA 
HETATM   15  H   UNL     1     -12.406  10.921  70.478  1.00  0.00     0.000 HD 
BRANCH  14  16
HETATM   16  C   UNL     1     -12.117   8.774  70.613  1.00  0.00     0.012 C  
HETATM   17  C   UNL     1     -11.767   8.521  72.064  1.00  0.00    -0.431 C  
HETATM   18  C   UNL     1     -13.201   8.484  71.608  1.00  0.00    -0.371 C  
BRANCH  17  19
HETATM   19  C   UNL     1     -10.985   7.274  72.395  1.00  0.00    -0.306 A  
HETATM   20  C   UNL     1      -9.841   5.218  71.775  1.00  0.00    -0.170 A  
HETATM   21  C   UNL     1     -10.549   6.367  71.418  1.00  0.00    -0.274 A  
HETATM   22  F   UNL     1      -9.428   4.379  70.817  1.00  0.00    -0.178 F  
HETATM   23  C   UNL     1      -9.564   4.950  73.110  1.00  0.00    -0.137 A  
HETATM   24  C   UNL     1     -10.696   6.972  73.742  1.00  0.00    -0.220 A  
HETATM   25  F   UNL     1      -8.887   3.845  73.448  1.00  0.00    -0.094 F  
HETATM   26  C   UNL     1      -9.990   5.821  74.100  1.00  0.00    -0.237 A  
ENDBRANCH  17  19
ENDBRANCH  14  16
ENDBRANCH  10  14
BRANCH  13  27
HETATM   27  C   UNL     1      -7.696   8.019  66.329  1.00  0.00    -0.091 C  
HETATM   28  C   UNL     1      -8.135   7.211  65.096  1.00  0.00    -0.127 C  
HETATM   29  C   UNL     1      -8.103   5.755  65.563  1.00  0.00    -0.128 C  
HETATM   30  H   UNL     1      -4.631   7.083  66.658  1.00  0.00     0.000 HD 
HETATM   31  C   UNL     1      -6.857   5.706  66.483  1.00  0.00    -0.059 C  
HETATM   32  H   UNL     1      -4.936   5.145  66.377  1.00  0.00     0.000 HD 
HETATM   33  O   UNL     1      -5.335   7.611  66.300  1.00  0.00    -0.024 OA 
HETATM   34  C   UNL     1      -6.565   7.168  66.906  1.00  0.00    -0.055 C  
HETATM   35  O   UNL     1      -5.699   5.176  65.813  1.00  0.00    -0.017 OA 
BRANCH  29  36
HETATM   36  O   UNL     1      -9.276   5.406  66.308  1.00  0.00    -0.143 OA 
BRANCH  36  37
HETATM   37  C   UNL     1     -10.202   4.589  65.574  1.00  0.00    -0.231 C  
BRANCH  37  38
HETATM   38  C   UNL     1      -9.457   3.817  64.489  1.00  0.00    -0.163 C  
HETATM   39  H   UNL     1      -9.183   1.937  63.989  1.00  0.00     0.000 HD 
HETATM   40  O   UNL     1      -9.647   2.418  64.665  1.00  0.00    -0.137 OA 
ENDBRANCH  37  38
ENDBRANCH  36  37
ENDBRANCH  29  36
ENDBRANCH  13  27
ENDBRANCH   4   5
ENDBRANCH   3   4
ENDBRANCH   2   3
TORSDOF 10
ENDMDL
MODEL      214
REMARK 921   NORMALIZED FREE ENERGY PREDICTED BY IDOCK:   -2.88 KCAL/MOL
REMARK 922        TOTAL FREE ENERGY PREDICTED BY IDOCK:   -6.62 KCAL/MOL
REMARK 923 INTER-LIGAND FREE ENERGY PREDICTED BY IDOCK:   -5.26 KCAL/MOL
REMARK 924 INTRA-LIGAND FREE ENERGY PREDICTED BY IDOCK:   -1.36 KCAL/MOL
REMARK 927      BINDING AFFINITY PREDICTED BY RF-SCORE:    0.00 PKD
ROOT
HETATM    1  C   UNL     1      -7.200  16.737  66.578  1.00  0.00    -0.278 C  
HETATM    2  C   UNL     1      -7.891  15.871  67.622  1.00  0.00    -0.164 C  
ENDROOT
BRANCH   2   3
HETATM    3  C   UNL     1      -7.385  14.424  67.610  1.00  0.00    -0.180 C  
BRANCH   3   4
HETATM    4  S   UNL     1      -8.459  13.430  66.514  1.00  0.00     0.487 SA 
BRANCH   4   5
HETATM    5  C   UNL     1      -9.496  12.626  67.716  1.00  0.00    -0.198 A  
HETATM    6  N   UNL     1      -9.575  11.279  67.617  1.00  0.00    -0.169 NA 
HETATM    7  C   UNL     1     -10.392  10.754  68.546  1.00  0.00    -0.185 A  
HETATM    8  C   UNL     1     -11.093  11.447  69.514  1.00  0.00    -0.211 A  
HETATM    9  N   UNL     1     -11.791  10.572  70.299  1.00  0.00    -0.303 NA 
HETATM   10  C   UNL     1     -10.926  12.839  69.563  1.00  0.00     0.111 A  
HETATM   11  N   UNL     1     -10.106  13.408  68.632  1.00  0.00    -0.200 NA 
HETATM   12  N   UNL     1     -11.533   9.340  69.872  1.00  0.00    -0.063 NA 
HETATM   13  N   UNL     1     -10.664   9.440  68.832  1.00  0.00    -0.208 NA 
BRANCH  10  14
HETATM   14  N   UNL     1     -11.543  13.606  70.573  1.00  0.00    -0.517 NA 
HETATM   15  H   UNL     1     -11.934  13.160  71.403  1.00  0.00     0.000 HD 
BRANCH  14  16
HETATM   16  C   UNL     1     -11.608  15.058  70.400  1.00  0.00    -0.287 C  
HETATM   17  C   UNL     1     -12.148  15.654  69.118  1.00  0.00    -0.249 C  
HETATM   18  C   UNL     1     -12.929  15.769  70.400  1.00  0.00     0.012 C  
BRANCH  17  19
HETATM   19  C   UNL     1     -11.403  16.817  68.511  1.00  0.00    -0.064 A  
HETATM   20  C   UNL     1     -10.657  18.146  66.614  1.00  0.00    -0.278 A  
HETATM   21  C   UNL     1     -11.374  17.065  67.130  1.00  0.00     0.506 A  
HETATM   22  F   UNL     1     -10.660  18.363  65.293  1.00  0.00    -0.296 F  
HETATM   23  C   UNL     1      -9.951  18.991  67.462  1.00  0.00    -0.349 A  
HETATM   24  C   UNL     1     -10.671  17.686  69.346  1.00  0.00     0.339 A  
HETATM   25  F   UNL     1      -9.263  20.024  66.962  1.00  0.00    -0.375 F  
HETATM   26  C   UNL     1      -9.951  18.766  68.830  1.00  0.00    -0.442 A  
ENDBRANCH  17  19
ENDBRANCH  14  16
ENDBRANCH  10  14
BRANCH  13  27
HETATM   27  C   UNL     1     -10.156   8.206  68.267  1.00  0.00    -0.197 C  
HETATM   28  C   UNL     1     -10.474   6.972  69.128  1.00  0.00    -0.218 C  
HETATM   29  C   UNL     1      -9.322   6.901  70.131  1.00  0.00    -0.159 C  
HETATM   30  H   UNL     1      -7.485   7.256  66.737  1.00  0.00     0.000 HD 
HETATM   31  C   UNL     1      -8.092   7.326  69.288  1.00  0.00    -0.124 C  
HETATM   32  H   UNL     1      -6.575   6.460  68.307  1.00  0.00     0.000 HD 
HETATM   33  O   UNL     1      -8.424   7.325  66.865  1.00  0.00    -0.115 OA 
HETATM   34  C   UNL     1      -8.646   8.097  68.062  1.00  0.00    -0.129 C  
HETATM   35  O   UNL     1      -7.328   6.199  68.823  1.00  0.00    -0.081 OA 
BRANCH  29  36
HETATM   36  O   UNL     1      -9.505   7.809  71.224  1.00  0.00    -0.152 OA 
BRANCH  36  37
HETATM   37  C   UNL     1      -8.273   8.289  71.785  1.00  0.00    -0.145 C  
BRANCH  37  38
HETATM   38  C   UNL     1      -8.035   7.629  73.141  1.00  0.00    -0.117 C  
HETATM   39  H   UNL     1      -9.038   7.357  74.806  1.00  0.00     0.000 HD 
HETATM   40  O   UNL     1      -9.187   7.767  73.963  1.00  0.00    -0.260 OA 
ENDBRANCH  37  38
ENDBRANCH  36  37
ENDBRANCH  29  36
ENDBRANCH  13  27
ENDBRANCH   4   5
ENDBRANCH   3   4
ENDBRANCH   2   3
TORSDOF 10
ENDMDL
MODEL      215
REMARK 921   NORMALIZED FREE ENERGY PREDICTED BY IDOCK:   -2.77 KCAL/MOL
REMARK 922        TOTAL FREE ENERGY PREDICTED BY IDOCK:   -6.46 KCAL/MOL
REMARK 923 INTER-LIGAND FREE ENERGY PREDICTED BY IDOCK:   -5.14 KCAL/MOL
REMARK 924 INTRA-LIGAND FREE ENERGY PREDICTED BY IDOCK:   -1.32 KCAL/MOL
REMARK 927      BINDING AFFINITY PREDICTED BY RF-SCORE:    0.00 PKD
ROOT
HETATM    1  C   UNL     1     -11.969  13.796  63.486  1.00  0.00    -0.197 C  
HETATM    2  C   UNL     1     -12.809  12.527  63.438  1.00  0.00    -0.174 C  
ENDROOT
BRANCH   2   3
HETATM    3  C   UNL     1     -11.964  11.259  63.597  1.00  0.00     0.406 C  
BRANCH   3   4
HETATM    4  S   UNL     1     -10.213  11.669  63.265  1.00  0.00    -0.375 SA 
BRANCH   4   5
HETATM    5  C   UNL     1      -9.503  11.388  64.873  1.00  0.00    -0.171 A  
HETATM    6  N   UNL     1     -10.269  11.756  65.926  1.00  0.00    -0.228 NA 
HETATM    7  C   UNL     1      -9.653  11.529  67.099  1.00  0.00    -0.177 A  
HETATM    8  C   UNL     1      -8.394  10.987  67.278  1.00  0.00    -0.125 A  
HETATM    9  N   UNL     1      -8.120  10.878  68.613  1.00  0.00    -0.135 NA 
HETATM   10  C   UNL     1      -7.684  10.604  66.130  1.00  0.00    -0.145 A  
HETATM   11  N   UNL     1      -8.277  10.823  64.921  1.00  0.00    -0.050 NA 
HETATM   12  N   UNL     1      -9.180  11.313  69.287  1.00  0.00     0.129 NA 
HETATM   13  N   UNL     1     -10.122  11.679  68.378  1.00  0.00    -0.201 NA 
BRANCH  10  14
HETATM   14  N   UNL     1      -6.430   9.968  66.235  1.00  0.00    -0.076 NA 
HETATM   15  H   UNL     1      -5.596  10.385  65.821  1.00  0.00     0.000 HD 
BRANCH  14  16
HETATM   16  C   UNL     1      -6.354   8.695  66.954  1.00  0.00    -0.060 C  
HETATM   17  C   UNL     1      -7.572   7.803  67.065  1.00  0.00    -0.100 C  
HETATM   18  C   UNL     1      -6.401   7.393  66.211  1.00  0.00    -0.041 C  
BRANCH  17  19
HETATM   19  C   UNL     1      -7.865   7.171  68.403  1.00  0.00    -0.122 A  
HETATM   20  C   UNL     1      -9.251   5.855  69.909  1.00  0.00    -0.146 A  
HETATM   21  C   UNL     1      -9.016   6.407  68.648  1.00  0.00    -0.125 A  
HETATM   22  F   UNL     1     -10.353   5.121  70.106  1.00  0.00    -0.298 F  
HETATM   23  C   UNL     1      -8.350   6.060  70.945  1.00  0.00    -0.126 A  
HETATM   24  C   UNL     1      -6.972   7.369  69.476  1.00  0.00    -0.057 A  
HETATM   25  F   UNL     1      -8.581   5.530  72.153  1.00  0.00    -0.122 F  
HETATM   26  C   UNL     1      -7.208   6.819  70.738  1.00  0.00    -0.070 A  
ENDBRANCH  17  19
ENDBRANCH  14  16
ENDBRANCH  10  14
BRANCH  13  27
HETATM   27  C   UNL     1     -11.414  12.093  68.888  1.00  0.00    -0.297 C  
HETATM   28  C   UNL     1     -12.133  13.094  67.969  1.00  0.00    -0.240 C  
HETATM   29  C   UNL     1     -11.605  14.461  68.406  1.00  0.00    -0.319 C  
HETATM   30  H   UNL     1     -12.667  12.839  71.761  1.00  0.00     0.000 HD 
HETATM   31  C   UNL     1     -11.488  14.320  69.945  1.00  0.00    -0.243 C  
HETATM   32  H   UNL     1     -12.538  14.807  71.580  1.00  0.00     0.000 HD 
HETATM   33  O   UNL     1     -12.650  12.400  70.918  1.00  0.00    -0.340 OA 
HETATM   34  C   UNL     1     -11.440  12.799  70.243  1.00  0.00     0.212 C  
HETATM   35  O   UNL     1     -12.611  14.894  70.638  1.00  0.00    -0.323 OA 
BRANCH  29  36
HETATM   36  O   UNL     1     -10.319  14.745  67.841  1.00  0.00    -0.237 OA 
BRANCH  36  37
HETATM   37  C   UNL     1      -9.496  15.578  68.672  1.00  0.00    -0.204 C  
BRANCH  37  38
HETATM   38  C   UNL     1      -8.456  16.293  67.813  1.00  0.00    -0.163 C  
HETATM   39  H   UNL     1      -7.006  15.789  66.590  1.00  0.00     0.000 HD 
HETATM   40  O   UNL     1      -7.653  15.343  67.124  1.00  0.00    -0.199 OA 
ENDBRANCH  37  38
ENDBRANCH  36  37
ENDBRANCH  29  36
ENDBRANCH  13  27
ENDBRANCH   4   5
ENDBRANCH   3   4
ENDBRANCH   2   3
TORSDOF 10
ENDMDL
MODEL      216
REMARK 921   NORMALIZED FREE ENERGY PREDICTED BY IDOCK:   -2.70 KCAL/MOL
REMARK 922        TOTAL FREE ENERGY PREDICTED BY IDOCK:   -6.34 KCAL/MOL
REMARK 923 INTER-LIGAND FREE ENERGY PREDICTED BY IDOCK:   -5.94 KCAL/MOL
REMARK 924 INTRA-LIGAND FREE ENERGY PREDICTED BY IDOCK:   -0.40 KCAL/MOL
REMARK 927      BINDING AFFINITY PREDICTED BY RF-SCORE:    0.00 PKD
ROOT
HETATM    1  C   UNL     1     -10.380   5.364  73.420  1.00  0.00    -0.244 C  
HETATM    2  C   UNL     1     -10.427   3.849  73.566  1.00  0.00    -0.257 C  
ENDROOT
BRANCH   2   3
HETATM    3  C   UNL     1     -10.429   3.130  72.213  1.00  0.00     0.043 C  
BRANCH   3   4
HETATM    4  S   UNL     1      -8.775   3.298  71.450  1.00  0.00    -0.077 SA 
BRANCH   4   5
HETATM    5  C   UNL     1      -9.119   4.509  70.192  1.00  0.00    -0.101 A  
HETATM    6  N   UNL     1      -9.241   4.029  68.933  1.00  0.00    -0.135 NA 
HETATM    7  C   UNL     1      -9.480   5.007  68.043  1.00  0.00    -0.131 A  
HETATM    8  C   UNL     1      -9.599   6.357  68.314  1.00  0.00    -0.123 A  
HETATM    9  N   UNL     1      -9.874   7.040  67.162  1.00  0.00    -0.160 NA 
HETATM   10  C   UNL     1      -9.491   6.761  69.653  1.00  0.00    -0.146 A  
HETATM   11  N   UNL     1      -9.245   5.795  70.584  1.00  0.00    -0.150 NA 
HETATM   12  N   UNL     1      -9.957   6.159  66.171  1.00  0.00     0.009 NA 
HETATM   13  N   UNL     1      -9.750   4.924  66.701  1.00  0.00    -0.165 NA 
BRANCH  10  14
HETATM   14  N   UNL     1      -9.684   8.110  70.019  1.00  0.00    -0.172 NA 
HETATM   15  H   UNL     1      -9.970   8.359  70.965  1.00  0.00     0.000 HD 
BRANCH  14  16
HETATM   16  C   UNL     1      -9.461   9.143  69.005  1.00  0.00    -0.152 C  
HETATM   17  C   UNL     1      -9.824  10.585  69.288  1.00  0.00    -0.225 C  
HETATM   18  C   UNL     1      -8.381  10.168  69.182  1.00  0.00    -0.154 C  
BRANCH  17  19
HETATM   19  C   UNL     1     -10.529  11.362  68.205  1.00  0.00    -0.212 A  
HETATM   20  C   UNL     1     -11.802  13.274  67.402  1.00  0.00    -0.366 A  
HETATM   21  C   UNL     1     -11.149  12.600  68.435  1.00  0.00    -0.297 A  
HETATM   22  F   UNL     1     -12.373  14.459  67.652  1.00  0.00    -0.378 F  
HETATM   23  C   UNL     1     -11.857  12.724  66.127  1.00  0.00    -0.425 A  
HETATM   24  C   UNL     1     -10.607  10.825  66.903  1.00  0.00    -0.312 A  
HETATM   25  F   UNL     1     -12.487  13.374  65.141  1.00  0.00    -0.402 F  
HETATM   26  C   UNL     1     -11.264  11.498  65.870  1.00  0.00    -0.239 A  
ENDBRANCH  17  19
ENDBRANCH  14  16
ENDBRANCH  10  14
BRANCH  13  27
HETATM   27  C   UNL     1      -9.896   3.787  65.816  1.00  0.00    -0.088 C  
HETATM   28  C   UNL     1      -8.906   2.651  66.125  1.00  0.00    -0.136 C  
HETATM   29  C   UNL     1      -7.651   3.013  65.331  1.00  0.00    -0.080 C  
HETATM   30  H   UNL     1     -10.459   3.318  62.679  1.00  0.00     0.000 HD 
HETATM   31  C   UNL     1      -8.221   3.604  64.017  1.00  0.00    -0.090 C  
HETATM   32  H   UNL     1      -8.579   3.009  62.137  1.00  0.00     0.000 HD 
HETATM   33  O   UNL     1     -10.593   3.169  63.608  1.00  0.00    -0.217 OA 
HETATM   34  C   UNL     1      -9.681   4.027  64.323  1.00  0.00    -0.169 C  
HETATM   35  O   UNL     1      -8.230   2.647  62.942  1.00  0.00    -0.072 OA 
BRANCH  29  36
HETATM   36  O   UNL     1      -6.856   3.997  66.006  1.00  0.00    -0.055 OA 
BRANCH  36  37
HETATM   37  C   UNL     1      -5.476   3.623  66.147  1.00  0.00    -0.017 C  
BRANCH  37  38
HETATM   38  C   UNL     1      -5.204   3.197  67.587  1.00  0.00    -0.012 C  
HETATM   39  H   UNL     1      -5.924   3.601  69.369  1.00  0.00     0.000 HD 
HETATM   40  O   UNL     1      -6.094   3.867  68.472  1.00  0.00    -0.029 OA 
ENDBRANCH  37  38
ENDBRANCH  36  37
ENDBRANCH  29  36
ENDBRANCH  13  27
ENDBRANCH   4   5
ENDBRANCH   3   4
ENDBRANCH   2   3
TORSDOF 10
ENDMDL
MODEL      217
REMARK 921   NORMALIZED FREE ENERGY PREDICTED BY IDOCK:   -2.69 KCAL/MOL
REMARK 922        TOTAL FREE ENERGY PREDICTED BY IDOCK:   -6.33 KCAL/MOL
REMARK 923 INTER-LIGAND FREE ENERGY PREDICTED BY IDOCK:   -5.05 KCAL/MOL
REMARK 924 INTRA-LIGAND FREE ENERGY PREDICTED BY IDOCK:   -1.28 KCAL/MOL
REMARK 927      BINDING AFFINITY PREDICTED BY RF-SCORE:    0.00 PKD
ROOT
HETATM    1  C   UNL     1      -8.941  11.146  62.442  1.00  0.00    -0.321 C  
HETATM    2  C   UNL     1      -9.003  10.010  63.454  1.00  0.00    -0.277 C  
ENDROOT
BRANCH   2   3
HETATM    3  C   UNL     1      -7.850   9.014  63.288  1.00  0.00    -0.135 C  
BRANCH   3   4
HETATM    4  S   UNL     1      -6.286   9.832  63.768  1.00  0.00    -0.124 SA 
BRANCH   4   5
HETATM    5  C   UNL     1      -6.620  10.192  65.479  1.00  0.00    -0.118 A  
HETATM    6  N   UNL     1      -7.430  11.250  65.709  1.00  0.00     0.167 NA 
HETATM    7  C   UNL     1      -7.615  11.466  67.023  1.00  0.00    -0.151 A  
HETATM    8  C   UNL     1      -7.074  10.733  68.062  1.00  0.00    -0.081 A  
HETATM    9  N   UNL     1      -7.512  11.229  69.259  1.00  0.00    -0.083 NA 
HETATM   10  C   UNL     1      -6.271   9.632  67.730  1.00  0.00    -0.053 A  
HETATM   11  N   UNL     1      -6.058   9.385  66.405  1.00  0.00    -0.059 NA 
HETATM   12  N   UNL     1      -8.336  12.241  69.007  1.00  0.00     0.247 NA 
HETATM   13  N   UNL     1      -8.427  12.371  67.657  1.00  0.00    -0.158 NA 
BRANCH  10  14
HETATM   14  N   UNL     1      -5.751   8.788  68.733  1.00  0.00    -0.040 NA 
HETATM   15  H   UNL     1      -4.827   8.955  69.130  1.00  0.00     0.000 HD 
BRANCH  14  16
HETATM   16  C   UNL     1      -6.572   7.664  69.189  1.00  0.00    -0.040 C  
HETATM   17  C   UNL     1      -5.985   6.271  69.272  1.00  0.00    -0.021 C  
HETATM   18  C   UNL     1      -6.327   7.032  70.526  1.00  0.00    -0.039 C  
BRANCH  17  19
HETATM   19  C   UNL     1      -6.820   5.122  68.764  1.00  0.00    -0.051 A  
HETATM   20  C   UNL     1      -8.190   4.033  67.073  1.00  0.00    -0.100 A  
HETATM   21  C   UNL     1      -7.413   5.115  67.492  1.00  0.00    -0.083 A  
HETATM   22  F   UNL     1      -8.730   4.052  65.848  1.00  0.00    -0.111 F  
HETATM   23  C   UNL     1      -8.396   2.948  67.914  1.00  0.00    -0.080 A  
HETATM   24  C   UNL     1      -7.053   4.009  69.599  1.00  0.00    -0.046 A  
HETATM   25  F   UNL     1      -9.144   1.914  67.508  1.00  0.00    -0.133 F  
HETATM   26  C   UNL     1      -7.834   2.929  69.181  1.00  0.00    -0.052 A  
ENDBRANCH  17  19
ENDBRANCH  14  16
ENDBRANCH  10  14
BRANCH  13  27
HETATM   27  C   UNL     1      -9.358  13.354  67.144  1.00  0.00    -0.240 C  
HETATM   28  C   UNL     1     -10.670  13.420  67.945  1.00  0.00    -0.259 C  
HETATM   29  C   UNL     1     -11.560  12.353  67.306  1.00  0.00    -0.365 C  
HETATM   30  H   UNL     1     -10.320  14.378  64.244  1.00  0.00     0.000 HD 
HETATM   31  C   UNL     1     -11.224  12.467  65.798  1.00  0.00    -0.320 C  
HETATM   32  H   UNL     1     -11.989  13.315  64.151  1.00  0.00     0.000 HD 
HETATM   33  O   UNL     1     -10.016  14.489  65.138  1.00  0.00    -0.354 OA 
HETATM   34  C   UNL     1      -9.848  13.175  65.707  1.00  0.00    -0.203 C  
HETATM   35  O   UNL     1     -12.195  13.245  65.075  1.00  0.00    -0.384 OA 
BRANCH  29  36
HETATM   36  O   UNL     1     -11.243  11.038  67.780  1.00  0.00    -0.274 OA 
BRANCH  36  37
HETATM   37  C   UNL     1     -11.828  10.729  69.055  1.00  0.00    -0.254 C  
BRANCH  37  38
HETATM   38  C   UNL     1     -11.009   9.643  69.747  1.00  0.00    -0.240 C  
HETATM   39  H   UNL     1     -10.134   7.959  69.243  1.00  0.00     0.000 HD 
HETATM   40  O   UNL     1     -10.644   8.635  68.812  1.00  0.00    -0.211 OA 
ENDBRANCH  37  38
ENDBRANCH  36  37
ENDBRANCH  29  36
ENDBRANCH  13  27
ENDBRANCH   4   5
ENDBRANCH   3   4
ENDBRANCH   2   3
TORSDOF 10
ENDMDL
MODEL      218
REMARK 921   NORMALIZED FREE ENERGY PREDICTED BY IDOCK:   -2.49 KCAL/MOL
REMARK 922        TOTAL FREE ENERGY PREDICTED BY IDOCK:   -6.01 KCAL/MOL
REMARK 923 INTER-LIGAND FREE ENERGY PREDICTED BY IDOCK:   -5.64 KCAL/MOL
REMARK 924 INTRA-LIGAND FREE ENERGY PREDICTED BY IDOCK:   -0.37 KCAL/MOL
REMARK 927      BINDING AFFINITY PREDICTED BY RF-SCORE:    0.00 PKD
ROOT
HETATM    1  C   UNL     1      -6.979  19.876  65.152  1.00  0.00    -0.204 C  
HETATM    2  C   UNL     1      -6.984  19.248  66.539  1.00  0.00    -0.221 C  
ENDROOT
BRANCH   2   3
HETATM    3  C   UNL     1      -7.706  17.896  66.568  1.00  0.00    -0.257 C  
BRANCH   3   4
HETATM    4  S   UNL     1      -9.346  18.085  65.780  1.00  0.00     0.562 SA 
BRANCH   4   5
HETATM    5  C   UNL     1     -10.283  16.874  66.687  1.00  0.00    -0.312 A  
HETATM    6  N   UNL     1     -10.656  15.777  65.990  1.00  0.00    -0.321 NA 
HETATM    7  C   UNL     1     -11.375  14.924  66.740  1.00  0.00    -0.328 A  
HETATM    8  C   UNL     1     -11.724  15.088  68.068  1.00  0.00    -0.298 A  
HETATM    9  N   UNL     1     -12.429  13.999  68.501  1.00  0.00     0.033 NA 
HETATM   10  C   UNL     1     -11.266  16.241  68.721  1.00  0.00    -0.343 A  
HETATM   11  N   UNL     1     -10.536  17.132  67.989  1.00  0.00    -0.363 NA 
HETATM   12  N   UNL     1     -12.515  13.137  67.492  1.00  0.00    -0.027 NA 
HETATM   13  N   UNL     1     -11.854  13.677  66.434  1.00  0.00    -0.376 NA 
BRANCH  10  14
HETATM   14  N   UNL     1     -11.511  16.439  70.096  1.00  0.00    -0.423 NA 
HETATM   15  H   UNL     1     -11.052  17.193  70.606  1.00  0.00     0.000 HD 
BRANCH  14  16
HETATM   16  C   UNL     1     -12.442  15.533  70.773  1.00  0.00    -0.440 C  
HETATM   17  C   UNL     1     -11.926  14.480  71.731  1.00  0.00    -0.288 C  
HETATM   18  C   UNL     1     -12.703  15.665  72.244  1.00  0.00    -0.513 C  
BRANCH  17  19
HETATM   19  C   UNL     1     -12.517  13.095  71.644  1.00  0.00    -0.119 A  
HETATM   20  C   UNL     1     -12.561  10.821  70.781  1.00  0.00    -0.383 A  
HETATM   21  C   UNL     1     -11.969  12.083  70.840  1.00  0.00    -0.025 A  
HETATM   22  F   UNL     1     -12.007   9.873  70.014  1.00  0.00    -0.257 F  
HETATM   23  C   UNL     1     -13.711  10.548  71.511  1.00  0.00     0.155 A  
HETATM   24  C   UNL     1     -13.688  12.792  72.368  1.00  0.00    -0.457 A  
HETATM   25  F   UNL     1     -14.276   9.336  71.449  1.00  0.00    -0.372 F  
HETATM   26  C   UNL     1     -14.282  11.529  72.306  1.00  0.00     0.991 A  
ENDBRANCH  17  19
ENDBRANCH  14  16
ENDBRANCH  10  14
BRANCH  13  27
HETATM   27  C   UNL     1     -11.728  12.862  65.243  1.00  0.00    -0.364 C  
HETATM   28  C   UNL     1     -11.278  11.422  65.540  1.00  0.00    -0.140 C  
HETATM   29  C   UNL     1      -9.751  11.497  65.561  1.00  0.00    -0.230 C  
HETATM   30  H   UNL     1     -10.650  13.267  62.234  1.00  0.00     0.000 HD 
HETATM   31  C   UNL     1      -9.430  12.502  64.426  1.00  0.00     0.373 C  
HETATM   32  H   UNL     1      -8.860  12.463  62.505  1.00  0.00     0.000 HD 
HETATM   33  O   UNL     1     -11.274  12.984  62.893  1.00  0.00     0.319 OA 
HETATM   34  C   UNL     1     -10.725  13.318  64.183  1.00  0.00    -0.326 C  
HETATM   35  O   UNL     1      -9.057  11.847  63.200  1.00  0.00    -0.147 OA 
BRANCH  29  36
HETATM   36  O   UNL     1      -9.256  11.994  66.811  1.00  0.00    -0.190 OA 
BRANCH  36  37
HETATM   37  C   UNL     1      -9.312  11.033  67.876  1.00  0.00    -0.158 C  
BRANCH  37  38
HETATM   38  C   UNL     1      -7.914  10.819  68.450  1.00  0.00    -0.124 C  
HETATM   39  H   UNL     1      -6.071  11.300  67.970  1.00  0.00     0.000 HD 
HETATM   40  O   UNL     1      -6.941  11.433  67.612  1.00  0.00    -0.073 OA 
ENDBRANCH  37  38
ENDBRANCH  36  37
ENDBRANCH  29  36
ENDBRANCH  13  27
ENDBRANCH   4   5
ENDBRANCH   3   4
ENDBRANCH   2   3
TORSDOF 10
ENDMDL
MODEL      219
REMARK 921   NORMALIZED FREE ENERGY PREDICTED BY IDOCK:   -2.24 KCAL/MOL
REMARK 922        TOTAL FREE ENERGY PREDICTED BY IDOCK:   -5.62 KCAL/MOL
REMARK 923 INTER-LIGAND FREE ENERGY PREDICTED BY IDOCK:   -5.70 KCAL/MOL
REMARK 924 INTRA-LIGAND FREE ENERGY PREDICTED BY IDOCK:    0.08 KCAL/MOL
REMARK 927      BINDING AFFINITY PREDICTED BY RF-SCORE:    0.00 PKD
ROOT
HETATM    1  C   UNL     1      -7.199   8.403  69.038  1.00  0.00    -0.070 C  
HETATM    2  C   UNL     1      -7.551   6.972  68.656  1.00  0.00    -0.108 C  
ENDROOT
BRANCH   2   3
HETATM    3  C   UNL     1      -8.791   6.895  67.758  1.00  0.00    -0.119 C  
BRANCH   3   4
HETATM    4  S   UNL     1      -9.122   8.553  67.061  1.00  0.00    -0.148 SA 
BRANCH   4   5
HETATM    5  C   UNL     1     -10.033   9.292  68.400  1.00  0.00    -0.176 A  
HETATM    6  N   UNL     1     -10.257  10.621  68.294  1.00  0.00    -0.160 NA 
HETATM    7  C   UNL     1     -10.931  11.103  69.352  1.00  0.00    -0.244 A  
HETATM    8  C   UNL     1     -11.372  10.383  70.446  1.00  0.00    -0.337 A  
HETATM    9  N   UNL     1     -12.048  11.206  71.304  1.00  0.00    -0.194 NA 
HETATM   10  C   UNL     1     -11.123   9.003  70.456  1.00  0.00    -0.254 A  
HETATM   11  N   UNL     1     -10.437   8.479  69.399  1.00  0.00    -0.220 NA 
HETATM   12  N   UNL     1     -12.070  12.425  70.772  1.00  0.00    -0.264 NA 
HETATM   13  N   UNL     1     -11.423  12.363  69.578  1.00  0.00    -0.264 NA 
BRANCH  10  14
HETATM   14  N   UNL     1     -11.614   8.188  71.497  1.00  0.00    -0.265 NA 
HETATM   15  H   UNL     1     -12.228   8.570  72.216  1.00  0.00     0.000 HD 
BRANCH  14  16
HETATM   16  C   UNL     1     -11.218   6.778  71.521  1.00  0.00    -0.260 C  
HETATM   17  C   UNL     1     -11.165   6.018  72.829  1.00  0.00    -0.299 C  
HETATM   18  C   UNL     1     -12.226   5.706  71.808  1.00  0.00     0.617 C  
BRANCH  17  19
HETATM   19  C   UNL     1      -9.980   5.117  73.075  1.00  0.00    -0.190 A  
HETATM   20  C   UNL     1      -7.654   4.728  73.672  1.00  0.00    -0.091 A  
HETATM   21  C   UNL     1      -8.724   5.601  73.471  1.00  0.00    -0.120 A  
HETATM   22  F   UNL     1      -6.472   5.221  74.062  1.00  0.00    -0.062 F  
HETATM   23  C   UNL     1      -7.813   3.362  73.473  1.00  0.00    -0.070 A  
HETATM   24  C   UNL     1     -10.111   3.727  72.874  1.00  0.00    -0.222 A  
HETATM   25  F   UNL     1      -6.783   2.530  73.664  1.00  0.00    -0.019 F  
HETATM   26  C   UNL     1      -9.039   2.854  73.071  1.00  0.00    -0.104 A  
ENDBRANCH  17  19
ENDBRANCH  14  16
ENDBRANCH  10  14
BRANCH  13  27
HETATM   27  C   UNL     1     -11.411  13.562  68.765  1.00  0.00    -0.311 C  
HETATM   28  C   UNL     1     -10.418  13.487  67.594  1.00  0.00    -0.239 C  
HETATM   29  C   UNL     1      -9.092  13.966  68.188  1.00  0.00    -0.193 C  
HETATM   30  H   UNL     1     -11.570  16.739  69.276  1.00  0.00     0.000 HD 
HETATM   31  C   UNL     1      -9.524  15.102  69.149  1.00  0.00    -0.221 C  
HETATM   32  H   UNL     1      -9.626  17.103  69.157  1.00  0.00     0.000 HD 
HETATM   33  O   UNL     1     -11.808  15.924  68.850  1.00  0.00    -0.397 OA 
HETATM   34  C   UNL     1     -11.027  14.872  69.452  1.00  0.00    -0.271 C  
HETATM   35  O   UNL     1      -9.362  16.408  68.567  1.00  0.00    -0.209 OA 
BRANCH  29  36
HETATM   36  O   UNL     1      -8.428  12.929  68.921  1.00  0.00     0.094 OA 
BRANCH  36  37
HETATM   37  C   UNL     1      -7.056  12.742  68.539  1.00  0.00    -0.101 C  
BRANCH  37  38
HETATM   38  C   UNL     1      -6.141  13.201  69.671  1.00  0.00    -0.120 C  
HETATM   39  H   UNL     1      -4.830  14.632  69.973  1.00  0.00     0.000 HD 
HETATM   40  O   UNL     1      -5.400  14.347  69.268  1.00  0.00    -0.085 OA 
ENDBRANCH  37  38
ENDBRANCH  36  37
ENDBRANCH  29  36
ENDBRANCH  13  27
ENDBRANCH   4   5
ENDBRANCH   3   4
ENDBRANCH   2   3
TORSDOF 10
ENDMDL
MODEL      220
REMARK 921   NORMALIZED FREE ENERGY PREDICTED BY IDOCK:   -2.08 KCAL/MOL
REMARK 922        TOTAL FREE ENERGY PREDICTED BY IDOCK:   -5.35 KCAL/MOL
REMARK 923 INTER-LIGAND FREE ENERGY PREDICTED BY IDOCK:   -5.47 KCAL/MOL
REMARK 924 INTRA-LIGAND FREE ENERGY PREDICTED BY IDOCK:    0.12 KCAL/MOL
REMARK 927      BINDING AFFINITY PREDICTED BY RF-SCORE:    0.00 PKD
ROOT
HETATM    1  C   UNL     1      -5.137   5.524  67.446  1.00  0.00    -0.004 C  
HETATM    2  C   UNL     1      -5.988   6.744  67.770  1.00  0.00    -0.027 C  
ENDROOT
BRANCH   2   3
HETATM    3  C   UNL     1      -7.009   6.467  68.879  1.00  0.00    -0.076 C  
BRANCH   3   4
HETATM    4  S   UNL     1      -8.690   6.768  68.225  1.00  0.00    -0.122 SA 
BRANCH   4   5
HETATM    5  C   UNL     1      -8.313   7.180  66.535  1.00  0.00    -0.117 A  
HETATM    6  N   UNL     1      -7.700   6.211  65.817  1.00  0.00    -0.091 NA 
HETATM    7  C   UNL     1      -7.433   6.609  64.562  1.00  0.00    -0.094 A  
HETATM    8  C   UNL     1      -7.724   7.841  64.008  1.00  0.00    -0.126 A  
HETATM    9  N   UNL     1      -7.333   7.867  62.698  1.00  0.00    -0.096 NA 
HETATM   10  C   UNL     1      -8.391   8.774  64.816  1.00  0.00    -0.168 A  
HETATM   11  N   UNL     1      -8.675   8.405  66.099  1.00  0.00    -0.142 NA 
HETATM   12  N   UNL     1      -6.824   6.676  62.398  1.00  0.00    -0.045 NA 
HETATM   13  N   UNL     1      -6.909   5.901  63.511  1.00  0.00    -0.036 NA 
BRANCH  10  14
HETATM   14  N   UNL     1      -8.796  10.021  64.297  1.00  0.00    -0.200 NA 
HETATM   15  H   UNL     1      -8.375  10.396  63.448  1.00  0.00     0.000 HD 
BRANCH  14  16
HETATM   16  C   UNL     1      -9.837  10.765  65.010  1.00  0.00    -0.288 C  
HETATM   17  C   UNL     1      -9.463  11.795  66.055  1.00  0.00    -0.245 C  
HETATM   18  C   UNL     1     -10.055  12.223  64.739  1.00  0.00    -0.271 C  
BRANCH  17  19
HETATM   19  C   UNL     1     -10.247  11.809  67.344  1.00  0.00    -0.220 A  
HETATM   20  C   UNL     1     -10.810  10.915  69.536  1.00  0.00    -0.238 A  
HETATM   21  C   UNL     1     -10.048  10.869  68.367  1.00  0.00    -0.196 A  
HETATM   22  F   UNL     1     -10.587  10.011  70.498  1.00  0.00    -0.313 F  
HETATM   23  C   UNL     1     -11.785  11.890  69.702  1.00  0.00    -0.343 A  
HETATM   24  C   UNL     1     -11.249  12.783  67.537  1.00  0.00    -0.332 A  
HETATM   25  F   UNL     1     -12.514  11.928  70.824  1.00  0.00    -0.405 F  
HETATM   26  C   UNL     1     -12.013  12.827  68.706  1.00  0.00    -0.278 A  
ENDBRANCH  17  19
ENDBRANCH  14  16
ENDBRANCH  10  14
BRANCH  13  27
HETATM   27  C   UNL     1      -6.503   4.516  63.390  1.00  0.00    -0.026 C  
HETATM   28  C   UNL     1      -7.352   3.724  62.380  1.00  0.00    -0.044 C  
HETATM   29  C   UNL     1      -8.546   3.226  63.195  1.00  0.00    -0.089 C  
HETATM   30  H   UNL     1      -5.523   2.181  65.381  1.00  0.00     0.000 HD 
HETATM   31  C   UNL     1      -7.918   2.875  64.567  1.00  0.00    -0.082 C  
HETATM   32  H   UNL     1      -7.265   1.254  65.548  1.00  0.00     0.000 HD 
HETATM   33  O   UNL     1      -5.477   2.719  64.600  1.00  0.00    -0.009 OA 
HETATM   34  C   UNL     1      -6.577   3.650  64.647  1.00  0.00    -0.043 C  
HETATM   35  O   UNL     1      -7.650   1.468  64.707  1.00  0.00    -0.056 OA 
BRANCH  29  36
HETATM   36  O   UNL     1      -9.544   4.241  63.358  1.00  0.00    -0.147 OA 
BRANCH  36  37
HETATM   37  C   UNL     1     -10.837   3.726  63.711  1.00  0.00    -0.173 C  
BRANCH  37  38
HETATM   38  C   UNL     1     -10.885   2.225  63.435  1.00  0.00    -0.192 C  
HETATM   39  H   UNL     1     -12.049   0.976  62.465  1.00  0.00     0.000 HD 
HETATM   40  O   UNL     1     -12.020   1.910  62.637  1.00  0.00    -0.134 OA 
ENDBRANCH  37  38
ENDBRANCH  36  37
ENDBRANCH  29  36
ENDBRANCH  13  27
ENDBRANCH   4   5
ENDBRANCH   3   4
ENDBRANCH   2   3
TORSDOF 10
ENDMDL
MODEL      221
REMARK 921   NORMALIZED FREE ENERGY PREDICTED BY IDOCK:   -1.99 KCAL/MOL
REMARK 922        TOTAL FREE ENERGY PREDICTED BY IDOCK:   -5.23 KCAL/MOL
REMARK 923 INTER-LIGAND FREE ENERGY PREDICTED BY IDOCK:   -6.52 KCAL/MOL
REMARK 924 INTRA-LIGAND FREE ENERGY PREDICTED BY IDOCK:    1.29 KCAL/MOL
REMARK 927      BINDING AFFINITY PREDICTED BY RF-SCORE:    0.00 PKD
ROOT
HETATM    1  C   UNL     1      -5.823  16.515  69.417  1.00  0.00    -0.167 C  
HETATM    2  C   UNL     1      -5.338  15.503  68.388  1.00  0.00    -0.106 C  
ENDROOT
BRANCH   2   3
HETATM    3  C   UNL     1      -5.367  14.067  68.921  1.00  0.00    -0.079 C  
BRANCH   3   4
HETATM    4  S   UNL     1      -6.836  13.862  69.992  1.00  0.00     0.283 SA 
BRANCH   4   5
HETATM    5  C   UNL     1      -8.112  13.689  68.764  1.00  0.00     0.001 A  
HETATM    6  N   UNL     1      -8.449  14.820  68.103  1.00  0.00    -0.143 NA 
HETATM    7  C   UNL     1      -9.431  14.607  67.210  1.00  0.00    -0.219 A  
HETATM    8  C   UNL     1     -10.061  13.405  66.949  1.00  0.00    -0.255 A  
HETATM    9  N   UNL     1     -10.985  13.570  65.955  1.00  0.00    -0.278 NA 
HETATM   10  C   UNL     1      -9.625  12.277  67.659  1.00  0.00    -0.191 A  
HETATM   11  N   UNL     1      -8.632  12.456  68.577  1.00  0.00    -0.112 NA 
HETATM   12  N   UNL     1     -10.941  14.839  65.559  1.00  0.00    -0.329 NA 
HETATM   13  N   UNL     1      -9.982  15.464  66.293  1.00  0.00    -0.269 NA 
BRANCH  10  14
HETATM   14  N   UNL     1     -10.162  11.001  67.390  1.00  0.00    -0.189 NA 
HETATM   15  H   UNL     1     -11.096  10.748  67.712  1.00  0.00     0.000 HD 
BRANCH  14  16
HETATM   16  C   UNL     1      -9.345  10.049  66.634  1.00  0.00    -0.166 C  
HETATM   17  C   UNL     1      -9.894   8.685  66.274  1.00  0.00    -0.320 C  
HETATM   18  C   UNL     1      -9.672   9.724  65.208  1.00  0.00    -0.371 C  
BRANCH  17  19
HETATM   19  C   UNL     1      -8.988   7.491  66.449  1.00  0.00    -0.196 A  
HETATM   20  C   UNL     1      -6.833   6.375  66.275  1.00  0.00    -0.057 A  
HETATM   21  C   UNL     1      -7.627   7.511  66.109  1.00  0.00    -0.088 A  
HETATM   22  F   UNL     1      -5.534   6.432  65.953  1.00  0.00    -0.012 F  
HETATM   23  C   UNL     1      -7.381   5.200  66.772  1.00  0.00    -0.086 A  
HETATM   24  C   UNL     1      -9.519   6.282  66.945  1.00  0.00    -0.157 A  
HETATM   25  F   UNL     1      -6.616   4.113  66.927  1.00  0.00    -0.041 F  
HETATM   26  C   UNL     1      -8.726   5.144  67.107  1.00  0.00    -0.103 A  
ENDBRANCH  17  19
ENDBRANCH  14  16
ENDBRANCH  10  14
BRANCH  13  27
HETATM   27  C   UNL     1      -9.684  16.843  65.962  1.00  0.00    -0.233 C  
HETATM   28  C   UNL     1      -8.538  17.431  66.801  1.00  0.00    -0.284 C  
HETATM   29  C   UNL     1      -9.222  17.959  68.063  1.00  0.00    -0.267 C  
HETATM   30  H   UNL     1     -11.366  19.489  65.221  1.00  0.00     0.000 HD 
HETATM   31  C   UNL     1     -10.557  18.536  67.527  1.00  0.00    -0.423 C  
HETATM   32  H   UNL     1     -11.325  20.316  67.020  1.00  0.00     0.000 HD 
HETATM   33  O   UNL     1     -10.671  18.851  65.104  1.00  0.00    -0.438 OA 
HETATM   34  C   UNL     1     -10.802  17.867  66.150  1.00  0.00     0.058 C  
HETATM   35  O   UNL     1     -10.507  19.963  67.348  1.00  0.00    -0.421 OA 
BRANCH  29  36
HETATM   36  O   UNL     1      -9.484  16.914  69.008  1.00  0.00    -0.256 OA 
BRANCH  36  37
HETATM   37  C   UNL     1     -10.787  16.993  69.606  1.00  0.00     0.030 C  
BRANCH  37  38
HETATM   38  C   UNL     1     -11.696  15.926  69.001  1.00  0.00    -0.370 C  
HETATM   39  H   UNL     1     -12.070  14.020  69.289  1.00  0.00     0.000 HD 
HETATM   40  O   UNL     1     -11.504  14.684  69.666  1.00  0.00    -0.262 OA 
ENDBRANCH  37  38
ENDBRANCH  36  37
ENDBRANCH  29  36
ENDBRANCH  13  27
ENDBRANCH   4   5
ENDBRANCH   3   4
ENDBRANCH   2   3
TORSDOF 10
ENDMDL
MODEL      222
REMARK 921   NORMALIZED FREE ENERGY PREDICTED BY IDOCK:   -1.78 KCAL/MOL
REMARK 922        TOTAL FREE ENERGY PREDICTED BY IDOCK:   -4.89 KCAL/MOL
REMARK 923 INTER-LIGAND FREE ENERGY PREDICTED BY IDOCK:   -5.42 KCAL/MOL
REMARK 924 INTRA-LIGAND FREE ENERGY PREDICTED BY IDOCK:    0.53 KCAL/MOL
REMARK 927      BINDING AFFINITY PREDICTED BY RF-SCORE:    0.00 PKD
ROOT
HETATM    1  C   UNL     1      -5.211   5.689  67.863  1.00  0.00    -0.004 C  
HETATM    2  C   UNL     1      -6.206   6.812  68.128  1.00  0.00    -0.033 C  
ENDROOT
BRANCH   2   3
HETATM    3  C   UNL     1      -7.287   6.410  69.137  1.00  0.00    -0.093 C  
BRANCH   3   4
HETATM    4  S   UNL     1      -8.927   6.577  68.345  1.00  0.00    -0.124 SA 
BRANCH   4   5
HETATM    5  C   UNL     1      -8.448   7.096  66.711  1.00  0.00    -0.121 A  
HETATM    6  N   UNL     1      -7.746   6.193  65.990  1.00  0.00    -0.090 NA 
HETATM    7  C   UNL     1      -7.407   6.670  64.780  1.00  0.00    -0.084 A  
HETATM    8  C   UNL     1      -7.709   7.920  64.272  1.00  0.00    -0.128 A  
HETATM    9  N   UNL     1      -7.227   8.033  62.998  1.00  0.00    -0.087 NA 
HETATM   10  C   UNL     1      -8.469   8.780  65.078  1.00  0.00    -0.175 A  
HETATM   11  N   UNL     1      -8.828   8.330  66.315  1.00  0.00    -0.152 NA 
HETATM   12  N   UNL     1      -6.649   6.881  62.673  1.00  0.00    -0.046 NA 
HETATM   13  N   UNL     1      -6.781   6.042  63.734  1.00  0.00    -0.036 NA 
BRANCH  10  14
HETATM   14  N   UNL     1      -8.887  10.039  64.598  1.00  0.00    -0.182 NA 
HETATM   15  H   UNL     1      -8.770  10.289  63.616  1.00  0.00     0.000 HD 
BRANCH  14  16
HETATM   16  C   UNL     1      -9.493  10.977  65.545  1.00  0.00    -0.216 C  
HETATM   17  C   UNL     1     -10.277  12.171  65.045  1.00  0.00    -0.312 C  
HETATM   18  C   UNL     1     -10.980  11.027  65.726  1.00  0.00    -0.102 C  
BRANCH  17  19
HETATM   19  C   UNL     1     -10.045  13.501  65.719  1.00  0.00    -0.298 A  
HETATM   20  C   UNL     1     -10.242  15.923  65.835  1.00  0.00    -0.352 A  
HETATM   21  C   UNL     1     -10.495  14.716  65.182  1.00  0.00    -0.440 A  
HETATM   22  F   UNL     1     -10.697  17.064  65.302  1.00  0.00    -0.372 F  
HETATM   23  C   UNL     1      -9.531  15.941  67.028  1.00  0.00    -0.222 A  
HETATM   24  C   UNL     1      -9.319  13.550  66.927  1.00  0.00    -0.255 A  
HETATM   25  F   UNL     1      -9.289  17.102  67.650  1.00  0.00    -0.230 F  
HETATM   26  C   UNL     1      -9.063  14.759  67.580  1.00  0.00    -0.191 A  
ENDBRANCH  17  19
ENDBRANCH  14  16
ENDBRANCH  10  14
BRANCH  13  27
HETATM   27  C   UNL     1      -6.311   4.681  63.569  1.00  0.00    -0.026 C  
HETATM   28  C   UNL     1      -6.917   3.977  62.343  1.00  0.00    -0.031 C  
HETATM   29  C   UNL     1      -8.230   3.383  62.856  1.00  0.00    -0.073 C  
HETATM   30  H   UNL     1      -5.659   2.181  65.493  1.00  0.00     0.000 HD 
HETATM   31  C   UNL     1      -7.871   2.912  64.288  1.00  0.00    -0.078 C  
HETATM   32  H   UNL     1      -7.367   1.214  65.226  1.00  0.00     0.000 HD 
HETATM   33  O   UNL     1      -5.480   2.793  64.789  1.00  0.00    -0.009 OA 
HETATM   34  C   UNL     1      -6.600   3.697  64.702  1.00  0.00    -0.043 C  
HETATM   35  O   UNL     1      -7.587   1.503  64.348  1.00  0.00    -0.056 OA 
BRANCH  29  36
HETATM   36  O   UNL     1      -9.276   4.362  62.910  1.00  0.00    -0.129 OA 
BRANCH  36  37
HETATM   37  C   UNL     1     -10.591   3.808  62.749  1.00  0.00    -0.201 C  
BRANCH  37  38
HETATM   38  C   UNL     1     -10.690   2.488  63.508  1.00  0.00    -0.181 C  
HETATM   39  H   UNL     1     -11.882   0.927  63.533  1.00  0.00     0.000 HD 
HETATM   40  O   UNL     1     -11.820   1.749  63.060  1.00  0.00    -0.251 OA 
ENDBRANCH  37  38
ENDBRANCH  36  37
ENDBRANCH  29  36
ENDBRANCH  13  27
ENDBRANCH   4   5
ENDBRANCH   3   4
ENDBRANCH   2   3
TORSDOF 10
ENDMDL
MODEL      223
REMARK 921   NORMALIZED FREE ENERGY PREDICTED BY IDOCK:   -1.65 KCAL/MOL
REMARK 922        TOTAL FREE ENERGY PREDICTED BY IDOCK:   -4.69 KCAL/MOL
REMARK 923 INTER-LIGAND FREE ENERGY PREDICTED BY IDOCK:   -5.77 KCAL/MOL
REMARK 924 INTRA-LIGAND FREE ENERGY PREDICTED BY IDOCK:    1.09 KCAL/MOL
REMARK 927      BINDING AFFINITY PREDICTED BY RF-SCORE:    0.00 PKD
ROOT
HETATM    1  C   UNL     1     -10.320  10.175  70.379  1.00  0.00    -0.178 C  
HETATM    2  C   UNL     1      -9.287   9.122  70.003  1.00  0.00    -0.218 C  
ENDROOT
BRANCH   2   3
HETATM    3  C   UNL     1      -7.990   9.259  70.808  1.00  0.00    -0.154 C  
BRANCH   3   4
HETATM    4  S   UNL     1      -6.924  10.509  70.005  1.00  0.00    -0.098 SA 
BRANCH   4   5
HETATM    5  C   UNL     1      -7.877  10.858  68.543  1.00  0.00    -0.126 A  
HETATM    6  N   UNL     1      -8.193  12.158  68.344  1.00  0.00    -0.157 NA 
HETATM    7  C   UNL     1      -8.927  12.333  67.232  1.00  0.00    -0.187 A  
HETATM    8  C   UNL     1      -9.342  11.348  66.355  1.00  0.00    -0.204 A  
HETATM    9  N   UNL     1     -10.042  11.909  65.323  1.00  0.00    -0.252 NA 
HETATM   10  C   UNL     1      -8.941  10.031  66.622  1.00  0.00    -0.139 A  
HETATM   11  N   UNL     1      -8.196   9.816  67.746  1.00  0.00    -0.113 NA 
HETATM   12  N   UNL     1     -10.063  13.226  65.508  1.00  0.00    -0.285 NA 
HETATM   13  N   UNL     1      -9.365  13.492  66.643  1.00  0.00    -0.259 NA 
BRANCH  10  14
HETATM   14  N   UNL     1      -9.254   8.985  65.730  1.00  0.00    -0.222 NA 
HETATM   15  H   UNL     1     -10.014   9.081  65.058  1.00  0.00     0.000 HD 
BRANCH  14  16
HETATM   16  C   UNL     1      -8.460   7.756  65.795  1.00  0.00    -0.144 C  
HETATM   17  C   UNL     1      -7.883   7.150  64.534  1.00  0.00    -0.121 C  
HETATM   18  C   UNL     1      -6.980   7.789  65.555  1.00  0.00    -0.053 C  
BRANCH  17  19
HETATM   19  C   UNL     1      -7.984   5.655  64.358  1.00  0.00    -0.125 A  
HETATM   20  C   UNL     1      -8.853   3.466  64.970  1.00  0.00    -0.122 A  
HETATM   21  C   UNL     1      -8.804   4.848  65.162  1.00  0.00    -0.153 A  
HETATM   22  F   UNL     1      -9.655   2.726  65.746  1.00  0.00    -0.115 F  
HETATM   23  C   UNL     1      -8.081   2.865  63.984  1.00  0.00    -0.082 A  
HETATM   24  C   UNL     1      -7.207   5.017  63.370  1.00  0.00    -0.048 A  
HETATM   25  F   UNL     1      -8.129   1.539  63.806  1.00  0.00    -0.058 F  
HETATM   26  C   UNL     1      -7.253   3.633  63.181  1.00  0.00    -0.049 A  
ENDBRANCH  17  19
ENDBRANCH  14  16
ENDBRANCH  10  14
BRANCH  13  27
HETATM   27  C   UNL     1      -9.165  14.884  66.991  1.00  0.00    -0.234 C  
HETATM   28  C   UNL     1      -8.610  15.077  68.413  1.00  0.00    -0.162 C  
HETATM   29  C   UNL     1      -9.852  15.109  69.305  1.00  0.00    -0.230 C  
HETATM   30  H   UNL     1     -10.729  17.661  66.524  1.00  0.00     0.000 HD 
HETATM   31  C   UNL     1     -10.885  15.884  68.448  1.00  0.00    -0.316 C  
HETATM   32  H   UNL     1     -11.613  17.745  68.296  1.00  0.00     0.000 HD 
HETATM   33  O   UNL     1      -9.966  17.095  66.531  1.00  0.00    -0.276 OA 
HETATM   34  C   UNL     1     -10.393  15.793  66.980  1.00  0.00    -0.292 C  
HETATM   35  O   UNL     1     -10.980  17.270  68.821  1.00  0.00    -0.232 OA 
BRANCH  29  36
HETATM   36  O   UNL     1     -10.341  13.792  69.589  1.00  0.00     0.244 OA 
BRANCH  36  37
HETATM   37  C   UNL     1     -11.771  13.680  69.511  1.00  0.00    -0.322 C  
BRANCH  37  38
HETATM   38  C   UNL     1     -12.146  12.539  68.569  1.00  0.00    -0.080 C  
HETATM   39  H   UNL     1     -12.705  12.342  66.697  1.00  0.00     0.000 HD 
HETATM   40  O   UNL     1     -12.471  13.053  67.283  1.00  0.00    -0.209 OA 
ENDBRANCH  37  38
ENDBRANCH  36  37
ENDBRANCH  29  36
ENDBRANCH  13  27
ENDBRANCH   4   5
ENDBRANCH   3   4
ENDBRANCH   2   3
TORSDOF 10
ENDMDL
MODEL      224
REMARK 921   NORMALIZED FREE ENERGY PREDICTED BY IDOCK:   -1.59 KCAL/MOL
REMARK 922        TOTAL FREE ENERGY PREDICTED BY IDOCK:   -4.58 KCAL/MOL
REMARK 923 INTER-LIGAND FREE ENERGY PREDICTED BY IDOCK:   -7.39 KCAL/MOL
REMARK 924 INTRA-LIGAND FREE ENERGY PREDICTED BY IDOCK:    2.81 KCAL/MOL
REMARK 927      BINDING AFFINITY PREDICTED BY RF-SCORE:    0.00 PKD
ROOT
HETATM    1  C   UNL     1      -9.729   4.828  66.933  1.00  0.00    -0.204 C  
HETATM    2  C   UNL     1     -10.394   4.825  65.563  1.00  0.00    -0.162 C  
ENDROOT
BRANCH   2   3
HETATM    3  C   UNL     1      -9.378   4.907  64.419  1.00  0.00     0.090 C  
BRANCH   3   4
HETATM    4  S   UNL     1      -7.946   5.903  64.969  1.00  0.00    -0.128 SA 
BRANCH   4   5
HETATM    5  C   UNL     1      -8.778   7.218  65.833  1.00  0.00    -0.131 A  
HETATM    6  N   UNL     1      -9.199   8.250  65.068  1.00  0.00     0.309 NA 
HETATM    7  C   UNL     1      -9.797   9.207  65.798  1.00  0.00    -0.178 A  
HETATM    8  C   UNL     1      -9.992   9.198  67.166  1.00  0.00    -0.218 A  
HETATM    9  N   UNL     1     -10.665  10.326  67.547  1.00  0.00    -0.276 NA 
HETATM   10  C   UNL     1      -9.552   8.072  67.876  1.00  0.00    -0.155 A  
HETATM   11  N   UNL     1      -8.936   7.081  67.167  1.00  0.00    -0.119 NA 
HETATM   12  N   UNL     1     -10.924  11.038  66.456  1.00  0.00    -0.215 NA 
HETATM   13  N   UNL     1     -10.430  10.354  65.391  1.00  0.00    -0.191 NA 
BRANCH  10  14
HETATM   14  N   UNL     1      -9.789   7.952  69.261  1.00  0.00    -0.174 NA 
HETATM   15  H   UNL     1      -9.896   7.036  69.697  1.00  0.00     0.000 HD 
BRANCH  14  16
HETATM   16  C   UNL     1      -9.878   9.177  70.059  1.00  0.00    -0.193 C  
HETATM   17  C   UNL     1     -11.051   9.403  70.989  1.00  0.00    -0.414 C  
HETATM   18  C   UNL     1      -9.676   9.138  71.545  1.00  0.00    -0.313 C  
BRANCH  17  19
HETATM   19  C   UNL     1     -11.686  10.771  71.006  1.00  0.00    -0.242 A  
HETATM   20  C   UNL     1     -13.245  12.414  71.894  1.00  0.00    -0.382 A  
HETATM   21  C   UNL     1     -12.676  11.140  71.929  1.00  0.00    -0.293 A  
HETATM   22  F   UNL     1     -14.178  12.739  72.798  1.00  0.00    -0.460 F  
HETATM   23  C   UNL     1     -12.845  13.337  70.936  1.00  0.00    -0.181 A  
HETATM   24  C   UNL     1     -11.305  11.726  70.040  1.00  0.00    -0.130 A  
HETATM   25  F   UNL     1     -13.396  14.557  70.906  1.00  0.00    -0.397 F  
HETATM   26  C   UNL     1     -11.877  13.000  70.003  1.00  0.00    -0.355 A  
ENDBRANCH  17  19
ENDBRANCH  14  16
ENDBRANCH  10  14
BRANCH  13  27
HETATM   27  C   UNL     1     -10.688  10.895  64.073  1.00  0.00    -0.138 C  
HETATM   28  C   UNL     1      -9.731  12.036  63.690  1.00  0.00    -0.218 C  
HETATM   29  C   UNL     1     -10.393  13.294  64.255  1.00  0.00    -0.294 C  
HETATM   30  H   UNL     1     -13.284  11.608  62.302  1.00  0.00     0.000 HD 
HETATM   31  C   UNL     1     -11.902  13.040  64.011  1.00  0.00    -0.445 C  
HETATM   32  H   UNL     1     -13.313  13.552  62.684  1.00  0.00     0.000 HD 
HETATM   33  O   UNL     1     -12.428  11.226  62.458  1.00  0.00     0.624 OA 
HETATM   34  C   UNL     1     -12.065  11.510  63.824  1.00  0.00    -0.048 C  
HETATM   35  O   UNL     1     -12.388  13.707  62.833  1.00  0.00    -0.549 OA 
BRANCH  29  36
HETATM   36  O   UNL     1     -10.142  13.447  65.658  1.00  0.00    -0.289 OA 
BRANCH  36  37
HETATM   37  C   UNL     1      -9.658  14.750  66.017  1.00  0.00    -0.301 C  
BRANCH  37  38
HETATM   38  C   UNL     1     -10.659  15.434  66.944  1.00  0.00    -0.309 C  
HETATM   39  H   UNL     1     -11.091  17.268  67.498  1.00  0.00     0.000 HD 
HETATM   40  O   UNL     1     -10.467  16.843  66.920  1.00  0.00    -0.312 OA 
ENDBRANCH  37  38
ENDBRANCH  36  37
ENDBRANCH  29  36
ENDBRANCH  13  27
ENDBRANCH   4   5
ENDBRANCH   3   4
ENDBRANCH   2   3
TORSDOF 10
ENDMDL
MODEL      225
REMARK 921   NORMALIZED FREE ENERGY PREDICTED BY IDOCK:   -0.96 KCAL/MOL
REMARK 922        TOTAL FREE ENERGY PREDICTED BY IDOCK:   -3.58 KCAL/MOL
REMARK 923 INTER-LIGAND FREE ENERGY PREDICTED BY IDOCK:   -3.99 KCAL/MOL
REMARK 924 INTRA-LIGAND FREE ENERGY PREDICTED BY IDOCK:    0.41 KCAL/MOL
REMARK 927      BINDING AFFINITY PREDICTED BY RF-SCORE:    0.00 PKD
ROOT
HETATM    1  C   UNL     1      -9.302   3.290  68.776  1.00  0.00    -0.235 C  
HETATM    2  C   UNL     1      -8.200   4.090  68.095  1.00  0.00    -0.095 C  
ENDROOT
BRANCH   2   3
HETATM    3  C   UNL     1      -8.559   4.473  66.655  1.00  0.00    -0.111 C  
BRANCH   3   4
HETATM    4  S   UNL     1      -7.188   5.453  65.944  1.00  0.00    -0.070 SA 
BRANCH   4   5
HETATM    5  C   UNL     1      -7.348   6.960  66.876  1.00  0.00    -0.082 A  
HETATM    6  N   UNL     1      -8.204   6.916  67.922  1.00  0.00    -0.114 NA 
HETATM    7  C   UNL     1      -8.282   8.097  68.559  1.00  0.00    -0.125 A  
HETATM    8  C   UNL     1      -7.596   9.253  68.237  1.00  0.00    -0.083 A  
HETATM    9  N   UNL     1      -7.905  10.241  69.130  1.00  0.00    -0.115 NA 
HETATM   10  C   UNL     1      -6.703   9.198  67.157  1.00  0.00    -0.065 A  
HETATM   11  N   UNL     1      -6.602   8.015  66.484  1.00  0.00    -0.054 NA 
HETATM   12  N   UNL     1      -8.750   9.738  70.024  1.00  0.00    -0.214 NA 
HETATM   13  N   UNL     1      -8.958   8.434  69.703  1.00  0.00    -0.144 NA 
BRANCH  10  14
HETATM   14  N   UNL     1      -5.906  10.312  66.820  1.00  0.00    -0.050 NA 
HETATM   15  H   UNL     1      -4.897  10.295  66.962  1.00  0.00     0.000 HD 
BRANCH  14  16
HETATM   16  C   UNL     1      -6.566  11.494  66.259  1.00  0.00     0.130 C  
HETATM   17  C   UNL     1      -7.564  12.278  67.084  1.00  0.00    -0.118 C  
HETATM   18  C   UNL     1      -6.219  12.867  66.751  1.00  0.00     1.037 C  
BRANCH  17  19
HETATM   19  C   UNL     1      -8.838  12.725  66.412  1.00  0.00     0.035 A  
HETATM   20  C   UNL     1     -10.725  14.240  66.158  1.00  0.00    -0.295 A  
HETATM   21  C   UNL     1      -9.541  13.875  66.802  1.00  0.00    -0.288 A  
HETATM   22  F   UNL     1     -11.365  15.351  66.546  1.00  0.00    -0.320 F  
HETATM   23  C   UNL     1     -11.232  13.463  65.125  1.00  0.00    -0.305 A  
HETATM   24  C   UNL     1      -9.381  11.952  65.365  1.00  0.00    -0.048 A  
HETATM   25  F   UNL     1     -12.369  13.816  64.513  1.00  0.00    -0.399 F  
HETATM   26  C   UNL     1     -10.567  12.315  64.723  1.00  0.00    -0.332 A  
ENDBRANCH  17  19
ENDBRANCH  14  16
ENDBRANCH  10  14
BRANCH  13  27
HETATM   27  C   UNL     1      -9.773   7.647  70.606  1.00  0.00    -0.174 C  
HETATM   28  C   UNL     1      -9.468   7.922  72.089  1.00  0.00    -0.234 C  
HETATM   29  C   UNL     1      -8.315   6.974  72.422  1.00  0.00    -0.113 C  
HETATM   30  H   UNL     1     -10.890   4.628  70.725  1.00  0.00     0.000 HD 
HETATM   31  C   UNL     1      -8.668   5.693  71.624  1.00  0.00    -0.136 C  
HETATM   32  H   UNL     1      -9.514   3.906  71.954  1.00  0.00     0.000 HD 
HETATM   33  O   UNL     1     -10.961   5.573  70.783  1.00  0.00    -0.230 OA 
HETATM   34  C   UNL     1      -9.657   6.126  70.513  1.00  0.00    -0.168 C  
HETATM   35  O   UNL     1      -9.298   4.691  72.443  1.00  0.00    -0.127 OA 
BRANCH  29  36
HETATM   36  O   UNL     1      -7.053   7.491  71.984  1.00  0.00    -0.061 OA 
BRANCH  36  37
HETATM   37  C   UNL     1      -6.872   8.887  72.272  1.00  0.00     0.100 C  
BRANCH  37  38
HETATM   38  C   UNL     1      -5.619   9.399  71.566  1.00  0.00    -0.073 C  
HETATM   39  H   UNL     1      -4.677  11.111  71.366  1.00  0.00     0.000 HD 
HETATM   40  O   UNL     1      -5.457  10.792  71.806  1.00  0.00    -0.317 OA 
ENDBRANCH  37  38
ENDBRANCH  36  37
ENDBRANCH  29  36
ENDBRANCH  13  27
ENDBRANCH   4   5
ENDBRANCH   3   4
ENDBRANCH   2   3
TORSDOF 10
ENDMDL
MODEL      226
REMARK 921   NORMALIZED FREE ENERGY PREDICTED BY IDOCK:   -0.73 KCAL/MOL
REMARK 922        TOTAL FREE ENERGY PREDICTED BY IDOCK:   -3.22 KCAL/MOL
REMARK 923 INTER-LIGAND FREE ENERGY PREDICTED BY IDOCK:   -5.09 KCAL/MOL
REMARK 924 INTRA-LIGAND FREE ENERGY PREDICTED BY IDOCK:    1.87 KCAL/MOL
REMARK 927      BINDING AFFINITY PREDICTED BY RF-SCORE:    0.00 PKD
ROOT
HETATM    1  C   UNL     1      -5.238   5.597  67.287  1.00  0.00    -0.005 C  
HETATM    2  C   UNL     1      -5.597   6.940  67.907  1.00  0.00    -0.016 C  
ENDROOT
BRANCH   2   3
HETATM    3  C   UNL     1      -6.262   6.792  69.280  1.00  0.00    -0.027 C  
BRANCH   3   4
HETATM    4  S   UNL     1      -7.954   7.482  69.196  1.00  0.00    -0.123 SA 
BRANCH   4   5
HETATM    5  C   UNL     1      -8.162   7.618  67.434  1.00  0.00    -0.116 A  
HETATM    6  N   UNL     1      -7.978   6.478  66.730  1.00  0.00    -0.107 NA 
HETATM    7  C   UNL     1      -8.134   6.672  65.409  1.00  0.00    -0.129 A  
HETATM    8  C   UNL     1      -8.446   7.863  64.782  1.00  0.00     0.007 A  
HETATM    9  N   UNL     1      -8.554   7.665  63.434  1.00  0.00     0.296 NA 
HETATM   10  C   UNL     1      -8.652   8.988  65.593  1.00  0.00    -0.166 A  
HETATM   11  N   UNL     1      -8.498   8.830  66.940  1.00  0.00    -0.111 NA 
HETATM   12  N   UNL     1      -8.343   6.375  63.190  1.00  0.00     0.037 NA 
HETATM   13  N   UNL     1      -8.119   5.763  64.382  1.00  0.00    -0.132 NA 
BRANCH  10  14
HETATM   14  N   UNL     1      -9.054  10.219  65.034  1.00  0.00    -0.189 NA 
HETATM   15  H   UNL     1      -9.109  10.341  64.023  1.00  0.00     0.000 HD 
BRANCH  14  16
HETATM   16  C   UNL     1      -9.392  11.317  65.942  1.00  0.00    -0.219 C  
HETATM   17  C   UNL     1     -10.680  12.092  65.763  1.00  0.00    -0.303 C  
HETATM   18  C   UNL     1     -10.502  11.171  66.940  1.00  0.00    -0.289 C  
BRANCH  17  19
HETATM   19  C   UNL     1     -10.623  13.594  65.888  1.00  0.00    -0.289 A  
HETATM   20  C   UNL     1     -10.610  15.651  67.189  1.00  0.00    -0.308 A  
HETATM   21  C   UNL     1     -10.649  14.257  67.125  1.00  0.00    -0.279 A  
HETATM   22  F   UNL     1     -10.624  16.251  68.386  1.00  0.00    -0.249 F  
HETATM   23  C   UNL     1     -10.553  16.407  66.026  1.00  0.00    -0.269 A  
HETATM   24  C   UNL     1     -10.573  14.388  64.724  1.00  0.00    -0.417 A  
HETATM   25  F   UNL     1     -10.519  17.743  66.092  1.00  0.00    -0.345 F  
HETATM   26  C   UNL     1     -10.537  15.783  64.788  1.00  0.00    -0.174 A  
ENDBRANCH  17  19
ENDBRANCH  14  16
ENDBRANCH  10  14
BRANCH  13  27
HETATM   27  C   UNL     1      -7.964   4.323  64.373  1.00  0.00    -0.087 C  
HETATM   28  C   UNL     1      -9.304   3.571  64.444  1.00  0.00    -0.141 C  
HETATM   29  C   UNL     1      -9.596   3.456  65.941  1.00  0.00    -0.059 C  
HETATM   30  H   UNL     1      -5.948   2.176  65.681  1.00  0.00     0.000 HD 
HETATM   31  C   UNL     1      -8.197   3.203  66.557  1.00  0.00    -0.090 C  
HETATM   32  H   UNL     1      -7.101   1.656  67.206  1.00  0.00     0.000 HD 
HETATM   33  O   UNL     1      -6.446   2.567  64.972  1.00  0.00    -0.026 OA 
HETATM   34  C   UNL     1      -7.163   3.695  65.513  1.00  0.00    -0.071 C  
HETATM   35  O   UNL     1      -7.958   1.810  66.828  1.00  0.00    -0.068 OA 
BRANCH  29  36
HETATM   36  O   UNL     1     -10.155   4.664  66.472  1.00  0.00    -0.219 OA 
BRANCH  36  37
HETATM   37  C   UNL     1     -10.364   4.625  67.893  1.00  0.00     0.137 C  
BRANCH  37  38
HETATM   38  C   UNL     1     -10.953   5.953  68.362  1.00  0.00    -0.178 C  
HETATM   39  H   UNL     1     -11.741   6.677  70.008  1.00  0.00     0.000 HD 
HETATM   40  O   UNL     1     -11.374   5.851  69.717  1.00  0.00    -0.371 OA 
ENDBRANCH  37  38
ENDBRANCH  36  37
ENDBRANCH  29  36
ENDBRANCH  13  27
ENDBRANCH   4   5
ENDBRANCH   3   4
ENDBRANCH   2   3
TORSDOF 10
ENDMDL
MODEL      227
REMARK 921   NORMALIZED FREE ENERGY PREDICTED BY IDOCK:   -0.45 KCAL/MOL
REMARK 922        TOTAL FREE ENERGY PREDICTED BY IDOCK:   -2.77 KCAL/MOL
REMARK 923 INTER-LIGAND FREE ENERGY PREDICTED BY IDOCK:   -3.57 KCAL/MOL
REMARK 924 INTRA-LIGAND FREE ENERGY PREDICTED BY IDOCK:    0.80 KCAL/MOL
REMARK 927      BINDING AFFINITY PREDICTED BY RF-SCORE:    0.00 PKD
ROOT
HETATM    1  C   UNL     1      -7.393  16.288  70.644  1.00  0.00     2.298 C  
HETATM    2  C   UNL     1      -6.303  16.475  69.597  1.00  0.00    -0.216 C  
ENDROOT
BRANCH   2   3
HETATM    3  C   UNL     1      -5.365  15.266  69.506  1.00  0.00    -0.094 C  
BRANCH   3   4
HETATM    4  S   UNL     1      -6.176  13.827  70.290  1.00  0.00    -0.038 SA 
BRANCH   4   5
HETATM    5  C   UNL     1      -7.040  13.140  68.894  1.00  0.00    -0.075 A  
HETATM    6  N   UNL     1      -8.023  13.910  68.374  1.00  0.00    -0.139 NA 
HETATM    7  C   UNL     1      -8.637  13.311  67.339  1.00  0.00    -0.204 A  
HETATM    8  C   UNL     1      -8.347  12.064  66.818  1.00  0.00    -0.135 A  
HETATM    9  N   UNL     1      -9.159  11.807  65.748  1.00  0.00    -0.143 NA 
HETATM   10  C   UNL     1      -7.289  11.350  67.398  1.00  0.00    -0.119 A  
HETATM   11  N   UNL     1      -6.645  11.925  68.455  1.00  0.00    -0.057 NA 
HETATM   12  N   UNL     1      -9.940  12.866  65.561  1.00  0.00    -0.250 NA 
HETATM   13  N   UNL     1      -9.609  13.792  66.500  1.00  0.00    -0.282 NA 
BRANCH  10  14
HETATM   14  N   UNL     1      -6.880  10.108  66.869  1.00  0.00    -0.082 NA 
HETATM   15  H   UNL     1      -6.464  10.047  65.940  1.00  0.00     0.000 HD 
BRANCH  14  16
HETATM   16  C   UNL     1      -7.066   8.908  67.689  1.00  0.00    -0.076 C  
HETATM   17  C   UNL     1      -6.473   7.585  67.255  1.00  0.00    -0.061 C  
HETATM   18  C   UNL     1      -5.917   8.316  68.448  1.00  0.00    -0.041 C  
BRANCH  17  19
HETATM   19  C   UNL     1      -7.332   6.351  67.384  1.00  0.00    -0.087 A  
HETATM   20  C   UNL     1      -8.354   4.332  66.489  1.00  0.00    -0.101 A  
HETATM   21  C   UNL     1      -7.538   5.453  66.325  1.00  0.00    -0.087 A  
HETATM   22  F   UNL     1      -8.520   3.489  65.462  1.00  0.00    -0.102 F  
HETATM   23  C   UNL     1      -8.984   4.092  67.703  1.00  0.00    -0.121 A  
HETATM   24  C   UNL     1      -7.990   6.086  68.603  1.00  0.00    -0.104 A  
HETATM   25  F   UNL     1      -9.767   3.017  67.854  1.00  0.00    -0.256 F  
HETATM   26  C   UNL     1      -8.809   4.966  68.765  1.00  0.00    -0.114 A  
ENDBRANCH  17  19
ENDBRANCH  14  16
ENDBRANCH  10  14
BRANCH  13  27
HETATM   27  C   UNL     1     -10.266  15.080  66.425  1.00  0.00    -0.277 C  
HETATM   28  C   UNL     1     -11.783  15.000  66.665  1.00  0.00    -0.144 C  
HETATM   29  C   UNL     1     -12.372  14.702  65.285  1.00  0.00    -0.215 C  
HETATM   30  H   UNL     1     -10.042  17.719  64.590  1.00  0.00     0.000 HD 
HETATM   31  C   UNL     1     -11.486  15.544  64.333  1.00  0.00    -0.259 C  
HETATM   32  H   UNL     1     -11.559  17.308  63.384  1.00  0.00     0.000 HD 
HETATM   33  O   UNL     1     -10.100  17.246  65.412  1.00  0.00    -0.574 OA 
HETATM   34  C   UNL     1     -10.173  15.840  65.102  1.00  0.00    -0.217 C  
HETATM   35  O   UNL     1     -12.102  16.793  63.968  1.00  0.00    -0.459 OA 
BRANCH  29  36
HETATM   36  O   UNL     1     -12.271  13.313  64.948  1.00  0.00    -0.378 OA 
BRANCH  36  37
HETATM   37  C   UNL     1     -12.035  13.076  63.551  1.00  0.00    -0.545 C  
BRANCH  37  38
HETATM   38  C   UNL     1     -12.239  11.595  63.240  1.00  0.00    -0.152 C  
HETATM   39  H   UNL     1     -13.718  10.432  62.678  1.00  0.00     0.000 HD 
HETATM   40  O   UNL     1     -13.591  11.354  62.872  1.00  0.00     0.335 OA 
ENDBRANCH  37  38
ENDBRANCH  36  37
ENDBRANCH  29  36
ENDBRANCH  13  27
ENDBRANCH   4   5
ENDBRANCH   3   4
ENDBRANCH   2   3
TORSDOF 10
ENDMDL
MODEL      228
REMARK 921   NORMALIZED FREE ENERGY PREDICTED BY IDOCK:   -0.01 KCAL/MOL
REMARK 922        TOTAL FREE ENERGY PREDICTED BY IDOCK:   -2.07 KCAL/MOL
REMARK 923 INTER-LIGAND FREE ENERGY PREDICTED BY IDOCK:   -4.08 KCAL/MOL
REMARK 924 INTRA-LIGAND FREE ENERGY PREDICTED BY IDOCK:    2.01 KCAL/MOL
REMARK 927      BINDING AFFINITY PREDICTED BY RF-SCORE:    0.00 PKD
ROOT
HETATM    1  C   UNL     1     -13.284  14.084  65.217  1.00  0.00     0.018 C  
HETATM    2  C   UNL     1     -12.271  13.604  64.187  1.00  0.00    -0.450 C  
ENDROOT
BRANCH   2   3
HETATM    3  C   UNL     1     -11.599  14.762  63.443  1.00  0.00     1.586 C  
BRANCH   3   4
HETATM    4  S   UNL     1     -11.559  16.227  64.537  1.00  0.00     0.171 SA 
BRANCH   4   5
HETATM    5  C   UNL     1     -10.470  15.645  65.819  1.00  0.00    -0.366 A  
HETATM    6  N   UNL     1      -9.213  16.143  65.793  1.00  0.00    -0.428 NA 
HETATM    7  C   UNL     1      -8.451  15.639  66.779  1.00  0.00    -0.272 A  
HETATM    8  C   UNL     1      -8.843  14.723  67.736  1.00  0.00    -0.175 A  
HETATM    9  N   UNL     1      -7.807  14.473  68.592  1.00  0.00    -0.135 NA 
HETATM   10  C   UNL     1     -10.175  14.285  67.708  1.00  0.00    -0.235 A  
HETATM   11  N   UNL     1     -10.977  14.772  66.717  1.00  0.00    -0.321 NA 
HETATM   12  N   UNL     1      -6.775  15.224  68.220  1.00  0.00    -0.113 NA 
HETATM   13  N   UNL     1      -7.167  15.954  67.143  1.00  0.00    -0.215 NA 
BRANCH  10  14
HETATM   14  N   UNL     1     -10.671  13.414  68.700  1.00  0.00    -0.253 NA 
HETATM   15  H   UNL     1     -11.209  13.773  69.489  1.00  0.00     0.000 HD 
BRANCH  14  16
HETATM   16  C   UNL     1     -10.396  11.982  68.569  1.00  0.00    -0.217 C  
HETATM   17  C   UNL     1      -9.649  11.242  69.658  1.00  0.00     0.675 C  
HETATM   18  C   UNL     1     -11.114  10.984  69.426  1.00  0.00    -0.320 C  
BRANCH  17  19
HETATM   19  C   UNL     1      -8.575  10.268  69.241  1.00  0.00    -0.175 A  
HETATM   20  C   UNL     1      -6.554   9.679  68.020  1.00  0.00    -0.061 A  
HETATM   21  C   UNL     1      -7.516  10.621  68.389  1.00  0.00    -0.093 A  
HETATM   22  F   UNL     1      -5.550  10.051  67.216  1.00  0.00    -0.041 F  
HETATM   23  C   UNL     1      -6.634   8.373  68.485  1.00  0.00    -0.059 A  
HETATM   24  C   UNL     1      -8.634   8.933  69.691  1.00  0.00    -0.131 A  
HETATM   25  F   UNL     1      -5.710   7.473  68.126  1.00  0.00    -0.023 F  
HETATM   26  C   UNL     1      -7.673   7.990  69.319  1.00  0.00    -0.102 A  
ENDBRANCH  17  19
ENDBRANCH  14  16
ENDBRANCH  10  14
BRANCH  13  27
HETATM   27  C   UNL     1      -6.230  16.929  66.623  1.00  0.00    -0.171 C  
HETATM   28  C   UNL     1      -5.291  17.499  67.700  1.00  0.00    -0.134 C  
HETATM   29  C   UNL     1      -6.067  18.673  68.299  1.00  0.00    -0.206 C  
HETATM   30  H   UNL     1      -6.305  19.343  64.490  1.00  0.00     0.000 HD 
HETATM   31  C   UNL     1      -6.780  19.291  67.070  1.00  0.00    -0.196 C  
HETATM   32  H   UNL     1      -6.520  20.817  65.796  1.00  0.00     0.000 HD 
HETATM   33  O   UNL     1      -5.945  18.560  64.890  1.00  0.00    -0.241 OA 
HETATM   34  C   UNL     1      -6.811  18.188  65.981  1.00  0.00    -0.282 C  
HETATM   35  O   UNL     1      -6.083  20.438  66.549  1.00  0.00    -0.176 OA 
BRANCH  29  36
HETATM   36  O   UNL     1      -7.037  18.239  69.261  1.00  0.00    -0.234 OA 
BRANCH  36  37
HETATM   37  C   UNL     1      -8.370  18.148  68.733  1.00  0.00    -0.212 C  
BRANCH  37  38
HETATM   38  C   UNL     1      -9.017  19.530  68.728  1.00  0.00    -0.315 C  
HETATM   39  H   UNL     1     -10.370  20.490  69.779  1.00  0.00     0.000 HD 
HETATM   40  O   UNL     1      -9.967  19.629  69.783  1.00  0.00    -0.180 OA 
ENDBRANCH  37  38
ENDBRANCH  36  37
ENDBRANCH  29  36
ENDBRANCH  13  27
ENDBRANCH   4   5
ENDBRANCH   3   4
ENDBRANCH   2   3
TORSDOF 10
ENDMDL
MODEL      229
REMARK 921   NORMALIZED FREE ENERGY PREDICTED BY IDOCK:    0.35 KCAL/MOL
REMARK 922        TOTAL FREE ENERGY PREDICTED BY IDOCK:   -1.51 KCAL/MOL
REMARK 923 INTER-LIGAND FREE ENERGY PREDICTED BY IDOCK:   -2.64 KCAL/MOL
REMARK 924 INTRA-LIGAND FREE ENERGY PREDICTED BY IDOCK:    1.13 KCAL/MOL
REMARK 927      BINDING AFFINITY PREDICTED BY RF-SCORE:    0.00 PKD
ROOT
HETATM    1  C   UNL     1      -5.300  16.877  69.166  1.00  0.00    -0.133 C  
HETATM    2  C   UNL     1      -5.141  15.723  68.186  1.00  0.00    -0.116 C  
ENDROOT
BRANCH   2   3
HETATM    3  C   UNL     1      -5.511  14.372  68.808  1.00  0.00    -0.088 C  
BRANCH   3   4
HETATM    4  S   UNL     1      -6.825  14.632  70.052  1.00  0.00    -0.012 SA 
BRANCH   4   5
HETATM    5  C   UNL     1      -8.250  14.075  69.142  1.00  0.00     0.226 A  
HETATM    6  N   UNL     1      -8.682  14.902  68.163  1.00  0.00    -0.159 NA 
HETATM    7  C   UNL     1      -9.770  14.418  67.540  1.00  0.00    -0.215 A  
HETATM    8  C   UNL     1     -10.416  13.228  67.815  1.00  0.00    -0.239 A  
HETATM    9  N   UNL     1     -11.464  13.057  66.953  1.00  0.00    -0.321 NA 
HETATM   10  C   UNL     1      -9.879  12.417  68.826  1.00  0.00     0.008 A  
HETATM   11  N   UNL     1      -8.776  12.879  69.483  1.00  0.00     1.323 NA 
HETATM   12  N   UNL     1     -11.485  14.094  66.122  1.00  0.00    -0.337 NA 
HETATM   13  N   UNL     1     -10.446  14.906  66.451  1.00  0.00    -0.290 NA 
BRANCH  10  14
HETATM   14  N   UNL     1     -10.433  11.151  69.108  1.00  0.00    -0.306 NA 
HETATM   15  H   UNL     1     -11.327  11.068  69.592  1.00  0.00     0.000 HD 
BRANCH  14  16
HETATM   16  C   UNL     1      -9.692   9.959  68.689  1.00  0.00    -0.157 C  
HETATM   17  C   UNL     1      -8.179   9.940  68.739  1.00  0.00    -0.114 C  
HETATM   18  C   UNL     1      -8.985   9.105  69.698  1.00  0.00    -0.158 C  
BRANCH  17  19
HETATM   19  C   UNL     1      -7.442   9.348  67.565  1.00  0.00    -0.091 A  
HETATM   20  C   UNL     1      -7.136   7.660  65.838  1.00  0.00    -0.065 A  
HETATM   21  C   UNL     1      -7.862   8.178  66.912  1.00  0.00    -0.096 A  
HETATM   22  F   UNL     1      -7.572   6.550  65.230  1.00  0.00    -0.071 F  
HETATM   23  C   UNL     1      -5.978   8.291  65.403  1.00  0.00    -0.045 A  
HETATM   24  C   UNL     1      -6.258   9.962  67.105  1.00  0.00    -0.063 A  
HETATM   25  F   UNL     1      -5.284   7.788  64.374  1.00  0.00    -0.028 F  
HETATM   26  C   UNL     1      -5.530   9.441  66.033  1.00  0.00    -0.040 A  
ENDBRANCH  17  19
ENDBRANCH  14  16
ENDBRANCH  10  14
BRANCH  13  27
HETATM   27  C   UNL     1     -10.208  16.059  65.607  1.00  0.00    -0.386 C  
HETATM   28  C   UNL     1      -8.924  16.821  65.974  1.00  0.00    -0.220 C  
HETATM   29  C   UNL     1      -9.362  17.802  67.063  1.00  0.00    -0.259 C  
HETATM   30  H   UNL     1     -11.987  18.392  64.275  1.00  0.00     0.000 HD 
HETATM   31  C   UNL     1     -10.770  18.247  66.594  1.00  0.00    -0.191 C  
HETATM   32  H   UNL     1     -11.611  19.788  65.629  1.00  0.00     0.000 HD 
HETATM   33  O   UNL     1     -11.328  17.707  64.275  1.00  0.00    -0.319 OA 
HETATM   34  C   UNL     1     -11.268  17.160  65.608  1.00  0.00     0.488 C  
HETATM   35  O   UNL     1     -10.748  19.516  65.916  1.00  0.00    -0.483 OA 
BRANCH  29  36
HETATM   36  O   UNL     1      -9.449  17.171  68.347  1.00  0.00    -0.258 OA 
BRANCH  36  37
HETATM   37  C   UNL     1     -10.286  17.875  69.278  1.00  0.00    -0.076 C  
BRANCH  37  38
HETATM   38  C   UNL     1      -9.526  19.070  69.850  1.00  0.00     0.782 C  
HETATM   39  H   UNL     1      -9.116  20.911  69.305  1.00  0.00     0.000 HD 
HETATM   40  O   UNL     1      -9.589  20.168  68.948  1.00  0.00    -0.128 OA 
ENDBRANCH  37  38
ENDBRANCH  36  37
ENDBRANCH  29  36
ENDBRANCH  13  27
ENDBRANCH   4   5
ENDBRANCH   3   4
ENDBRANCH   2   3
TORSDOF 10
ENDMDL
MODEL      230
REMARK 921   NORMALIZED FREE ENERGY PREDICTED BY IDOCK:    0.71 KCAL/MOL
REMARK 922        TOTAL FREE ENERGY PREDICTED BY IDOCK:   -0.93 KCAL/MOL
REMARK 923 INTER-LIGAND FREE ENERGY PREDICTED BY IDOCK:   -4.25 KCAL/MOL
REMARK 924 INTRA-LIGAND FREE ENERGY PREDICTED BY IDOCK:    3.32 KCAL/MOL
REMARK 927      BINDING AFFINITY PREDICTED BY RF-SCORE:    0.00 PKD
ROOT
HETATM    1  C   UNL     1     -11.055  16.216  64.597  1.00  0.00    -0.310 C  
HETATM    2  C   UNL     1     -11.308  14.820  65.150  1.00  0.00    -0.379 C  
ENDROOT
BRANCH   2   3
HETATM    3  C   UNL     1     -12.775  14.600  65.535  1.00  0.00    -0.048 C  
BRANCH   3   4
HETATM    4  S   UNL     1     -13.056  12.812  65.799  1.00  0.00     1.614 SA 
BRANCH   4   5
HETATM    5  C   UNL     1     -11.377  12.234  65.924  1.00  0.00    -0.360 A  
HETATM    6  N   UNL     1     -10.479  13.134  66.385  1.00  0.00    -0.278 NA 
HETATM    7  C   UNL     1      -9.235  12.626  66.429  1.00  0.00    -0.160 A  
HETATM    8  C   UNL     1      -8.854  11.348  66.066  1.00  0.00    -0.174 A  
HETATM    9  N   UNL     1      -7.513  11.184  66.280  1.00  0.00    -0.107 NA 
HETATM   10  C   UNL     1      -9.858  10.471  65.630  1.00  0.00    -0.252 A  
HETATM   11  N   UNL     1     -11.132  10.955  65.568  1.00  0.00     0.044 NA 
HETATM   12  N   UNL     1      -7.037  12.315  66.792  1.00  0.00     0.063 NA 
HETATM   13  N   UNL     1      -8.078  13.180  66.914  1.00  0.00    -0.006 NA 
BRANCH  10  14
HETATM   14  N   UNL     1      -9.560   9.128  65.321  1.00  0.00    -0.459 NA 
HETATM   15  H   UNL     1      -9.854   8.718  64.435  1.00  0.00     0.000 HD 
BRANCH  14  16
HETATM   16  C   UNL     1      -8.818   8.336  66.304  1.00  0.00    -0.161 C  
HETATM   17  C   UNL     1      -9.056   6.847  66.427  1.00  0.00    -0.185 C  
HETATM   18  C   UNL     1      -7.760   7.368  65.865  1.00  0.00    -0.093 C  
BRANCH  17  19
HETATM   19  C   UNL     1      -9.166   6.261  67.813  1.00  0.00    -0.115 A  
HETATM   20  C   UNL     1      -8.785   4.497  69.445  1.00  0.00    -0.086 A  
HETATM   21  C   UNL     1      -8.645   5.003  68.151  1.00  0.00    -0.102 A  
HETATM   22  F   UNL     1      -8.265   3.298  69.738  1.00  0.00    -0.055 F  
HETATM   23  C   UNL     1      -9.453   5.229  70.418  1.00  0.00    -0.166 A  
HETATM   24  C   UNL     1      -9.845   6.978  68.819  1.00  0.00    -0.152 A  
HETATM   25  F   UNL     1      -9.587   4.738  71.656  1.00  0.00    -0.170 F  
HETATM   26  C   UNL     1      -9.989   6.470  70.112  1.00  0.00    -0.190 A  
ENDBRANCH  17  19
ENDBRANCH  14  16
ENDBRANCH  10  14
BRANCH  13  27
HETATM   27  C   UNL     1      -7.814  14.454  67.551  1.00  0.00    -0.190 C  
HETATM   28  C   UNL     1      -8.201  14.476  69.040  1.00  0.00    -0.076 C  
HETATM   29  C   UNL     1      -9.680  14.866  69.042  1.00  0.00    -0.212 C  
HETATM   30  H   UNL     1      -8.088  17.566  66.766  1.00  0.00     0.000 HD 
HETATM   31  C   UNL     1      -9.775  15.908  67.900  1.00  0.00    -0.216 C  
HETATM   32  H   UNL     1      -9.810  17.900  67.686  1.00  0.00     0.000 HD 
HETATM   33  O   UNL     1      -7.639  16.803  67.111  1.00  0.00    -0.160 OA 
HETATM   34  C   UNL     1      -8.536  15.680  66.995  1.00  0.00    -0.224 C  
HETATM   35  O   UNL     1      -9.752  17.262  68.387  1.00  0.00    -0.268 OA 
BRANCH  29  36
HETATM   36  O   UNL     1     -10.529  13.747  68.757  1.00  0.00    -0.240 OA 
BRANCH  36  37
HETATM   37  C   UNL     1     -11.390  13.384  69.848  1.00  0.00    -0.012 C  
BRANCH  37  38
HETATM   38  C   UNL     1     -12.087  14.630  70.389  1.00  0.00    -0.319 C  
HETATM   39  H   UNL     1     -12.982  16.214  69.651  1.00  0.00     0.000 HD 
HETATM   40  O   UNL     1     -12.549  15.439  69.313  1.00  0.00    -0.047 OA 
ENDBRANCH  37  38
ENDBRANCH  36  37
ENDBRANCH  29  36
ENDBRANCH  13  27
ENDBRANCH   4   5
ENDBRANCH   3   4
ENDBRANCH   2   3
TORSDOF 10
ENDMDL
MODEL      231
REMARK 921   NORMALIZED FREE ENERGY PREDICTED BY IDOCK:    1.01 KCAL/MOL
REMARK 922        TOTAL FREE ENERGY PREDICTED BY IDOCK:   -0.47 KCAL/MOL
REMARK 923 INTER-LIGAND FREE ENERGY PREDICTED BY IDOCK:   -3.01 KCAL/MOL
REMARK 924 INTRA-LIGAND FREE ENERGY PREDICTED BY IDOCK:    2.54 KCAL/MOL
REMARK 927      BINDING AFFINITY PREDICTED BY RF-SCORE:    0.00 PKD
ROOT
HETATM    1  C   UNL     1      -8.615   2.324  69.467  1.00  0.00    -0.107 C  
HETATM    2  C   UNL     1      -7.389   3.104  69.015  1.00  0.00    -0.048 C  
ENDROOT
BRANCH   2   3
HETATM    3  C   UNL     1      -7.470   3.522  67.543  1.00  0.00    -0.066 C  
BRANCH   3   4
HETATM    4  S   UNL     1      -6.096   4.672  67.177  1.00  0.00    -0.032 SA 
BRANCH   4   5
HETATM    5  C   UNL     1      -6.512   6.029  68.249  1.00  0.00    -0.046 A  
HETATM    6  N   UNL     1      -7.599   5.847  69.034  1.00  0.00    -0.088 NA 
HETATM    7  C   UNL     1      -7.856   6.923  69.796  1.00  0.00    -0.115 A  
HETATM    8  C   UNL     1      -7.137   8.103  69.824  1.00  0.00    -0.060 A  
HETATM    9  N   UNL     1      -7.678   8.956  70.747  1.00  0.00    -0.101 NA 
HETATM   10  C   UNL     1      -6.005   8.193  69.001  1.00  0.00    -0.039 A  
HETATM   11  N   UNL     1      -5.716   7.119  68.210  1.00  0.00    -0.021 NA 
HETATM   12  N   UNL     1      -8.706   8.340  71.323  1.00  0.00    -0.139 NA 
HETATM   13  N   UNL     1      -8.800   7.099  70.774  1.00  0.00    -0.147 NA 
BRANCH  10  14
HETATM   14  N   UNL     1      -5.174   9.332  69.036  1.00  0.00    -0.037 NA 
HETATM   15  H   UNL     1      -4.207   9.265  69.354  1.00  0.00     0.000 HD 
BRANCH  14  16
HETATM   16  C   UNL     1      -5.734  10.614  68.603  1.00  0.00    -0.040 C  
HETATM   17  C   UNL     1      -6.923  11.213  69.323  1.00  0.00    -0.118 C  
HETATM   18  C   UNL     1      -5.561  11.845  69.441  1.00  0.00    -0.067 C  
BRANCH  17  19
HETATM   19  C   UNL     1      -8.028  11.809  68.487  1.00  0.00    -0.145 A  
HETATM   20  C   UNL     1      -9.889  13.339  68.146  1.00  0.00    -0.231 A  
HETATM   21  C   UNL     1      -8.870  12.830  68.953  1.00  0.00     0.333 A  
HETATM   22  F   UNL     1     -10.667  14.322  68.617  1.00  0.00    -0.221 F  
HETATM   23  C   UNL     1     -10.091  12.836  66.868  1.00  0.00    -0.232 A  
HETATM   24  C   UNL     1      -8.262  11.313  67.188  1.00  0.00    -0.149 A  
HETATM   25  F   UNL     1     -11.072  13.326  66.099  1.00  0.00    -0.281 F  
HETATM   26  C   UNL     1      -9.283  11.820  66.381  1.00  0.00    -0.223 A  
ENDBRANCH  17  19
ENDBRANCH  14  16
ENDBRANCH  10  14
BRANCH  13  27
HETATM   27  C   UNL     1      -9.795   6.202  71.325  1.00  0.00    -0.176 C  
HETATM   28  C   UNL     1      -9.981   6.365  72.843  1.00  0.00    -0.186 C  
HETATM   29  C   UNL     1      -8.922   5.448  73.457  1.00  0.00    -0.125 C  
HETATM   30  H   UNL     1     -10.676   3.134  70.892  1.00  0.00     0.000 HD 
HETATM   31  C   UNL     1      -8.920   4.224  72.508  1.00  0.00    -0.111 C  
HETATM   32  H   UNL     1      -9.697   2.378  72.440  1.00  0.00     0.000 HD 
HETATM   33  O   UNL     1     -10.829   4.067  70.987  1.00  0.00     0.764 OA 
HETATM   34  C   UNL     1      -9.548   4.702  71.174  1.00  0.00    -0.171 C  
HETATM   35  O   UNL     1      -9.699   3.128  73.022  1.00  0.00    -0.099 OA 
BRANCH  29  36
HETATM   36  O   UNL     1      -7.626   6.060  73.470  1.00  0.00    -0.096 OA 
BRANCH  36  37
HETATM   37  C   UNL     1      -7.661   7.477  73.702  1.00  0.00    -0.117 C  
BRANCH  37  38
HETATM   38  C   UNL     1      -6.292   8.082  73.400  1.00  0.00    -0.089 C  
HETATM   39  H   UNL     1      -5.482   9.870  73.376  1.00  0.00     0.000 HD 
HETATM   40  O   UNL     1      -6.334   9.494  73.565  1.00  0.00    -0.180 OA 
ENDBRANCH  37  38
ENDBRANCH  36  37
ENDBRANCH  29  36
ENDBRANCH  13  27
ENDBRANCH   4   5
ENDBRANCH   3   4
ENDBRANCH   2   3
TORSDOF 10
ENDMDL
MODEL      232
REMARK 921   NORMALIZED FREE ENERGY PREDICTED BY IDOCK:    1.36 KCAL/MOL
REMARK 922        TOTAL FREE ENERGY PREDICTED BY IDOCK:    0.09 KCAL/MOL
REMARK 923 INTER-LIGAND FREE ENERGY PREDICTED BY IDOCK:   -1.13 KCAL/MOL
REMARK 924 INTRA-LIGAND FREE ENERGY PREDICTED BY IDOCK:    1.22 KCAL/MOL
REMARK 927      BINDING AFFINITY PREDICTED BY RF-SCORE:    0.00 PKD
ROOT
HETATM    1  C   UNL     1      -5.867  16.546  69.423  1.00  0.00    -0.167 C  
HETATM    2  C   UNL     1      -5.534  15.415  68.460  1.00  0.00    -0.096 C  
ENDROOT
BRANCH   2   3
HETATM    3  C   UNL     1      -5.934  14.041  69.009  1.00  0.00    -0.091 C  
BRANCH   3   4
HETATM    4  S   UNL     1      -7.538  14.192  69.874  1.00  0.00     0.723 SA 
BRANCH   4   5
HETATM    5  C   UNL     1      -8.640  14.370  68.487  1.00  0.00    -0.175 A  
HETATM    6  N   UNL     1      -8.558  15.543  67.818  1.00  0.00    -0.150 NA 
HETATM    7  C   UNL     1      -9.435  15.603  66.801  1.00  0.00    -0.242 A  
HETATM    8  C   UNL     1     -10.335  14.623  66.429  1.00  0.00    -0.289 A  
HETATM    9  N   UNL     1     -11.036  15.029  65.328  1.00  0.00    -0.367 NA 
HETATM   10  C   UNL     1     -10.327  13.425  67.158  1.00  0.00    -0.246 A  
HETATM   11  N   UNL     1      -9.452  13.329  68.202  1.00  0.00    -0.218 NA 
HETATM   12  N   UNL     1     -10.590  16.231  64.976  1.00  0.00    -0.659 NA 
HETATM   13  N   UNL     1      -9.600  16.571  65.843  1.00  0.00    -0.483 NA 
BRANCH  10  14
HETATM   14  N   UNL     1     -11.157  12.347  66.788  1.00  0.00    -0.270 NA 
HETATM   15  H   UNL     1     -12.163  12.380  66.954  1.00  0.00     0.000 HD 
BRANCH  14  16
HETATM   16  C   UNL     1     -10.539  11.179  66.157  1.00  0.00    -0.248 C  
HETATM   17  C   UNL     1      -9.167  10.710  66.591  1.00  0.00    -0.184 C  
HETATM   18  C   UNL     1     -10.390   9.892  66.913  1.00  0.00    -0.300 C  
BRANCH  17  19
HETATM   19  C   UNL     1      -8.183  10.316  65.518  1.00  0.00    -0.158 A  
HETATM   20  C   UNL     1      -7.599   9.224  63.423  1.00  0.00    -0.110 A  
HETATM   21  C   UNL     1      -8.550   9.578  64.382  1.00  0.00    -0.213 A  
HETATM   22  F   UNL     1      -7.984   8.530  62.345  1.00  0.00    -0.119 F  
HETATM   23  C   UNL     1      -6.269   9.591  63.583  1.00  0.00    -0.098 A  
HETATM   24  C   UNL     1      -6.824  10.668  65.657  1.00  0.00    -0.075 A  
HETATM   25  F   UNL     1      -5.360   9.247  62.662  1.00  0.00    -0.080 F  
HETATM   26  C   UNL     1      -5.872  10.311  64.699  1.00  0.00    -0.133 A  
ENDBRANCH  17  19
ENDBRANCH  14  16
ENDBRANCH  10  14
BRANCH  13  27
HETATM   27  C   UNL     1      -8.890  17.808  65.591  1.00  0.00     0.633 C  
HETATM   28  C   UNL     1      -7.716  18.038  66.558  1.00  0.00    -0.283 C  
HETATM   29  C   UNL     1      -8.348  18.734  67.764  1.00  0.00    -0.271 C  
HETATM   30  H   UNL     1      -9.663  20.829  64.782  1.00  0.00     0.000 HD 
HETATM   31  C   UNL     1      -9.400  19.672  67.122  1.00  0.00    -0.337 C  
HETATM   32  H   UNL     1      -9.574  21.600  66.605  1.00  0.00     0.000 HD 
HETATM   33  O   UNL     1      -9.170  20.020  64.711  1.00  0.00     1.040 OA 
HETATM   34  C   UNL     1      -9.683  19.109  65.705  1.00  0.00     0.368 C  
HETATM   35  O   UNL     1      -8.928  21.026  66.998  1.00  0.00    -0.110 OA 
BRANCH  29  36
HETATM   36  O   UNL     1      -8.992  17.803  68.643  1.00  0.00    -0.287 OA 
BRANCH  36  37
HETATM   37  C   UNL     1      -9.990  18.402  69.484  1.00  0.00     0.241 C  
BRANCH  37  38
HETATM   38  C   UNL     1     -11.376  18.160  68.890  1.00  0.00     1.798 C  
HETATM   39  H   UNL     1     -12.701  16.711  68.871  1.00  0.00     0.000 HD 
HETATM   40  O   UNL     1     -11.838  16.861  69.241  1.00  0.00     0.524 OA 
ENDBRANCH  37  38
ENDBRANCH  36  37
ENDBRANCH  29  36
ENDBRANCH  13  27
ENDBRANCH   4   5
ENDBRANCH   3   4
ENDBRANCH   2   3
TORSDOF 10
ENDMDL
MODEL      233
REMARK 921   NORMALIZED FREE ENERGY PREDICTED BY IDOCK:    2.05 KCAL/MOL
REMARK 922        TOTAL FREE ENERGY PREDICTED BY IDOCK:    1.19 KCAL/MOL
REMARK 923 INTER-LIGAND FREE ENERGY PREDICTED BY IDOCK:    1.22 KCAL/MOL
REMARK 924 INTRA-LIGAND FREE ENERGY PREDICTED BY IDOCK:   -0.04 KCAL/MOL
REMARK 927      BINDING AFFINITY PREDICTED BY RF-SCORE:    0.00 PKD
ROOT
HETATM    1  C   UNL     1      -6.864  17.046  72.041  1.00  0.00     6.336 C  
HETATM    2  C   UNL     1      -5.749  16.794  71.034  1.00  0.00     0.382 C  
ENDROOT
BRANCH   2   3
HETATM    3  C   UNL     1      -5.128  15.402  71.185  1.00  0.00    -0.152 C  
BRANCH   3   4
HETATM    4  S   UNL     1      -6.432  14.222  71.685  1.00  0.00     1.256 SA 
BRANCH   4   5
HETATM    5  C   UNL     1      -6.872  13.533  70.104  1.00  0.00     0.434 A  
HETATM    6  N   UNL     1      -7.757  14.251  69.376  1.00  0.00     0.046 NA 
HETATM    7  C   UNL     1      -8.050  13.653  68.208  1.00  0.00    -0.155 A  
HETATM    8  C   UNL     1      -7.543  12.454  67.747  1.00  0.00    -0.134 A  
HETATM    9  N   UNL     1      -8.046  12.183  66.504  1.00  0.00     0.020 NA 
HETATM   10  C   UNL     1      -6.605  11.793  68.553  1.00  0.00    -0.059 A  
HETATM   11  N   UNL     1      -6.286  12.369  69.749  1.00  0.00    -0.133 NA 
HETATM   12  N   UNL     1      -8.840  13.190  66.154  1.00  0.00     0.212 NA 
HETATM   13  N   UNL     1      -8.823  14.097  67.166  1.00  0.00    -0.219 NA 
BRANCH  10  14
HETATM   14  N   UNL     1      -5.981  10.607  68.113  1.00  0.00    -0.047 NA 
HETATM   15  H   UNL     1      -5.185  10.640  67.476  1.00  0.00     0.000 HD 
BRANCH  14  16
HETATM   16  C   UNL     1      -6.504   9.327  68.595  1.00  0.00    -0.053 C  
HETATM   17  C   UNL     1      -7.921   8.906  68.268  1.00  0.00    -0.105 C  
HETATM   18  C   UNL     1      -6.750   8.195  67.643  1.00  0.00    -0.062 C  
BRANCH  17  19
HETATM   19  C   UNL     1      -8.749   8.297  69.372  1.00  0.00    -0.142 A  
HETATM   20  C   UNL     1     -10.682   8.262  70.849  1.00  0.00    -0.218 A  
HETATM   21  C   UNL     1      -9.958   8.855  69.813  1.00  0.00    -0.196 A  
HETATM   22  F   UNL     1     -11.839   8.812  71.238  1.00  0.00    -0.296 F  
HETATM   23  C   UNL     1     -10.210   7.111  71.468  1.00  0.00    -0.197 A  
HETATM   24  C   UNL     1      -8.291   7.133  70.023  1.00  0.00    -0.138 A  
HETATM   25  F   UNL     1     -10.906   6.548  72.462  1.00  0.00    -0.221 F  
HETATM   26  C   UNL     1      -9.013   6.541  71.062  1.00  0.00    -0.146 A  
ENDBRANCH  17  19
ENDBRANCH  14  16
ENDBRANCH  10  14
BRANCH  13  27
HETATM   27  C   UNL     1      -9.543  15.337  66.961  1.00  0.00    -0.224 C  
HETATM   28  C   UNL     1     -11.063  15.190  67.140  1.00  0.00    -0.335 C  
HETATM   29  C   UNL     1     -11.568  14.755  65.763  1.00  0.00    -0.290 C  
HETATM   30  H   UNL     1      -9.370  17.837  64.936  1.00  0.00     0.000 HD 
HETATM   31  C   UNL     1     -10.682  15.571  64.787  1.00  0.00    -0.304 C  
HETATM   32  H   UNL     1     -10.802  17.250  63.700  1.00  0.00     0.000 HD 
HETATM   33  O   UNL     1      -9.442  17.426  65.789  1.00  0.00    -0.523 OA 
HETATM   34  C   UNL     1      -9.426  15.998  65.588  1.00  0.00    -0.140 C  
HETATM   35  O   UNL     1     -11.345  16.751  64.298  1.00  0.00    -1.170 OA 
BRANCH  29  36
HETATM   36  O   UNL     1     -11.378  13.352  65.541  1.00  0.00    -0.292 OA 
BRANCH  36  37
HETATM   37  C   UNL     1     -11.073  13.022  64.177  1.00  0.00    -0.401 C  
BRANCH  37  38
HETATM   38  C   UNL     1     -12.346  13.079  63.337  1.00  0.00    -0.394 C  
HETATM   39  H   UNL     1     -13.867  11.900  62.946  1.00  0.00     0.000 HD 
HETATM   40  O   UNL     1     -13.075  11.864  63.470  1.00  0.00    -0.715 OA 
ENDBRANCH  37  38
ENDBRANCH  36  37
ENDBRANCH  29  36
ENDBRANCH  13  27
ENDBRANCH   4   5
ENDBRANCH   3   4
ENDBRANCH   2   3
TORSDOF 10
ENDMDL
MODEL      234
REMARK 921   NORMALIZED FREE ENERGY PREDICTED BY IDOCK:    2.08 KCAL/MOL
REMARK 922        TOTAL FREE ENERGY PREDICTED BY IDOCK:    1.24 KCAL/MOL
REMARK 923 INTER-LIGAND FREE ENERGY PREDICTED BY IDOCK:    1.98 KCAL/MOL
REMARK 924 INTRA-LIGAND FREE ENERGY PREDICTED BY IDOCK:   -0.74 KCAL/MOL
REMARK 927      BINDING AFFINITY PREDICTED BY RF-SCORE:    0.00 PKD
ROOT
HETATM    1  C   UNL     1     -13.546  11.528  64.468  1.00  0.00     2.933 C  
HETATM    2  C   UNL     1     -13.256  12.710  63.553  1.00  0.00     0.563 C  
ENDROOT
BRANCH   2   3
HETATM    3  C   UNL     1     -12.079  13.557  64.048  1.00  0.00    -0.441 C  
BRANCH   3   4
HETATM    4  S   UNL     1     -12.318  13.925  65.823  1.00  0.00    -0.492 SA 
BRANCH   4   5
HETATM    5  C   UNL     1     -10.779  13.328  66.488  1.00  0.00    -0.285 A  
HETATM    6  N   UNL     1      -9.715  14.148  66.334  1.00  0.00    -0.289 NA 
HETATM    7  C   UNL     1      -8.591  13.616  66.845  1.00  0.00    -0.104 A  
HETATM    8  C   UNL     1      -8.470  12.387  67.466  1.00  0.00    -0.175 A  
HETATM    9  N   UNL     1      -7.181  12.203  67.884  1.00  0.00    -0.092 NA 
HETATM   10  C   UNL     1      -9.633  11.617  67.612  1.00  0.00    -0.181 A  
HETATM   11  N   UNL     1     -10.792  12.124  67.101  1.00  0.00    -0.235 NA 
HETATM   12  N   UNL     1      -6.486  13.291  67.568  1.00  0.00    -0.208 NA 
HETATM   13  N   UNL     1      -7.339  14.162  66.967  1.00  0.00     0.083 NA 
BRANCH  10  14
HETATM   14  N   UNL     1      -9.605  10.390  68.307  1.00  0.00    -0.141 NA 
HETATM   15  H   UNL     1     -10.210  10.232  69.113  1.00  0.00     0.000 HD 
BRANCH  14  16
HETATM   16  C   UNL     1      -8.685   9.349  67.843  1.00  0.00    -0.120 C  
HETATM   17  C   UNL     1      -9.217   8.096  67.181  1.00  0.00    -0.175 C  
HETATM   18  C   UNL     1      -8.464   9.123  66.377  1.00  0.00    -0.129 C  
BRANCH  17  19
HETATM   19  C   UNL     1      -8.614   6.774  67.583  1.00  0.00    -0.121 A  
HETATM   20  C   UNL     1      -8.768   4.402  68.107  1.00  0.00    -0.101 A  
HETATM   21  C   UNL     1      -9.371   5.600  67.716  1.00  0.00    -0.113 A  
HETATM   22  F   UNL     1      -9.517   3.297  68.212  1.00  0.00    -0.208 F  
HETATM   23  C   UNL     1      -7.407   4.356  68.379  1.00  0.00    -0.064 A  
HETATM   24  C   UNL     1      -7.236   6.698  67.874  1.00  0.00    -0.091 A  
HETATM   25  F   UNL     1      -6.835   3.206  68.756  1.00  0.00    -0.041 F  
HETATM   26  C   UNL     1      -6.633   5.501  68.268  1.00  0.00    -0.049 A  
ENDBRANCH  17  19
ENDBRANCH  14  16
ENDBRANCH  10  14
BRANCH  13  27
HETATM   27  C   UNL     1      -6.822  15.471  66.624  1.00  0.00     0.877 C  
HETATM   28  C   UNL     1      -5.579  15.862  67.441  1.00  0.00    -0.063 C  
HETATM   29  C   UNL     1      -6.145  16.500  68.711  1.00  0.00    -0.135 C  
HETATM   30  H   UNL     1      -8.053  18.358  65.896  1.00  0.00     0.000 HD 
HETATM   31  C   UNL     1      -7.374  17.289  68.194  1.00  0.00    -0.199 C  
HETATM   32  H   UNL     1      -7.844  19.171  67.691  1.00  0.00     0.000 HD 
HETATM   33  O   UNL     1      -7.476  17.613  65.772  1.00  0.00    -0.512 OA 
HETATM   34  C   UNL     1      -7.750  16.667  66.825  1.00  0.00    -0.257 C  
HETATM   35  O   UNL     1      -7.091  18.688  68.007  1.00  0.00    -0.229 OA 
BRANCH  29  36
HETATM   36  O   UNL     1      -6.560  15.515  69.666  1.00  0.00    -0.160 OA 
BRANCH  36  37
HETATM   37  C   UNL     1      -6.689  16.027  71.001  1.00  0.00     1.839 C  
BRANCH  37  38
HETATM   38  C   UNL     1      -5.351  16.598  71.464  1.00  0.00     0.246 C  
HETATM   39  H   UNL     1      -4.423  16.892  73.169  1.00  0.00     0.000 HD 
HETATM   40  O   UNL     1      -5.256  16.536  72.882  1.00  0.00     0.844 OA 
ENDBRANCH  37  38
ENDBRANCH  36  37
ENDBRANCH  29  36
ENDBRANCH  13  27
ENDBRANCH   4   5
ENDBRANCH   3   4
ENDBRANCH   2   3
TORSDOF 10
ENDMDL
MODEL      235
REMARK 921   NORMALIZED FREE ENERGY PREDICTED BY IDOCK:    2.19 KCAL/MOL
REMARK 922        TOTAL FREE ENERGY PREDICTED BY IDOCK:    1.40 KCAL/MOL
REMARK 923 INTER-LIGAND FREE ENERGY PREDICTED BY IDOCK:    1.58 KCAL/MOL
REMARK 924 INTRA-LIGAND FREE ENERGY PREDICTED BY IDOCK:   -0.17 KCAL/MOL
REMARK 927      BINDING AFFINITY PREDICTED BY RF-SCORE:    0.00 PKD
ROOT
HETATM    1  C   UNL     1      -5.355  16.876  69.316  1.00  0.00    -0.136 C  
HETATM    2  C   UNL     1      -5.182  15.707  68.356  1.00  0.00    -0.100 C  
ENDROOT
BRANCH   2   3
HETATM    3  C   UNL     1      -5.723  14.393  68.930  1.00  0.00    -0.082 C  
BRANCH   3   4
HETATM    4  S   UNL     1      -7.226  14.748  69.909  1.00  0.00     0.063 SA 
BRANCH   4   5
HETATM    5  C   UNL     1      -8.461  14.725  68.628  1.00  0.00    -0.167 A  
HETATM    6  N   UNL     1      -8.650  15.893  67.973  1.00  0.00    -0.163 NA 
HETATM    7  C   UNL     1      -9.611  15.796  67.038  1.00  0.00    -0.226 A  
HETATM    8  C   UNL     1     -10.352  14.670  66.732  1.00  0.00    -0.268 A  
HETATM    9  N   UNL     1     -11.211  14.944  65.704  1.00  0.00    -0.346 NA 
HETATM   10  C   UNL     1     -10.066  13.494  67.440  1.00  0.00    -0.237 A  
HETATM   11  N   UNL     1      -9.098  13.556  68.400  1.00  0.00    -0.184 NA 
HETATM   12  N   UNL     1     -11.019  16.206  65.333  1.00  0.00    -0.274 NA 
HETATM   13  N   UNL     1     -10.031  16.718  66.114  1.00  0.00    -0.330 NA 
BRANCH  10  14
HETATM   14  N   UNL     1     -10.722  12.285  67.127  1.00  0.00    -0.228 NA 
HETATM   15  H   UNL     1     -11.730  12.260  66.981  1.00  0.00     0.000 HD 
BRANCH  14  16
HETATM   16  C   UNL     1      -9.917  11.066  67.019  1.00  0.00    -0.190 C  
HETATM   17  C   UNL     1     -10.577   9.735  66.730  1.00  0.00    -0.208 C  
HETATM   18  C   UNL     1      -9.714  10.400  65.691  1.00  0.00    -0.294 C  
BRANCH  17  19
HETATM   19  C   UNL     1     -10.120   8.534  67.520  1.00  0.00    -0.282 A  
HETATM   20  C   UNL     1     -10.056   6.143  67.965  1.00  0.00    -0.153 A  
HETATM   21  C   UNL     1     -10.492   7.221  67.193  1.00  0.00    -0.394 A  
HETATM   22  F   UNL     1     -10.418   4.901  67.619  1.00  0.00    -0.198 F  
HETATM   23  C   UNL     1      -9.251   6.354  69.078  1.00  0.00    -0.129 A  
HETATM   24  C   UNL     1      -9.309   8.719  68.659  1.00  0.00    -0.141 A  
HETATM   25  F   UNL     1      -8.838   5.317  69.816  1.00  0.00    -0.100 F  
HETATM   26  C   UNL     1      -8.876   7.640  69.434  1.00  0.00    -0.139 A  
ENDBRANCH  17  19
ENDBRANCH  14  16
ENDBRANCH  10  14
BRANCH  13  27
HETATM   27  C   UNL     1      -9.578  18.062  65.819  1.00  0.00     0.267 C  
HETATM   28  C   UNL     1      -8.548  18.588  66.833  1.00  0.00    -0.281 C  
HETATM   29  C   UNL     1      -9.394  19.199  67.952  1.00  0.00    -0.315 C  
HETATM   30  H   UNL     1     -10.903  20.802  64.763  1.00  0.00     0.000 HD 
HETATM   31  C   UNL     1     -10.570  19.856  67.187  1.00  0.00    -0.396 C  
HETATM   32  H   UNL     1     -11.105  21.673  66.531  1.00  0.00     0.000 HD 
HETATM   33  O   UNL     1     -10.249  20.112  64.776  1.00  0.00     0.492 OA 
HETATM   34  C   UNL     1     -10.630  19.170  65.799  1.00  0.00    -0.341 C  
HETATM   35  O   UNL     1     -10.383  21.270  66.999  1.00  0.00     0.699 OA 
BRANCH  29  36
HETATM   36  O   UNL     1      -9.891  18.202  68.853  1.00  0.00    -0.350 OA 
BRANCH  36  37
HETATM   37  C   UNL     1     -10.892  18.692  69.758  1.00  0.00     1.892 C  
BRANCH  37  38
HETATM   38  C   UNL     1     -10.234  19.131  71.064  1.00  0.00     2.408 C  
HETATM   39  H   UNL     1     -10.186  18.518  72.929  1.00  0.00     0.000 HD 
HETATM   40  O   UNL     1     -10.596  18.245  72.117  1.00  0.00     2.407 OA 
ENDBRANCH  37  38
ENDBRANCH  36  37
ENDBRANCH  29  36
ENDBRANCH  13  27
ENDBRANCH   4   5
ENDBRANCH   3   4
ENDBRANCH   2   3
TORSDOF 10
ENDMDL
MODEL      236
REMARK 921   NORMALIZED FREE ENERGY PREDICTED BY IDOCK:    2.81 KCAL/MOL
REMARK 922        TOTAL FREE ENERGY PREDICTED BY IDOCK:    2.40 KCAL/MOL
REMARK 923 INTER-LIGAND FREE ENERGY PREDICTED BY IDOCK:    2.26 KCAL/MOL
REMARK 924 INTRA-LIGAND FREE ENERGY PREDICTED BY IDOCK:    0.14 KCAL/MOL
REMARK 927      BINDING AFFINITY PREDICTED BY RF-SCORE:    0.00 PKD
ROOT
HETATM    1  C   UNL     1      -9.786  11.873  66.635  1.00  0.00    -0.219 C  
HETATM    2  C   UNL     1      -9.662  10.358  66.706  1.00  0.00    -0.224 C  
ENDROOT
BRANCH   2   3
HETATM    3  C   UNL     1      -9.392   9.859  68.130  1.00  0.00    -0.131 C  
BRANCH   3   4
HETATM    4  S   UNL     1      -7.625   9.409  68.275  1.00  0.00    -0.082 SA 
BRANCH   4   5
HETATM    5  C   UNL     1      -7.040  10.726  69.320  1.00  0.00    -0.116 A  
HETATM    6  N   UNL     1      -7.255  11.980  68.861  1.00  0.00    -0.108 NA 
HETATM    7  C   UNL     1      -6.767  12.912  69.698  1.00  0.00     0.091 A  
HETATM    8  C   UNL     1      -6.115  12.684  70.895  1.00  0.00     0.444 A  
HETATM    9  N   UNL     1      -5.794  13.876  71.483  1.00  0.00    -0.296 NA 
HETATM   10  C   UNL     1      -5.965  11.353  71.309  1.00  0.00     0.571 A  
HETATM   11  N   UNL     1      -6.446  10.379  70.482  1.00  0.00    -0.262 NA 
HETATM   12  N   UNL     1      -6.245  14.854  70.704  1.00  0.00    -0.091 NA 
HETATM   13  N   UNL     1      -6.861  14.279  69.638  1.00  0.00    -0.118 NA 
BRANCH  10  14
HETATM   14  N   UNL     1      -5.386  11.044  72.557  1.00  0.00    -0.147 NA 
HETATM   15  H   UNL     1      -4.613  11.598  72.926  1.00  0.00     0.000 HD 
BRANCH  14  16
HETATM   16  C   UNL     1      -5.923   9.909  73.311  1.00  0.00     0.778 C  
HETATM   17  C   UNL     1      -6.406   8.669  72.589  1.00  0.00    -0.071 C  
HETATM   18  C   UNL     1      -5.150   8.629  73.418  1.00  0.00    -0.056 C  
BRANCH  17  19
HETATM   19  C   UNL     1      -7.703   8.048  73.044  1.00  0.00    -0.189 A  
HETATM   20  C   UNL     1      -9.065   6.144  73.709  1.00  0.00    -0.128 A  
HETATM   21  C   UNL     1      -7.839   6.675  73.304  1.00  0.00    -0.098 A  
HETATM   22  F   UNL     1      -9.159   4.833  73.961  1.00  0.00    -0.112 F  
HETATM   23  C   UNL     1     -10.175   6.967  73.853  1.00  0.00    -0.350 A  
HETATM   24  C   UNL     1      -8.848   8.857  73.191  1.00  0.00     0.664 A  
HETATM   25  F   UNL     1     -11.349   6.453  74.239  1.00  0.00     0.457 F  
HETATM   26  C   UNL     1     -10.076   8.325  73.593  1.00  0.00     0.832 A  
ENDBRANCH  17  19
ENDBRANCH  14  16
ENDBRANCH  10  14
BRANCH  13  27
HETATM   27  C   UNL     1      -7.524  15.158  68.698  1.00  0.00    -0.124 C  
HETATM   28  C   UNL     1      -8.507  16.131  69.371  1.00  0.00    -0.091 C  
HETATM   29  C   UNL     1      -9.819  15.351  69.453  1.00  0.00    -0.273 C  
HETATM   30  H   UNL     1      -8.788  14.904  65.745  1.00  0.00     0.000 HD 
HETATM   31  C   UNL     1      -9.845  14.560  68.121  1.00  0.00    -0.223 C  
HETATM   32  H   UNL     1     -10.678  14.709  66.304  1.00  0.00     0.000 HD 
HETATM   33  O   UNL     1      -8.255  15.308  66.420  1.00  0.00    -0.121 OA 
HETATM   34  C   UNL     1      -8.382  14.508  67.613  1.00  0.00    -0.180 C  
HETATM   35  O   UNL     1     -10.662  15.194  67.120  1.00  0.00    -0.296 OA 
BRANCH  29  36
HETATM   36  O   UNL     1      -9.834  14.443  70.562  1.00  0.00     1.125 OA 
BRANCH  36  37
HETATM   37  C   UNL     1     -10.182  15.065  71.809  1.00  0.00     2.026 C  
BRANCH  37  38
HETATM   38  C   UNL     1     -11.291  16.088  71.582  1.00  0.00    -0.229 C  
HETATM   39  H   UNL     1     -13.038  16.518  72.371  1.00  0.00     0.000 HD 
HETATM   40  O   UNL     1     -12.347  15.881  72.513  1.00  0.00    -0.401 OA 
ENDBRANCH  37  38
ENDBRANCH  36  37
ENDBRANCH  29  36
ENDBRANCH  13  27
ENDBRANCH   4   5
ENDBRANCH   3   4
ENDBRANCH   2   3
TORSDOF 10
ENDMDL
MODEL      237
REMARK 921   NORMALIZED FREE ENERGY PREDICTED BY IDOCK:    3.30 KCAL/MOL
REMARK 922        TOTAL FREE ENERGY PREDICTED BY IDOCK:    3.16 KCAL/MOL
REMARK 923 INTER-LIGAND FREE ENERGY PREDICTED BY IDOCK:    2.40 KCAL/MOL
REMARK 924 INTRA-LIGAND FREE ENERGY PREDICTED BY IDOCK:    0.75 KCAL/MOL
REMARK 927      BINDING AFFINITY PREDICTED BY RF-SCORE:    0.00 PKD
ROOT
HETATM    1  C   UNL     1     -13.546  11.528  64.468  1.00  0.00     2.933 C  
HETATM    2  C   UNL     1     -13.252  12.711  63.556  1.00  0.00     0.563 C  
ENDROOT
BRANCH   2   3
HETATM    3  C   UNL     1     -12.070  13.552  64.051  1.00  0.00    -0.441 C  
BRANCH   3   4
HETATM    4  S   UNL     1     -12.305  13.915  65.828  1.00  0.00    -0.492 SA 
BRANCH   4   5
HETATM    5  C   UNL     1     -10.768  13.310  66.490  1.00  0.00    -0.285 A  
HETATM    6  N   UNL     1      -9.700  14.125  66.337  1.00  0.00    -0.289 NA 
HETATM    7  C   UNL     1      -8.579  13.586  66.844  1.00  0.00    -0.099 A  
HETATM    8  C   UNL     1      -8.462  12.355  67.462  1.00  0.00    -0.175 A  
HETATM    9  N   UNL     1      -7.174  12.164  67.878  1.00  0.00    -0.092 NA 
HETATM   10  C   UNL     1      -9.628  11.590  67.607  1.00  0.00    -0.171 A  
HETATM   11  N   UNL     1     -10.786  12.104  67.099  1.00  0.00    -0.235 NA 
HETATM   12  N   UNL     1      -6.474  13.250  67.564  1.00  0.00    -0.208 NA 
HETATM   13  N   UNL     1      -7.324  14.126  66.966  1.00  0.00     0.083 NA 
BRANCH  10  14
HETATM   14  N   UNL     1      -9.605  10.361  68.299  1.00  0.00    -0.141 NA 
HETATM   15  H   UNL     1     -10.210  10.204  69.105  1.00  0.00     0.000 HD 
BRANCH  14  16
HETATM   16  C   UNL     1      -8.691   9.317  67.831  1.00  0.00    -0.124 C  
HETATM   17  C   UNL     1      -7.379   9.686  67.173  1.00  0.00    -0.087 C  
HETATM   18  C   UNL     1      -7.397   9.059  68.543  1.00  0.00    -0.077 C  
BRANCH  17  19
HETATM   19  C   UNL     1      -6.971   8.927  65.936  1.00  0.00    -0.080 A  
HETATM   20  C   UNL     1      -5.982   8.792  63.716  1.00  0.00    -0.072 A  
HETATM   21  C   UNL     1      -6.326   9.534  64.847  1.00  0.00    -0.081 A  
HETATM   22  F   UNL     1      -5.356   9.399  62.700  1.00  0.00    -0.080 F  
HETATM   23  C   UNL     1      -6.281   7.437  63.647  1.00  0.00    -0.049 A  
HETATM   24  C   UNL     1      -7.269   7.552  65.834  1.00  0.00    -0.066 A  
HETATM   25  F   UNL     1      -5.951   6.730  62.559  1.00  0.00    -0.035 F  
HETATM   26  C   UNL     1      -6.928   6.809  64.700  1.00  0.00    -0.055 A  
ENDBRANCH  17  19
ENDBRANCH  14  16
ENDBRANCH  10  14
BRANCH  13  27
HETATM   27  C   UNL     1      -6.801  15.434  66.626  1.00  0.00     1.044 C  
HETATM   28  C   UNL     1      -5.556  15.817  67.443  1.00  0.00    -0.024 C  
HETATM   29  C   UNL     1      -6.117  16.454  68.716  1.00  0.00    -0.129 C  
HETATM   30  H   UNL     1      -8.020  18.329  65.909  1.00  0.00     0.000 HD 
HETATM   31  C   UNL     1      -7.343  17.250  68.202  1.00  0.00    -0.199 C  
HETATM   32  H   UNL     1      -7.805  19.136  67.705  1.00  0.00     0.000 HD 
HETATM   33  O   UNL     1      -7.446  17.582  65.781  1.00  0.00    -0.490 OA 
HETATM   34  C   UNL     1      -7.724  16.634  66.832  1.00  0.00    -0.228 C  
HETATM   35  O   UNL     1      -7.053  18.648  68.019  1.00  0.00    -0.229 OA 
BRANCH  29  36
HETATM   36  O   UNL     1      -6.536  15.469  69.668  1.00  0.00    -0.153 OA 
BRANCH  36  37
HETATM   37  C   UNL     1      -6.660  15.978  71.005  1.00  0.00     1.595 C  
BRANCH  37  38
HETATM   38  C   UNL     1      -5.319  16.541  71.468  1.00  0.00     0.227 C  
HETATM   39  H   UNL     1      -4.388  16.826  73.173  1.00  0.00     0.000 HD 
HETATM   40  O   UNL     1      -5.223  16.475  72.885  1.00  0.00     0.844 OA 
ENDBRANCH  37  38
ENDBRANCH  36  37
ENDBRANCH  29  36
ENDBRANCH  13  27
ENDBRANCH   4   5
ENDBRANCH   3   4
ENDBRANCH   2   3
TORSDOF 10
ENDMDL
MODEL      238
REMARK 921   NORMALIZED FREE ENERGY PREDICTED BY IDOCK:    3.68 KCAL/MOL
REMARK 922        TOTAL FREE ENERGY PREDICTED BY IDOCK:    3.76 KCAL/MOL
REMARK 923 INTER-LIGAND FREE ENERGY PREDICTED BY IDOCK:    4.42 KCAL/MOL
REMARK 924 INTRA-LIGAND FREE ENERGY PREDICTED BY IDOCK:   -0.66 KCAL/MOL
REMARK 927      BINDING AFFINITY PREDICTED BY RF-SCORE:    0.00 PKD
ROOT
HETATM    1  C   UNL     1      -9.447  16.644  65.266  1.00  0.00     0.845 C  
HETATM    2  C   UNL     1      -9.610  15.485  66.240  1.00  0.00    -0.338 C  
ENDROOT
BRANCH   2   3
HETATM    3  C   UNL     1     -10.938  15.543  67.002  1.00  0.00    -0.283 C  
BRANCH   3   4
HETATM    4  S   UNL     1     -11.442  13.841  67.443  1.00  0.00    -0.366 SA 
BRANCH   4   5
HETATM    5  C   UNL     1      -9.855  13.108  67.778  1.00  0.00    -0.228 A  
HETATM    6  N   UNL     1      -9.189  13.610  68.842  1.00  0.00     0.073 NA 
HETATM    7  C   UNL     1      -7.995  13.017  69.013  1.00  0.00     0.297 A  
HETATM    8  C   UNL     1      -7.455  12.012  68.234  1.00  0.00    -0.106 A  
HETATM    9  N   UNL     1      -6.238  11.639  68.733  1.00  0.00    -0.050 NA 
HETATM   10  C   UNL     1      -8.230  11.529  67.169  1.00  0.00    -0.161 A  
HETATM   11  N   UNL     1      -9.448  12.111  66.963  1.00  0.00    -0.196 NA 
HETATM   12  N   UNL     1      -6.001  12.363  69.823  1.00  0.00    -0.124 NA 
HETATM   13  N   UNL     1      -7.073  13.177  70.016  1.00  0.00     0.612 NA 
BRANCH  10  14
HETATM   14  N   UNL     1      -7.783  10.449  66.380  1.00  0.00    -0.120 NA 
HETATM   15  H   UNL     1      -8.071  10.358  65.407  1.00  0.00     0.000 HD 
BRANCH  14  16
HETATM   16  C   UNL     1      -6.893   9.462  66.995  1.00  0.00    -0.084 C  
HETATM   17  C   UNL     1      -7.353   8.032  67.189  1.00  0.00    -0.091 C  
HETATM   18  C   UNL     1      -6.290   8.361  66.175  1.00  0.00    -0.050 C  
BRANCH  17  19
HETATM   19  C   UNL     1      -7.043   7.364  68.506  1.00  0.00    -0.084 A  
HETATM   20  C   UNL     1      -6.414   5.435  69.849  1.00  0.00    -0.031 A  
HETATM   21  C   UNL     1      -6.676   6.013  68.606  1.00  0.00    -0.061 A  
HETATM   22  F   UNL     1      -6.053   4.147  69.909  1.00  0.00    -0.019 F  
HETATM   23  C   UNL     1      -6.521   6.189  71.011  1.00  0.00    -0.049 A  
HETATM   24  C   UNL     1      -7.151   8.102  69.702  1.00  0.00    -0.057 A  
HETATM   25  F   UNL     1      -6.270   5.629  72.201  1.00  0.00    -0.037 F  
HETATM   26  C   UNL     1      -6.891   7.523  70.947  1.00  0.00    -0.047 A  
ENDBRANCH  17  19
ENDBRANCH  14  16
ENDBRANCH  10  14
BRANCH  13  27
HETATM   27  C   UNL     1      -7.083  13.992  71.213  1.00  0.00     2.308 C  
HETATM   28  C   UNL     1      -7.807  15.336  71.023  1.00  0.00     2.406 C  
HETATM   29  C   UNL     1      -6.728  16.275  70.481  1.00  0.00     1.014 C  
HETATM   30  H   UNL     1      -5.016  14.701  73.580  1.00  0.00     0.000 HD 
HETATM   31  C   UNL     1      -5.460  15.848  71.263  1.00  0.00     0.144 C  
HETATM   32  H   UNL     1      -4.411  16.446  72.862  1.00  0.00     0.000 HD 
HETATM   33  O   UNL     1      -5.856  14.439  73.223  1.00  0.00    -0.176 OA 
HETATM   34  C   UNL     1      -5.731  14.414  71.787  1.00  0.00    -0.079 C  
HETATM   35  O   UNL     1      -5.189  16.708  72.384  1.00  0.00     0.216 OA 
BRANCH  29  36
HETATM   36  O   UNL     1      -6.520  16.098  69.074  1.00  0.00    -0.136 OA 
BRANCH  36  37
HETATM   37  C   UNL     1      -7.022  17.181  68.277  1.00  0.00    -0.187 C  
BRANCH  37  38
HETATM   38  C   UNL     1      -5.859  17.912  67.611  1.00  0.00    -0.142 C  
HETATM   39  H   UNL     1      -4.974  17.916  65.858  1.00  0.00     0.000 HD 
HETATM   40  O   UNL     1      -5.699  17.461  66.272  1.00  0.00    -0.192 OA 
ENDBRANCH  37  38
ENDBRANCH  36  37
ENDBRANCH  29  36
ENDBRANCH  13  27
ENDBRANCH   4   5
ENDBRANCH   3   4
ENDBRANCH   2   3
TORSDOF 10
ENDMDL
MODEL      239
REMARK 921   NORMALIZED FREE ENERGY PREDICTED BY IDOCK:    4.58 KCAL/MOL
REMARK 922        TOTAL FREE ENERGY PREDICTED BY IDOCK:    5.19 KCAL/MOL
REMARK 923 INTER-LIGAND FREE ENERGY PREDICTED BY IDOCK:    6.10 KCAL/MOL
REMARK 924 INTRA-LIGAND FREE ENERGY PREDICTED BY IDOCK:   -0.91 KCAL/MOL
REMARK 927      BINDING AFFINITY PREDICTED BY RF-SCORE:    0.00 PKD
ROOT
HETATM    1  C   UNL     1     -13.317  10.852  65.441  1.00  0.00     8.643 C  
HETATM    2  C   UNL     1     -12.778  11.851  64.426  1.00  0.00    -0.082 C  
ENDROOT
BRANCH   2   3
HETATM    3  C   UNL     1     -11.524  12.575  64.928  1.00  0.00    -0.325 C  
BRANCH   3   4
HETATM    4  S   UNL     1     -11.904  13.380  66.525  1.00  0.00    -0.406 SA 
BRANCH   4   5
HETATM    5  C   UNL     1     -10.978  12.345  67.639  1.00  0.00    -0.236 A  
HETATM    6  N   UNL     1      -9.633  12.407  67.517  1.00  0.00    -0.182 NA 
HETATM    7  C   UNL     1      -9.011  11.583  68.378  1.00  0.00    -0.173 A  
HETATM    8  C   UNL     1      -9.613  10.750  69.302  1.00  0.00    -0.100 A  
HETATM    9  N   UNL     1      -8.659  10.088  70.023  1.00  0.00    -0.159 NA 
HETATM   10  C   UNL     1     -11.013  10.774  69.381  1.00  0.00    -0.254 A  
HETATM   11  N   UNL     1     -11.678  11.597  68.519  1.00  0.00    -0.344 NA 
HETATM   12  N   UNL     1      -7.467  10.497  69.600  1.00  0.00    -0.152 NA 
HETATM   13  N   UNL     1      -7.672  11.423  68.627  1.00  0.00    -0.131 NA 
BRANCH  10  14
HETATM   14  N   UNL     1     -11.696  10.015  70.354  1.00  0.00    -0.284 NA 
HETATM   15  H   UNL     1     -12.204  10.470  71.111  1.00  0.00     0.000 HD 
BRANCH  14  16
HETATM   16  C   UNL     1     -11.657   8.555  70.248  1.00  0.00     0.007 C  
HETATM   17  C   UNL     1     -10.767   7.743  71.165  1.00  0.00    -0.245 C  
HETATM   18  C   UNL     1     -12.265   7.695  71.315  1.00  0.00    -0.339 C  
BRANCH  17  19
HETATM   19  C   UNL     1      -9.972   6.613  70.559  1.00  0.00    -0.197 A  
HETATM   20  C   UNL     1      -9.604   4.260  70.063  1.00  0.00    -0.204 A  
HETATM   21  C   UNL     1     -10.382   5.273  70.626  1.00  0.00    -0.324 A  
HETATM   22  F   UNL     1     -10.029   2.992  70.132  1.00  0.00    -0.176 F  
HETATM   23  C   UNL     1      -8.403   4.563  69.433  1.00  0.00    -0.070 A  
HETATM   24  C   UNL     1      -8.746   6.890  69.921  1.00  0.00    -0.142 A  
HETATM   25  F   UNL     1      -7.659   3.588  68.897  1.00  0.00    -0.052 F  
HETATM   26  C   UNL     1      -7.965   5.876  69.360  1.00  0.00    -0.102 A  
ENDBRANCH  17  19
ENDBRANCH  14  16
ENDBRANCH  10  14
BRANCH  13  27
HETATM   27  C   UNL     1      -6.505  12.088  68.084  1.00  0.00    -0.054 C  
HETATM   28  C   UNL     1      -5.333  12.156  69.077  1.00  0.00    -0.054 C  
HETATM   29  C   UNL     1      -5.591  13.429  69.885  1.00  0.00    -0.110 C  
HETATM   30  H   UNL     1      -5.927  14.655  66.225  1.00  0.00     0.000 HD 
HETATM   31  C   UNL     1      -6.152  14.413  68.827  1.00  0.00    -0.088 C  
HETATM   32  H   UNL     1      -5.494  15.922  67.684  1.00  0.00     0.000 HD 
HETATM   33  O   UNL     1      -5.828  13.749  66.495  1.00  0.00     1.648 OA 
HETATM   34  C   UNL     1      -6.666  13.545  67.650  1.00  0.00    -0.167 C  
HETATM   35  O   UNL     1      -5.149  15.319  68.333  1.00  0.00    -0.091 OA 
BRANCH  29  36
HETATM   36  O   UNL     1      -6.559  13.219  70.920  1.00  0.00     0.329 OA 
BRANCH  36  37
HETATM   37  C   UNL     1      -6.488  14.186  71.980  1.00  0.00     1.332 C  
BRANCH  37  38
HETATM   38  C   UNL     1      -5.140  14.076  72.687  1.00  0.00    -0.219 C  
HETATM   39  H   UNL     1      -4.367  13.030  74.158  1.00  0.00     0.000 HD 
HETATM   40  O   UNL     1      -5.206  13.098  73.717  1.00  0.00    -0.391 OA 
ENDBRANCH  37  38
ENDBRANCH  36  37
ENDBRANCH  29  36
ENDBRANCH  13  27
ENDBRANCH   4   5
ENDBRANCH   3   4
ENDBRANCH   2   3
TORSDOF 10
ENDMDL
MODEL      240
REMARK 921   NORMALIZED FREE ENERGY PREDICTED BY IDOCK:    4.76 KCAL/MOL
REMARK 922        TOTAL FREE ENERGY PREDICTED BY IDOCK:    5.48 KCAL/MOL
REMARK 923 INTER-LIGAND FREE ENERGY PREDICTED BY IDOCK:   -3.18 KCAL/MOL
REMARK 924 INTRA-LIGAND FREE ENERGY PREDICTED BY IDOCK:    8.66 KCAL/MOL
REMARK 927      BINDING AFFINITY PREDICTED BY RF-SCORE:    0.00 PKD
ROOT
HETATM    1  C   UNL     1      -9.734   4.824  66.940  1.00  0.00    -0.204 C  
HETATM    2  C   UNL     1     -10.662   4.584  65.758  1.00  0.00    -0.130 C  
ENDROOT
BRANCH   2   3
HETATM    3  C   UNL     1      -9.907   4.513  64.426  1.00  0.00     0.059 C  
BRANCH   3   4
HETATM    4  S   UNL     1      -8.303   5.371  64.608  1.00  0.00    -0.127 SA 
BRANCH   4   5
HETATM    5  C   UNL     1      -8.790   6.764  65.603  1.00  0.00    -0.023 A  
HETATM    6  N   UNL     1      -9.227   7.848  64.922  1.00  0.00     0.645 NA 
HETATM    7  C   UNL     1      -9.555   8.860  65.745  1.00  0.00    -0.174 A  
HETATM    8  C   UNL     1      -9.481   8.857  67.125  1.00  0.00    -0.157 A  
HETATM    9  N   UNL     1      -9.930  10.050  67.617  1.00  0.00    -0.169 NA 
HETATM   10  C   UNL     1      -9.049   7.677  67.748  1.00  0.00    -0.130 A  
HETATM   11  N   UNL     1      -8.703   6.630  66.944  1.00  0.00    -0.114 NA 
HETATM   12  N   UNL     1     -10.310  10.803  66.589  1.00  0.00    -0.233 NA 
HETATM   13  N   UNL     1     -10.115  10.078  65.456  1.00  0.00    -0.289 NA 
BRANCH  10  14
HETATM   14  N   UNL     1      -9.026   7.569  69.154  1.00  0.00    -0.136 NA 
HETATM   15  H   UNL     1      -9.249   6.687  69.615  1.00  0.00     0.000 HD 
BRANCH  14  16
HETATM   16  C   UNL     1      -8.672   8.756  69.937  1.00  0.00    -0.135 C  
HETATM   17  C   UNL     1      -9.074  10.135  69.461  1.00  0.00    -0.213 C  
HETATM   18  C   UNL     1      -9.726   9.526  70.674  1.00  0.00    -0.311 C  
BRANCH  17  19
HETATM   19  C   UNL     1      -8.052  11.240  69.554  1.00  0.00     0.378 A  
HETATM   20  C   UNL     1      -7.198  13.443  68.973  1.00  0.00    -0.018 A  
HETATM   21  C   UNL     1      -8.180  12.457  68.866  1.00  0.00     0.215 A  
HETATM   22  F   UNL     1      -7.357  14.598  68.313  1.00  0.00    -0.097 F  
HETATM   23  C   UNL     1      -6.071  13.233  69.756  1.00  0.00    -0.128 A  
HETATM   24  C   UNL     1      -6.893  11.051  70.336  1.00  0.00     0.380 A  
HETATM   25  F   UNL     1      -5.132  14.181  69.853  1.00  0.00    -0.092 F  
HETATM   26  C   UNL     1      -5.909  12.037  70.440  1.00  0.00    -0.157 A  
ENDBRANCH  17  19
ENDBRANCH  14  16
ENDBRANCH  10  14
BRANCH  13  27
HETATM   27  C   UNL     1     -10.558  10.662  64.207  1.00  0.00    -0.012 C  
HETATM   28  C   UNL     1      -9.697  11.856  63.760  1.00  0.00    -0.233 C  
HETATM   29  C   UNL     1     -10.325  13.061  64.461  1.00  0.00    -0.364 C  
HETATM   30  H   UNL     1     -13.381  11.343  62.812  1.00  0.00     0.000 HD 
HETATM   31  C   UNL     1     -11.843  12.757  64.398  1.00  0.00    -0.384 C  
HETATM   32  H   UNL     1     -13.429  13.266  63.283  1.00  0.00     0.000 HD 
HETATM   33  O   UNL     1     -12.500  10.989  62.840  1.00  0.00     0.608 OA 
HETATM   34  C   UNL     1     -11.975  11.231  64.162  1.00  0.00     0.483 C  
HETATM   35  O   UNL     1     -12.499  13.453  63.322  1.00  0.00    -0.739 OA 
BRANCH  29  36
HETATM   36  O   UNL     1      -9.903  13.166  65.827  1.00  0.00    -0.269 OA 
BRANCH  36  37
HETATM   37  C   UNL     1      -9.803  14.520  66.296  1.00  0.00    -0.304 C  
BRANCH  37  38
HETATM   38  C   UNL     1     -11.159  14.985  66.819  1.00  0.00    -0.326 C  
HETATM   39  H   UNL     1     -11.856  15.867  68.429  1.00  0.00     0.000 HD 
HETATM   40  O   UNL     1     -11.012  15.578  68.103  1.00  0.00    -0.287 OA 
ENDBRANCH  37  38
ENDBRANCH  36  37
ENDBRANCH  29  36
ENDBRANCH  13  27
ENDBRANCH   4   5
ENDBRANCH   3   4
ENDBRANCH   2   3
TORSDOF 10
ENDMDL
MODEL      241
REMARK 921   NORMALIZED FREE ENERGY PREDICTED BY IDOCK:    5.83 KCAL/MOL
REMARK 922        TOTAL FREE ENERGY PREDICTED BY IDOCK:    7.17 KCAL/MOL
REMARK 923 INTER-LIGAND FREE ENERGY PREDICTED BY IDOCK:   -1.35 KCAL/MOL
REMARK 924 INTRA-LIGAND FREE ENERGY PREDICTED BY IDOCK:    8.52 KCAL/MOL
REMARK 927      BINDING AFFINITY PREDICTED BY RF-SCORE:    0.00 PKD
ROOT
HETATM    1  C   UNL     1      -7.689  12.931  66.882  1.00  0.00     0.156 C  
HETATM    2  C   UNL     1      -7.094  11.530  66.923  1.00  0.00    -0.135 C  
ENDROOT
BRANCH   2   3
HETATM    3  C   UNL     1      -6.013  11.384  68.001  1.00  0.00    -0.046 C  
BRANCH   3   4
HETATM    4  S   UNL     1      -6.490  10.034  69.138  1.00  0.00    -0.050 SA 
BRANCH   4   5
HETATM    5  C   UNL     1      -8.174  10.487  69.493  1.00  0.00    -0.079 A  
HETATM    6  N   UNL     1      -8.496  11.780  69.262  1.00  0.00     0.383 NA 
HETATM    7  C   UNL     1      -9.777  12.042  69.573  1.00  0.00     1.083 A  
HETATM    8  C   UNL     1     -10.705  11.146  70.070  1.00  0.00     0.224 A  
HETATM    9  N   UNL     1     -11.911  11.768  70.233  1.00  0.00    -0.354 NA 
HETATM   10  C   UNL     1     -10.292   9.818  70.248  1.00  0.00    -0.291 A  
HETATM   11  N   UNL     1      -8.996   9.515  69.945  1.00  0.00    -0.195 NA 
HETATM   12  N   UNL     1     -11.782  13.029  69.830  1.00  0.00    -0.297 NA 
HETATM   13  N   UNL     1     -10.503  13.193  69.401  1.00  0.00     0.227 NA 
BRANCH  10  14
HETATM   14  N   UNL     1     -11.203   8.828  70.672  1.00  0.00    -0.255 NA 
HETATM   15  H   UNL     1     -12.137   9.081  70.996  1.00  0.00     0.000 HD 
BRANCH  14  16
HETATM   16  C   UNL     1     -10.775   7.428  70.636  1.00  0.00    -0.229 C  
HETATM   17  C   UNL     1     -11.520   6.378  71.432  1.00  0.00    -0.363 C  
HETATM   18  C   UNL     1     -11.599   6.395  69.928  1.00  0.00    -0.422 C  
BRANCH  17  19
HETATM   19  C   UNL     1     -10.708   5.361  72.193  1.00  0.00    -0.286 A  
HETATM   20  C   UNL     1      -8.618   4.241  72.738  1.00  0.00    -0.101 A  
HETATM   21  C   UNL     1      -9.324   5.208  72.021  1.00  0.00    -0.164 A  
HETATM   22  F   UNL     1      -7.295   4.130  72.560  1.00  0.00    -0.058 F  
HETATM   23  C   UNL     1      -9.278   3.406  73.631  1.00  0.00    -0.092 A  
HETATM   24  C   UNL     1     -11.352   4.494  73.100  1.00  0.00    -0.318 A  
HETATM   25  F   UNL     1      -8.596   2.479  74.315  1.00  0.00    -0.064 F  
HETATM   26  C   UNL     1     -10.647   3.524  73.816  1.00  0.00    -0.283 A  
ENDBRANCH  17  19
ENDBRANCH  14  16
ENDBRANCH  10  14
BRANCH  13  27
HETATM   27  C   UNL     1     -10.156  14.472  68.815  1.00  0.00    -0.239 C  
HETATM   28  C   UNL     1     -10.092  15.611  69.847  1.00  0.00    -0.272 C  
HETATM   29  C   UNL     1     -11.530  16.125  69.936  1.00  0.00    -0.283 C  
HETATM   30  H   UNL     1     -10.870  16.082  66.118  1.00  0.00     0.000 HD 
HETATM   31  C   UNL     1     -12.028  16.039  68.471  1.00  0.00     0.038 C  
HETATM   32  H   UNL     1     -12.268  17.252  66.894  1.00  0.00     0.000 HD 
HETATM   33  O   UNL     1     -10.287  15.733  66.781  1.00  0.00    -0.280 OA 
HETATM   34  C   UNL     1     -11.095  15.033  67.749  1.00  0.00    -0.310 C  
HETATM   35  O   UNL     1     -11.962  17.306  67.792  1.00  0.00     1.013 OA 
BRANCH  29  36
HETATM   36  O   UNL     1     -12.343  15.300  70.780  1.00  0.00    -0.321 OA 
BRANCH  36  37
HETATM   37  C   UNL     1     -11.673  14.119  71.247  1.00  0.00     0.087 C  
BRANCH  37  38
HETATM   38  C   UNL     1     -11.169  14.343  72.670  1.00  0.00     1.674 C  
HETATM   39  H   UNL     1     -11.483  15.625  74.124  1.00  0.00     0.000 HD 
HETATM   40  O   UNL     1     -11.797  15.486  73.238  1.00  0.00    -0.450 OA 
ENDBRANCH  37  38
ENDBRANCH  36  37
ENDBRANCH  29  36
ENDBRANCH  13  27
ENDBRANCH   4   5
ENDBRANCH   3   4
ENDBRANCH   2   3
TORSDOF 10
ENDMDL
MODEL      242
REMARK 921   NORMALIZED FREE ENERGY PREDICTED BY IDOCK:    6.31 KCAL/MOL
REMARK 922        TOTAL FREE ENERGY PREDICTED BY IDOCK:    7.94 KCAL/MOL
REMARK 923 INTER-LIGAND FREE ENERGY PREDICTED BY IDOCK:    7.87 KCAL/MOL
REMARK 924 INTRA-LIGAND FREE ENERGY PREDICTED BY IDOCK:    0.07 KCAL/MOL
REMARK 927      BINDING AFFINITY PREDICTED BY RF-SCORE:    0.00 PKD
ROOT
HETATM    1  C   UNL     1      -8.256  16.619  65.321  1.00  0.00     2.442 C  
HETATM    2  C   UNL     1      -8.868  15.556  66.223  1.00  0.00    -0.338 C  
ENDROOT
BRANCH   2   3
HETATM    3  C   UNL     1     -10.261  15.947  66.727  1.00  0.00    -0.282 C  
BRANCH   3   4
HETATM    4  S   UNL     1     -11.258  14.430  66.948  1.00  0.00    -0.346 SA 
BRANCH   4   5
HETATM    5  C   UNL     1      -9.993  13.277  67.437  1.00  0.00    -0.233 A  
HETATM    6  N   UNL     1      -9.329  13.582  68.575  1.00  0.00    -0.155 NA 
HETATM    7  C   UNL     1      -8.380  12.674  68.861  1.00  0.00     0.275 A  
HETATM    8  C   UNL     1      -8.071  11.545  68.126  1.00  0.00    -0.146 A  
HETATM    9  N   UNL     1      -7.072  10.846  68.745  1.00  0.00    -0.076 NA 
HETATM   10  C   UNL     1      -8.833  11.291  66.977  1.00  0.00    -0.153 A  
HETATM   11  N   UNL     1      -9.804  12.194  66.653  1.00  0.00    -0.207 NA 
HETATM   12  N   UNL     1      -6.756  11.486  69.867  1.00  0.00    -0.064 NA 
HETATM   13  N   UNL     1      -7.563  12.576  69.958  1.00  0.00     1.399 NA 
BRANCH  10  14
HETATM   14  N   UNL     1      -8.633  10.117  66.221  1.00  0.00    -0.129 NA 
HETATM   15  H   UNL     1      -8.694  10.133  65.204  1.00  0.00     0.000 HD 
BRANCH  14  16
HETATM   16  C   UNL     1      -8.335   8.873  66.935  1.00  0.00    -0.112 C  
HETATM   17  C   UNL     1      -9.401   7.812  67.105  1.00  0.00    -0.185 C  
HETATM   18  C   UNL     1      -8.225   7.574  66.195  1.00  0.00    -0.125 C  
BRANCH  17  19
HETATM   19  C   UNL     1      -9.532   7.153  68.455  1.00  0.00    -0.139 A  
HETATM   20  C   UNL     1      -9.163   7.068  70.859  1.00  0.00    -0.156 A  
HETATM   21  C   UNL     1      -9.030   7.725  69.634  1.00  0.00    -0.143 A  
HETATM   22  F   UNL     1      -8.685   7.648  71.968  1.00  0.00    -0.117 F  
HETATM   23  C   UNL     1      -9.787   5.830  70.929  1.00  0.00    -0.179 A  
HETATM   24  C   UNL     1     -10.154   5.891  68.555  1.00  0.00    -0.210 A  
HETATM   25  F   UNL     1      -9.910   5.203  72.105  1.00  0.00    -0.179 F  
HETATM   26  C   UNL     1     -10.284   5.232  69.780  1.00  0.00    -0.364 A  
ENDBRANCH  17  19
ENDBRANCH  14  16
ENDBRANCH  10  14
BRANCH  13  27
HETATM   27  C   UNL     1      -7.467  13.376  71.162  1.00  0.00     4.788 C  
HETATM   28  C   UNL     1      -7.936  14.827  70.961  1.00  0.00     2.519 C  
HETATM   29  C   UNL     1      -6.692  15.563  70.461  1.00  0.00     0.396 C  
HETATM   30  H   UNL     1      -5.383  13.702  73.597  1.00  0.00     0.000 HD 
HETATM   31  C   UNL     1      -5.545  14.916  71.277  1.00  0.00    -0.020 C  
HETATM   32  H   UNL     1      -4.458  15.315  72.913  1.00  0.00     0.000 HD 
HETATM   33  O   UNL     1      -6.245  13.593  73.212  1.00  0.00     0.158 OA 
HETATM   34  C   UNL     1      -6.081  13.551  71.780  1.00  0.00     0.749 C  
HETATM   35  O   UNL     1      -5.161  15.712  72.413  1.00  0.00     0.000 OA 
BRANCH  29  36
HETATM   36  O   UNL     1      -6.474  15.356  69.060  1.00  0.00    -0.105 OA 
BRANCH  36  37
HETATM   37  C   UNL     1      -6.863  16.474  68.246  1.00  0.00    -0.142 C  
BRANCH  37  38
HETATM   38  C   UNL     1      -6.714  17.767  69.043  1.00  0.00    -0.246 C  
HETATM   39  H   UNL     1      -7.657  19.482  69.194  1.00  0.00     0.000 HD 
HETATM   40  O   UNL     1      -7.751  18.678  68.698  1.00  0.00    -0.306 OA 
ENDBRANCH  37  38
ENDBRANCH  36  37
ENDBRANCH  29  36
ENDBRANCH  13  27
ENDBRANCH   4   5
ENDBRANCH   3   4
ENDBRANCH   2   3
TORSDOF 10
ENDMDL
MODEL      243
REMARK 921   NORMALIZED FREE ENERGY PREDICTED BY IDOCK:    8.03 KCAL/MOL
REMARK 922        TOTAL FREE ENERGY PREDICTED BY IDOCK:   10.66 KCAL/MOL
REMARK 923 INTER-LIGAND FREE ENERGY PREDICTED BY IDOCK:    4.74 KCAL/MOL
REMARK 924 INTRA-LIGAND FREE ENERGY PREDICTED BY IDOCK:    5.93 KCAL/MOL
REMARK 927      BINDING AFFINITY PREDICTED BY RF-SCORE:    0.00 PKD
ROOT
HETATM    1  C   UNL     1     -10.134  11.641  69.713  1.00  0.00     0.942 C  
HETATM    2  C   UNL     1      -9.423  10.573  68.894  1.00  0.00    -0.199 C  
ENDROOT
BRANCH   2   3
HETATM    3  C   UNL     1      -7.900  10.741  68.909  1.00  0.00    -0.136 C  
BRANCH   3   4
HETATM    4  S   UNL     1      -7.449  12.151  67.835  1.00  0.00    -0.130 SA 
BRANCH   4   5
HETATM    5  C   UNL     1      -8.573  11.899  66.479  1.00  0.00    -0.126 A  
HETATM    6  N   UNL     1      -9.103  13.020  65.939  1.00  0.00     0.177 NA 
HETATM    7  C   UNL     1      -9.954  12.741  64.936  1.00  0.00    -0.136 A  
HETATM    8  C   UNL     1     -10.289  11.486  64.465  1.00  0.00    -0.302 A  
HETATM    9  N   UNL     1     -11.159  11.601  63.416  1.00  0.00    -0.383 NA 
HETATM   10  C   UNL     1      -9.666  10.381  65.062  1.00  0.00    -0.300 A  
HETATM   11  N   UNL     1      -8.798  10.626  66.087  1.00  0.00    -0.162 NA 
HETATM   12  N   UNL     1     -11.366  12.895  63.192  1.00  0.00    -0.112 NA 
HETATM   13  N   UNL     1     -10.617  13.591  64.088  1.00  0.00    -0.283 NA 
BRANCH  10  14
HETATM   14  N   UNL     1      -9.894   9.075  64.582  1.00  0.00     0.191 NA 
HETATM   15  H   UNL     1     -10.573   8.902  63.841  1.00  0.00     0.000 HD 
BRANCH  14  16
HETATM   16  C   UNL     1      -9.131   7.974  65.173  1.00  0.00     0.352 C  
HETATM   17  C   UNL     1      -8.203   7.138  64.318  1.00  0.00     0.036 C  
HETATM   18  C   UNL     1      -7.646   8.082  65.351  1.00  0.00    -0.083 C  
BRANCH  17  19
HETATM   19  C   UNL     1      -8.223   5.642  64.509  1.00  0.00    -0.125 A  
HETATM   20  C   UNL     1      -9.363   3.541  64.961  1.00  0.00    -0.155 A  
HETATM   21  C   UNL     1      -9.398   4.924  64.777  1.00  0.00    -0.010 A  
HETATM   22  F   UNL     1     -10.505   2.884  65.204  1.00  0.00     0.261 F  
HETATM   23  C   UNL     1      -8.159   2.852  64.889  1.00  0.00    -0.086 A  
HETATM   24  C   UNL     1      -7.014   4.918  64.449  1.00  0.00    -0.049 A  
HETATM   25  F   UNL     1      -8.131   1.526  65.069  1.00  0.00    -0.068 F  
HETATM   26  C   UNL     1      -6.979   3.534  64.636  1.00  0.00    -0.053 A  
ENDBRANCH  17  19
ENDBRANCH  14  16
ENDBRANCH  10  14
BRANCH  13  27
HETATM   27  C   UNL     1     -10.604  15.034  63.966  1.00  0.00     1.483 C  
HETATM   28  C   UNL     1      -9.499  15.701  64.802  1.00  0.00     1.676 C  
HETATM   29  C   UNL     1     -10.130  15.897  66.181  1.00  0.00    -0.315 C  
HETATM   30  H   UNL     1     -12.796  17.389  63.799  1.00  0.00     0.000 HD 
HETATM   31  C   UNL     1     -11.594  16.280  65.850  1.00  0.00     0.793 C  
HETATM   32  H   UNL     1     -12.715  17.934  65.702  1.00  0.00     0.000 HD 
HETATM   33  O   UNL     1     -12.016  16.921  63.527  1.00  0.00     0.647 OA 
HETATM   34  C   UNL     1     -11.860  15.787  64.404  1.00  0.00    -0.148 C  
HETATM   35  O   UNL     1     -11.817  17.700  65.905  1.00  0.00     2.031 OA 
BRANCH  29  36
HETATM   36  O   UNL     1     -10.102  14.693  66.959  1.00  0.00    -0.245 OA 
BRANCH  36  37
HETATM   37  C   UNL     1      -9.010  14.634  67.889  1.00  0.00    -0.174 C  
BRANCH  37  38
HETATM   38  C   UNL     1      -9.538  14.300  69.282  1.00  0.00     0.189 C  
HETATM   39  H   UNL     1     -10.607  15.190  70.668  1.00  0.00     0.000 HD 
HETATM   40  O   UNL     1     -10.278  15.398  69.802  1.00  0.00    -0.259 OA 
ENDBRANCH  37  38
ENDBRANCH  36  37
ENDBRANCH  29  36
ENDBRANCH  13  27
ENDBRANCH   4   5
ENDBRANCH   3   4
ENDBRANCH   2   3
TORSDOF 10
ENDMDL
MODEL      244
REMARK 921   NORMALIZED FREE ENERGY PREDICTED BY IDOCK:    9.55 KCAL/MOL
REMARK 922        TOTAL FREE ENERGY PREDICTED BY IDOCK:   13.06 KCAL/MOL
REMARK 923 INTER-LIGAND FREE ENERGY PREDICTED BY IDOCK:    7.29 KCAL/MOL
REMARK 924 INTRA-LIGAND FREE ENERGY PREDICTED BY IDOCK:    5.78 KCAL/MOL
REMARK 927      BINDING AFFINITY PREDICTED BY RF-SCORE:    0.00 PKD
ROOT
HETATM    1  C   UNL     1     -10.622  17.221  63.639  1.00  0.00     6.944 C  
HETATM    2  C   UNL     1     -10.111  16.809  65.013  1.00  0.00     0.648 C  
ENDROOT
BRANCH   2   3
HETATM    3  C   UNL     1      -8.731  17.399  65.325  1.00  0.00     1.965 C  
BRANCH   3   4
HETATM    4  S   UNL     1      -7.868  16.295  66.500  1.00  0.00    -0.210 SA 
BRANCH   4   5
HETATM    5  C   UNL     1      -9.017  14.939  66.577  1.00  0.00    -0.253 A  
HETATM    6  N   UNL     1     -10.000  15.054  67.498  1.00  0.00    -0.225 NA 
HETATM    7  C   UNL     1     -10.811  13.981  67.505  1.00  0.00    -0.270 A  
HETATM    8  C   UNL     1     -10.709  12.866  66.696  1.00  0.00    -0.265 A  
HETATM    9  N   UNL     1     -11.730  11.999  66.967  1.00  0.00    -0.571 NA 
HETATM   10  C   UNL     1      -9.677  12.847  65.746  1.00  0.00    -0.146 A  
HETATM   11  N   UNL     1      -8.832  13.918  65.713  1.00  0.00     0.714 NA 
HETATM   12  N   UNL     1     -12.492  12.544  67.910  1.00  0.00     0.128 NA 
HETATM   13  N   UNL     1     -11.960  13.756  68.219  1.00  0.00    -0.370 NA 
BRANCH  10  14
HETATM   14  N   UNL     1      -9.558  11.782  64.829  1.00  0.00    -0.408 NA 
HETATM   15  H   UNL     1     -10.210  11.687  64.050  1.00  0.00     0.000 HD 
BRANCH  14  16
HETATM   16  C   UNL     1      -8.475  10.815  65.023  1.00  0.00    -0.079 C  
HETATM   17  C   UNL     1      -8.339   9.621  64.103  1.00  0.00    -0.171 C  
HETATM   18  C   UNL     1      -7.334  10.741  64.053  1.00  0.00     0.379 C  
BRANCH  17  19
HETATM   19  C   UNL     1      -8.035   8.281  64.726  1.00  0.00    -0.146 A  
HETATM   20  C   UNL     1      -8.653   6.312  66.014  1.00  0.00    -0.146 A  
HETATM   21  C   UNL     1      -8.987   7.541  65.443  1.00  0.00     0.138 A  
HETATM   22  F   UNL     1      -9.589   5.624  66.681  1.00  0.00    -0.131 F  
HETATM   23  C   UNL     1      -7.366   5.804  65.889  1.00  0.00    -0.073 A  
HETATM   24  C   UNL     1      -6.734   7.745  64.621  1.00  0.00    -0.047 A  
HETATM   25  F   UNL     1      -7.050   4.626  66.440  1.00  0.00    -0.067 F  
HETATM   26  C   UNL     1      -6.399   6.517  65.196  1.00  0.00    -0.038 A  
ENDBRANCH  17  19
ENDBRANCH  14  16
ENDBRANCH  10  14
BRANCH  13  27
HETATM   27  C   UNL     1     -12.688  14.583  69.159  1.00  0.00     0.410 C  
HETATM   28  C   UNL     1     -11.909  15.837  69.589  1.00  0.00    -0.352 C  
HETATM   29  C   UNL     1     -11.059  15.370  70.772  1.00  0.00    -0.336 C  
HETATM   30  H   UNL     1     -14.600  14.104  71.707  1.00  0.00     0.000 HD 
HETATM   31  C   UNL     1     -11.999  14.389  71.518  1.00  0.00    -0.226 C  
HETATM   32  H   UNL     1     -13.226  14.400  73.103  1.00  0.00     0.000 HD 
HETATM   33  O   UNL     1     -14.357  14.496  70.876  1.00  0.00    -0.022 OA 
HETATM   34  C   UNL     1     -13.078  13.952  70.494  1.00  0.00     0.004 C  
HETATM   35  O   UNL     1     -12.650  15.002  72.646  1.00  0.00    -0.330 OA 
BRANCH  29  36
HETATM   36  O   UNL     1      -9.876  14.684  70.344  1.00  0.00     0.543 OA 
BRANCH  36  37
HETATM   37  C   UNL     1      -8.838  15.562  69.881  1.00  0.00     0.154 C  
BRANCH  37  38
HETATM   38  C   UNL     1      -9.440  16.642  68.985  1.00  0.00    -0.236 C  
HETATM   39  H   UNL     1      -9.883  18.549  69.128  1.00  0.00     0.000 HD 
HETATM   40  O   UNL     1      -9.508  17.878  69.686  1.00  0.00     0.377 OA 
ENDBRANCH  37  38
ENDBRANCH  36  37
ENDBRANCH  29  36
ENDBRANCH  13  27
ENDBRANCH   4   5
ENDBRANCH   3   4
ENDBRANCH   2   3
TORSDOF 10
ENDMDL
MODEL      245
REMARK 921   NORMALIZED FREE ENERGY PREDICTED BY IDOCK:   10.37 KCAL/MOL
REMARK 922        TOTAL FREE ENERGY PREDICTED BY IDOCK:   14.37 KCAL/MOL
REMARK 923 INTER-LIGAND FREE ENERGY PREDICTED BY IDOCK:    6.56 KCAL/MOL
REMARK 924 INTRA-LIGAND FREE ENERGY PREDICTED BY IDOCK:    7.81 KCAL/MOL
REMARK 927      BINDING AFFINITY PREDICTED BY RF-SCORE:    0.00 PKD
ROOT
HETATM    1  C   UNL     1     -12.795   9.467  71.878  1.00  0.00    -0.497 C  
HETATM    2  C   UNL     1     -11.802   9.820  72.976  1.00  0.00     3.077 C  
ENDROOT
BRANCH   2   3
HETATM    3  C   UNL     1     -10.850  10.948  72.565  1.00  0.00     8.191 C  
BRANCH   3   4
HETATM    4  S   UNL     1     -11.174  11.389  70.820  1.00  0.00     1.337 SA 
BRANCH   4   5
HETATM    5  C   UNL     1     -10.980   9.800  70.042  1.00  0.00    -0.277 A  
HETATM    6  N   UNL     1     -11.070   8.729  70.862  1.00  0.00    -0.257 NA 
HETATM    7  C   UNL     1     -10.893   7.572  70.201  1.00  0.00    -0.249 A  
HETATM    8  C   UNL     1     -10.647   7.425  68.849  1.00  0.00    -0.176 A  
HETATM    9  N   UNL     1     -10.556   6.098  68.535  1.00  0.00    -0.240 NA 
HETATM   10  C   UNL     1     -10.602   8.589  68.068  1.00  0.00    -0.137 A  
HETATM   11  N   UNL     1     -10.774   9.783  68.707  1.00  0.00    -0.221 NA 
HETATM   12  N   UNL     1     -10.762   5.397  69.645  1.00  0.00    -0.273 NA 
HETATM   13  N   UNL     1     -10.997   6.281  70.651  1.00  0.00    -0.288 NA 
BRANCH  10  14
HETATM   14  N   UNL     1     -10.438   8.515  66.669  1.00  0.00    -0.310 NA 
HETATM   15  H   UNL     1     -10.659   7.659  66.161  1.00  0.00     0.000 HD 
BRANCH  14  16
HETATM   16  C   UNL     1      -9.943   9.700  65.964  1.00  0.00    -0.274 C  
HETATM   17  C   UNL     1      -9.439  10.898  66.739  1.00  0.00    -0.200 C  
HETATM   18  C   UNL     1      -8.481  10.033  65.964  1.00  0.00    -0.137 C  
BRANCH  17  19
HETATM   19  C   UNL     1      -9.860  12.269  66.272  1.00  0.00    -0.254 A  
HETATM   20  C   UNL     1     -10.090  14.673  66.570  1.00  0.00    -0.279 A  
HETATM   21  C   UNL     1      -9.670  13.428  67.040  1.00  0.00    -0.239 A  
HETATM   22  F   UNL     1      -9.882  15.761  67.323  1.00  0.00    -0.223 F  
HETATM   23  C   UNL     1     -10.713  14.784  65.334  1.00  0.00    -0.371 A  
HETATM   24  C   UNL     1     -10.502  12.412  65.024  1.00  0.00    -0.324 A  
HETATM   25  F   UNL     1     -11.117  15.981  64.889  1.00  0.00    -0.397 F  
HETATM   26  C   UNL     1     -10.926  13.657  64.555  1.00  0.00    -0.405 A  
ENDBRANCH  17  19
ENDBRANCH  14  16
ENDBRANCH  10  14
BRANCH  13  27
HETATM   27  C   UNL     1     -11.351   5.738  71.946  1.00  0.00    -0.204 C  
HETATM   28  C   UNL     1     -10.921   6.637  73.117  1.00  0.00    -0.263 C  
HETATM   29  C   UNL     1      -9.482   6.211  73.414  1.00  0.00    -0.139 C  
HETATM   30  H   UNL     1     -11.378   2.833  73.338  1.00  0.00     0.000 HD 
HETATM   31  C   UNL     1      -9.516   4.676  73.205  1.00  0.00    -0.124 C  
HETATM   32  H   UNL     1      -9.663   3.014  74.314  1.00  0.00     0.000 HD 
HETATM   33  O   UNL     1     -11.746   3.676  73.103  1.00  0.00     0.032 OA 
HETATM   34  C   UNL     1     -10.758   4.381  72.325  1.00  0.00     0.001 C  
HETATM   35  O   UNL     1      -9.642   3.954  74.443  1.00  0.00    -0.102 OA 
BRANCH  29  36
HETATM   36  O   UNL     1      -8.548   6.809  72.507  1.00  0.00    -0.123 OA 
BRANCH  36  37
HETATM   37  C   UNL     1      -7.561   7.628  73.154  1.00  0.00    -0.107 C  
BRANCH  37  38
HETATM   38  C   UNL     1      -7.970   9.096  73.060  1.00  0.00     1.121 C  
HETATM   39  H   UNL     1      -9.410  10.139  72.227  1.00  0.00     0.000 HD 
HETATM   40  O   UNL     1      -9.156   9.225  72.285  1.00  0.00    -0.112 OA 
ENDBRANCH  37  38
ENDBRANCH  36  37
ENDBRANCH  29  36
ENDBRANCH  13  27
ENDBRANCH   4   5
ENDBRANCH   3   4
ENDBRANCH   2   3
TORSDOF 10
ENDMDL
MODEL      246
REMARK 921   NORMALIZED FREE ENERGY PREDICTED BY IDOCK:   13.87 KCAL/MOL
REMARK 922        TOTAL FREE ENERGY PREDICTED BY IDOCK:   19.92 KCAL/MOL
REMARK 923 INTER-LIGAND FREE ENERGY PREDICTED BY IDOCK:   19.20 KCAL/MOL
REMARK 924 INTRA-LIGAND FREE ENERGY PREDICTED BY IDOCK:    0.72 KCAL/MOL
REMARK 927      BINDING AFFINITY PREDICTED BY RF-SCORE:    0.00 PKD
ROOT
HETATM    1  C   UNL     1      -5.444  16.925  69.334  1.00  0.00    -0.153 C  
HETATM    2  C   UNL     1      -5.742  15.619  68.610  1.00  0.00    -0.098 C  
ENDROOT
BRANCH   2   3
HETATM    3  C   UNL     1      -6.361  14.565  69.536  1.00  0.00    -0.128 C  
BRANCH   3   4
HETATM    4  S   UNL     1      -7.417  15.407  70.769  1.00  0.00     1.891 SA 
BRANCH   4   5
HETATM    5  C   UNL     1      -9.025  15.144  70.052  1.00  0.00     0.354 A  
HETATM    6  N   UNL     1      -9.342  15.945  69.010  1.00  0.00    -0.228 NA 
HETATM    7  C   UNL     1     -10.577  15.696  68.541  1.00  0.00    -0.256 A  
HETATM    8  C   UNL     1     -11.465  14.751  69.019  1.00  0.00    -0.293 A  
HETATM    9  N   UNL     1     -12.609  14.767  68.271  1.00  0.00     0.337 NA 
HETATM   10  C   UNL     1     -11.040  13.942  70.083  1.00  0.00     0.220 A  
HETATM   11  N   UNL     1      -9.792  14.169  70.587  1.00  0.00     2.268 NA 
HETATM   12  N   UNL     1     -12.462  15.679  67.314  1.00  0.00     1.258 NA 
HETATM   13  N   UNL     1     -11.224  16.223  67.453  1.00  0.00    -0.090 NA 
BRANCH  10  14
HETATM   14  N   UNL     1     -11.857  12.901  70.571  1.00  0.00    -0.535 NA 
HETATM   15  H   UNL     1     -12.847  13.057  70.758  1.00  0.00     0.000 HD 
BRANCH  14  16
HETATM   16  C   UNL     1     -11.247  11.590  70.803  1.00  0.00     1.122 C  
HETATM   17  C   UNL     1     -10.657  10.804  69.652  1.00  0.00    -0.222 C  
HETATM   18  C   UNL     1      -9.762  11.409  70.701  1.00  0.00     4.140 C  
BRANCH  17  19
HETATM   19  C   UNL     1     -10.948   9.326  69.584  1.00  0.00    -0.192 A  
HETATM   20  C   UNL     1     -10.322   7.024  69.102  1.00  0.00    -0.201 A  
HETATM   21  C   UNL     1     -10.000   8.381  69.163  1.00  0.00    -0.197 A  
HETATM   22  F   UNL     1      -9.390   6.147  68.708  1.00  0.00    -0.124 F  
HETATM   23  C   UNL     1     -11.594   6.587  69.451  1.00  0.00    -0.180 A  
HETATM   24  C   UNL     1     -12.233   8.854  69.924  1.00  0.00     0.905 A  
HETATM   25  F   UNL     1     -11.899   5.285  69.388  1.00  0.00     1.152 F  
HETATM   26  C   UNL     1     -12.557   7.496  69.860  1.00  0.00     1.280 A  
ENDBRANCH  17  19
ENDBRANCH  14  16
ENDBRANCH  10  14
BRANCH  13  27
HETATM   27  C   UNL     1     -10.801  17.178  66.449  1.00  0.00     0.058 C  
HETATM   28  C   UNL     1      -9.407  17.767  66.726  1.00  0.00    -0.286 C  
HETATM   29  C   UNL     1      -9.675  18.962  67.643  1.00  0.00    -0.314 C  
HETATM   30  H   UNL     1     -12.171  19.537  64.736  1.00  0.00     0.000 HD 
HETATM   31  C   UNL     1     -10.990  19.554  67.079  1.00  0.00    -0.330 C  
HETATM   32  H   UNL     1     -11.567  21.045  65.870  1.00  0.00     0.000 HD 
HETATM   33  O   UNL     1     -11.635  18.762  64.856  1.00  0.00     0.982 OA 
HETATM   34  C   UNL     1     -11.663  18.424  66.257  1.00  0.00     2.558 C  
HETATM   35  O   UNL     1     -10.760  20.682  66.215  1.00  0.00     0.207 OA 
BRANCH  29  36
HETATM   36  O   UNL     1      -9.863  18.560  69.006  1.00  0.00    -0.358 OA 
BRANCH  36  37
HETATM   37  C   UNL     1     -10.100  19.657  69.902  1.00  0.00     0.376 C  
BRANCH  37  38
HETATM   38  C   UNL     1      -8.786  20.086  70.548  1.00  0.00     1.664 C  
HETATM   39  H   UNL     1      -7.965  20.007  72.330  1.00  0.00     0.000 HD 
HETATM   40  O   UNL     1      -8.783  19.739  71.928  1.00  0.00     2.614 OA 
ENDBRANCH  37  38
ENDBRANCH  36  37
ENDBRANCH  29  36
ENDBRANCH  13  27
ENDBRANCH   4   5
ENDBRANCH   3   4
ENDBRANCH   2   3
TORSDOF 10
ENDMDL
MODEL      247
REMARK 921   NORMALIZED FREE ENERGY PREDICTED BY IDOCK:   14.90 KCAL/MOL
REMARK 922        TOTAL FREE ENERGY PREDICTED BY IDOCK:   21.55 KCAL/MOL
REMARK 923 INTER-LIGAND FREE ENERGY PREDICTED BY IDOCK:    6.70 KCAL/MOL
REMARK 924 INTRA-LIGAND FREE ENERGY PREDICTED BY IDOCK:   14.85 KCAL/MOL
REMARK 927      BINDING AFFINITY PREDICTED BY RF-SCORE:    0.00 PKD
ROOT
HETATM    1  C   UNL     1     -11.948  14.597  70.220  1.00  0.00    -0.370 C  
HETATM    2  C   UNL     1     -12.073  15.865  71.053  1.00  0.00    -0.438 C  
ENDROOT
BRANCH   2   3
HETATM    3  C   UNL     1     -13.201  15.777  72.087  1.00  0.00    -0.428 C  
BRANCH   3   4
HETATM    4  S   UNL     1     -13.007  14.232  73.045  1.00  0.00    -0.266 SA 
BRANCH   4   5
HETATM    5  C   UNL     1     -11.974  13.293  71.942  1.00  0.00     1.223 A  
HETATM    6  N   UNL     1     -12.116  11.949  72.005  1.00  0.00     1.153 NA 
HETATM    7  C   UNL     1     -11.287  11.316  71.157  1.00  0.00     1.286 A  
HETATM    8  C   UNL     1     -10.378  11.905  70.298  1.00  0.00     2.285 A  
HETATM    9  N   UNL     1      -9.737  10.943  69.568  1.00  0.00     0.002 NA 
HETATM   10  C   UNL     1     -10.322  13.306  70.276  1.00  0.00     2.364 A  
HETATM   11  N   UNL     1     -11.147  13.983  71.127  1.00  0.00     1.011 NA 
HETATM   12  N   UNL     1     -10.231   9.761  69.923  1.00  0.00    -0.238 NA 
HETATM   13  N   UNL     1     -11.189   9.981  70.860  1.00  0.00    -0.343 NA 
BRANCH  10  14
HETATM   14  N   UNL     1      -9.480  13.982  69.368  1.00  0.00    -0.196 NA 
HETATM   15  H   UNL     1      -8.466  13.903  69.437  1.00  0.00     0.000 HD 
BRANCH  14  16
HETATM   16  C   UNL     1     -10.100  14.800  68.323  1.00  0.00    -0.221 C  
HETATM   17  C   UNL     1      -9.242  15.532  67.313  1.00  0.00    -0.219 C  
HETATM   18  C   UNL     1     -10.081  14.354  66.892  1.00  0.00    -0.259 C  
BRANCH  17  19
HETATM   19  C   UNL     1      -9.609  16.955  66.975  1.00  0.00    -0.252 A  
HETATM   20  C   UNL     1      -9.047  19.286  66.561  1.00  0.00    -0.350 A  
HETATM   21  C   UNL     1      -8.657  17.980  66.861  1.00  0.00    -0.262 A  
HETATM   22  F   UNL     1      -8.113  20.239  66.446  1.00  0.00    -0.311 F  
HETATM   23  C   UNL     1     -10.389  19.595  66.379  1.00  0.00    -0.504 A  
HETATM   24  C   UNL     1     -10.964  17.300  66.793  1.00  0.00     0.175 A  
HETATM   25  F   UNL     1     -10.759  20.850  66.094  1.00  0.00     0.078 F  
HETATM   26  C   UNL     1     -11.355  18.607  66.496  1.00  0.00     0.876 A  
ENDBRANCH  17  19
ENDBRANCH  14  16
ENDBRANCH  10  14
BRANCH  13  27
HETATM   27  C   UNL     1     -11.943   8.834  71.323  1.00  0.00    -0.301 C  
HETATM   28  C   UNL     1     -11.120   7.890  72.217  1.00  0.00    -0.376 C  
HETATM   29  C   UNL     1     -10.427   6.945  71.234  1.00  0.00    -0.208 C  
HETATM   30  H   UNL     1     -14.125   6.811  70.086  1.00  0.00     0.000 HD 
HETATM   31  C   UNL     1     -11.504   6.713  70.145  1.00  0.00    -0.385 C  
HETATM   32  H   UNL     1     -12.875   5.334  69.662  1.00  0.00     0.000 HD 
HETATM   33  O   UNL     1     -13.774   7.399  70.745  1.00  0.00    -0.010 OA 
HETATM   34  C   UNL     1     -12.507   7.889  70.262  1.00  0.00     0.704 C  
HETATM   35  O   UNL     1     -12.215   5.476  70.330  1.00  0.00     1.960 OA 
BRANCH  29  36
HETATM   36  O   UNL     1      -9.260   7.540  70.651  1.00  0.00    -0.158 OA 
BRANCH  36  37
HETATM   37  C   UNL     1      -9.169   7.354  69.230  1.00  0.00    -0.147 C  
BRANCH  37  38
HETATM   38  C   UNL     1      -8.007   6.418  68.908  1.00  0.00    -0.110 C  
HETATM   39  H   UNL     1      -6.305   5.897  69.737  1.00  0.00     0.000 HD 
HETATM   40  O   UNL     1      -7.028   6.480  69.938  1.00  0.00    -0.062 OA 
ENDBRANCH  37  38
ENDBRANCH  36  37
ENDBRANCH  29  36
ENDBRANCH  13  27
ENDBRANCH   4   5
ENDBRANCH   3   4
ENDBRANCH   2   3
TORSDOF 10
ENDMDL
MODEL      248
REMARK 921   NORMALIZED FREE ENERGY PREDICTED BY IDOCK:   15.83 KCAL/MOL
REMARK 922        TOTAL FREE ENERGY PREDICTED BY IDOCK:   23.03 KCAL/MOL
REMARK 923 INTER-LIGAND FREE ENERGY PREDICTED BY IDOCK:   21.35 KCAL/MOL
REMARK 924 INTRA-LIGAND FREE ENERGY PREDICTED BY IDOCK:    1.67 KCAL/MOL
REMARK 927      BINDING AFFINITY PREDICTED BY RF-SCORE:    0.00 PKD
ROOT
HETATM    1  C   UNL     1     -10.417  12.997  71.353  1.00  0.00     7.120 C  
HETATM    2  C   UNL     1      -9.988  11.583  70.989  1.00  0.00     6.001 C  
ENDROOT
BRANCH   2   3
HETATM    3  C   UNL     1      -8.498  11.493  70.644  1.00  0.00     5.243 C  
BRANCH   3   4
HETATM    4  S   UNL     1      -8.164  12.543  69.184  1.00  0.00     0.714 SA 
BRANCH   4   5
HETATM    5  C   UNL     1      -9.135  11.704  67.951  1.00  0.00    -0.171 A  
HETATM    6  N   UNL     1      -9.601  12.477  66.944  1.00  0.00    -0.222 NA 
HETATM    7  C   UNL     1     -10.339  11.772  66.069  1.00  0.00    -0.239 A  
HETATM    8  C   UNL     1     -10.624  10.421  66.132  1.00  0.00    -0.090 A  
HETATM    9  N   UNL     1     -11.375  10.053  65.050  1.00  0.00     2.339 NA 
HETATM   10  C   UNL     1     -10.072   9.690  67.194  1.00  0.00    -0.218 A  
HETATM   11  N   UNL     1      -9.319  10.375  68.104  1.00  0.00    -0.143 NA 
HETATM   12  N   UNL     1     -11.554  11.129  64.289  1.00  0.00     0.180 NA 
HETATM   13  N   UNL     1     -10.905  12.165  64.883  1.00  0.00    -0.297 NA 
BRANCH  10  14
HETATM   14  N   UNL     1     -10.249   8.294  67.280  1.00  0.00    -0.247 NA 
HETATM   15  H   UNL     1     -10.893   7.809  66.656  1.00  0.00     0.000 HD 
BRANCH  14  16
HETATM   16  C   UNL     1      -9.484   7.558  68.289  1.00  0.00    -0.144 C  
HETATM   17  C   UNL     1      -8.260   6.760  67.892  1.00  0.00    -0.117 C  
HETATM   18  C   UNL     1      -8.119   8.022  68.702  1.00  0.00    -0.125 C  
BRANCH  17  19
HETATM   19  C   UNL     1      -8.088   5.386  68.488  1.00  0.00    -0.095 A  
HETATM   20  C   UNL     1      -8.944   3.221  69.199  1.00  0.00    -0.120 A  
HETATM   21  C   UNL     1      -9.149   4.478  68.627  1.00  0.00    -0.164 A  
HETATM   22  F   UNL     1      -9.975   2.374  69.305  1.00  0.00    -0.068 F  
HETATM   23  C   UNL     1      -7.683   2.852  69.650  1.00  0.00    -0.043 A  
HETATM   24  C   UNL     1      -6.821   4.986  68.962  1.00  0.00    -0.051 A  
HETATM   25  F   UNL     1      -7.491   1.647  70.201  1.00  0.00    -0.036 F  
HETATM   26  C   UNL     1      -6.616   3.730  69.538  1.00  0.00    -0.034 A  
ENDBRANCH  17  19
ENDBRANCH  14  16
ENDBRANCH  10  14
BRANCH  13  27
HETATM   27  C   UNL     1     -10.876  13.427  64.174  1.00  0.00    -0.290 C  
HETATM   28  C   UNL     1     -10.452  14.609  65.062  1.00  0.00    -0.447 C  
HETATM   29  C   UNL     1     -11.754  15.086  65.708  1.00  0.00    -0.104 C  
HETATM   30  H   UNL     1     -12.679  14.904  61.950  1.00  0.00     0.000 HD 
HETATM   31  C   UNL     1     -12.793  14.926  64.571  1.00  0.00     0.384 C  
HETATM   32  H   UNL     1     -13.696  16.066  63.191  1.00  0.00     0.000 HD 
HETATM   33  O   UNL     1     -11.864  14.599  62.332  1.00  0.00     2.586 OA 
HETATM   34  C   UNL     1     -12.187  13.918  63.561  1.00  0.00    -0.080 C  
HETATM   35  O   UNL     1     -13.058  16.165  63.888  1.00  0.00     0.066 OA 
BRANCH  29  36
HETATM   36  O   UNL     1     -12.124  14.274  66.829  1.00  0.00    -0.430 OA 
BRANCH  36  37
HETATM   37  C   UNL     1     -11.305  14.487  67.990  1.00  0.00    -0.306 C  
BRANCH  37  38
HETATM   38  C   UNL     1     -11.996  13.904  69.220  1.00  0.00    -0.357 C  
HETATM   39  H   UNL     1     -13.804  13.890  69.986  1.00  0.00     0.000 HD 
HETATM   40  O   UNL     1     -13.375  14.253  69.220  1.00  0.00     1.356 OA 
ENDBRANCH  37  38
ENDBRANCH  36  37
ENDBRANCH  29  36
ENDBRANCH  13  27
ENDBRANCH   4   5
ENDBRANCH   3   4
ENDBRANCH   2   3
TORSDOF 10
ENDMDL
MODEL      249
REMARK 921   NORMALIZED FREE ENERGY PREDICTED BY IDOCK:   17.79 KCAL/MOL
REMARK 922        TOTAL FREE ENERGY PREDICTED BY IDOCK:   26.12 KCAL/MOL
REMARK 923 INTER-LIGAND FREE ENERGY PREDICTED BY IDOCK:   21.23 KCAL/MOL
REMARK 924 INTRA-LIGAND FREE ENERGY PREDICTED BY IDOCK:    4.89 KCAL/MOL
REMARK 927      BINDING AFFINITY PREDICTED BY RF-SCORE:    0.00 PKD
ROOT
HETATM    1  C   UNL     1      -5.460  17.144  69.366  1.00  0.00    -0.171 C  
HETATM    2  C   UNL     1      -6.158  15.829  69.045  1.00  0.00    -0.116 C  
ENDROOT
BRANCH   2   3
HETATM    3  C   UNL     1      -7.017  15.323  70.208  1.00  0.00     0.142 C  
BRANCH   3   4
HETATM    4  S   UNL     1      -7.804  16.754  71.030  1.00  0.00     6.136 SA 
BRANCH   4   5
HETATM    5  C   UNL     1      -9.421  16.707  70.288  1.00  0.00     1.653 A  
HETATM    6  N   UNL     1      -9.525  17.284  69.069  1.00  0.00    -0.196 NA 
HETATM    7  C   UNL     1     -10.779  17.223  68.589  1.00  0.00    -0.280 A  
HETATM    8  C   UNL     1     -11.873  16.653  69.212  1.00  0.00     0.529 A  
HETATM    9  N   UNL     1     -12.972  16.752  68.405  1.00  0.00     2.771 NA 
HETATM   10  C   UNL     1     -11.666  16.047  70.460  1.00  0.00    -0.329 A  
HETATM   11  N   UNL     1     -10.405  16.093  70.980  1.00  0.00     0.832 NA 
HETATM   12  N   UNL     1     -12.601  17.348  67.276  1.00  0.00     4.209 NA 
HETATM   13  N   UNL     1     -11.270  17.608  67.368  1.00  0.00     0.122 NA 
BRANCH  10  14
HETATM   14  N   UNL     1     -12.714  15.372  71.119  1.00  0.00    -0.405 NA 
HETATM   15  H   UNL     1     -13.663  15.746  71.112  1.00  0.00     0.000 HD 
BRANCH  14  16
HETATM   16  C   UNL     1     -12.406  14.121  71.814  1.00  0.00    -0.231 C  
HETATM   17  C   UNL     1     -11.530  13.075  71.159  1.00  0.00     1.670 C  
HETATM   18  C   UNL     1     -11.027  13.859  72.342  1.00  0.00     4.112 C  
BRANCH  17  19
HETATM   19  C   UNL     1     -11.957  11.632  71.260  1.00  0.00     0.287 A  
HETATM   20  C   UNL     1     -11.515   9.276  71.682  1.00  0.00    -0.398 A  
HETATM   21  C   UNL     1     -11.076  10.600  71.617  1.00  0.00     1.861 A  
HETATM   22  F   UNL     1     -10.651   8.317  72.038  1.00  0.00    -0.271 F  
HETATM   23  C   UNL     1     -12.834   8.958  71.386  1.00  0.00    -0.289 A  
HETATM   24  C   UNL     1     -13.288  11.278  70.957  1.00  0.00     0.214 A  
HETATM   25  F   UNL     1     -13.250   7.687  71.448  1.00  0.00    -0.341 F  
HETATM   26  C   UNL     1     -13.727   9.953  71.019  1.00  0.00    -0.048 A  
ENDBRANCH  17  19
ENDBRANCH  14  16
ENDBRANCH  10  14
BRANCH  13  27
HETATM   27  C   UNL     1     -10.619  18.168  66.201  1.00  0.00    -0.274 C  
HETATM   28  C   UNL     1      -9.089  18.020  66.234  1.00  0.00    -0.197 C  
HETATM   29  C   UNL     1      -8.604  19.250  67.004  1.00  0.00    -0.285 C  
HETATM   30  H   UNL     1     -10.975  20.781  64.350  1.00  0.00     0.000 HD 
HETATM   31  C   UNL     1      -9.557  20.370  66.518  1.00  0.00    -0.295 C  
HETATM   32  H   UNL     1      -9.552  21.873  65.192  1.00  0.00     0.000 HD 
HETATM   33  O   UNL     1     -10.857  19.852  64.513  1.00  0.00     0.444 OA 
HETATM   34  C   UNL     1     -10.809  19.662  65.941  1.00  0.00    -0.317 C  
HETATM   35  O   UNL     1      -8.968  21.186  65.489  1.00  0.00     1.400 OA 
BRANCH  29  36
HETATM   36  O   UNL     1      -8.730  19.079  68.421  1.00  0.00    -0.321 OA 
BRANCH  36  37
HETATM   37  C   UNL     1      -7.978  20.033  69.186  1.00  0.00     0.147 C  
BRANCH  37  38
HETATM   38  C   UNL     1      -6.526  20.040  68.714  1.00  0.00    -0.314 C  
HETATM   39  H   UNL     1      -4.804  19.335  69.344  1.00  0.00     0.000 HD 
HETATM   40  O   UNL     1      -5.708  19.331  69.637  1.00  0.00    -0.221 OA 
ENDBRANCH  37  38
ENDBRANCH  36  37
ENDBRANCH  29  36
ENDBRANCH  13  27
ENDBRANCH   4   5
ENDBRANCH   3   4
ENDBRANCH   2   3
TORSDOF 10
ENDMDL
MODEL      250
REMARK 921   NORMALIZED FREE ENERGY PREDICTED BY IDOCK:   66.26 KCAL/MOL
REMARK 922        TOTAL FREE ENERGY PREDICTED BY IDOCK:  102.93 KCAL/MOL
REMARK 923 INTER-LIGAND FREE ENERGY PREDICTED BY IDOCK:   80.40 KCAL/MOL
REMARK 924 INTRA-LIGAND FREE ENERGY PREDICTED BY IDOCK:   22.53 KCAL/MOL
REMARK 927      BINDING AFFINITY PREDICTED BY RF-SCORE:    0.00 PKD
ROOT
HETATM    1  C   UNL     1      -5.263  17.714  69.464  1.00  0.00    -0.178 C  
HETATM    2  C   UNL     1      -5.748  16.324  69.076  1.00  0.00    -0.125 C  
ENDROOT
BRANCH   2   3
HETATM    3  C   UNL     1      -6.544  15.647  70.197  1.00  0.00     0.027 C  
BRANCH   3   4
HETATM    4  S   UNL     1      -8.121  16.543  70.428  1.00  0.00     3.028 SA 
BRANCH   4   5
HETATM    5  C   UNL     1      -9.195  15.588  69.379  1.00  0.00    -0.280 A  
HETATM    6  N   UNL     1      -8.991  15.725  68.049  1.00  0.00    -0.177 NA 
HETATM    7  C   UNL     1      -9.854  14.988  67.330  1.00  0.00    -0.228 A  
HETATM    8  C   UNL     1     -10.850  14.167  67.825  1.00  0.00    -0.252 A  
HETATM    9  N   UNL     1     -11.503  13.553  66.793  1.00  0.00    -0.331 NA 
HETATM   10  C   UNL     1     -10.967  14.059  69.219  1.00  0.00    -0.206 A  
HETATM   11  N   UNL     1     -10.109  14.798  69.982  1.00  0.00     0.135 NA 
HETATM   12  N   UNL     1     -10.935  13.942  65.656  1.00  0.00    -0.286 NA 
HETATM   13  N   UNL     1      -9.917  14.786  65.975  1.00  0.00    -0.296 NA 
BRANCH  10  14
HETATM   14  N   UNL     1     -11.903  13.179  69.799  1.00  0.00    -0.358 NA 
HETATM   15  H   UNL     1     -12.820  13.037  69.377  1.00  0.00     0.000 HD 
BRANCH  14  16
HETATM   16  C   UNL     1     -11.525  12.473  71.026  1.00  0.00     1.677 C  
HETATM   17  C   UNL     1     -10.078  12.114  71.289  1.00  0.00     8.992 C  
HETATM   18  C   UNL     1     -10.763  13.176  72.108  1.00  0.00     8.357 C  
BRANCH  17  19
HETATM   19  C   UNL     1      -9.779  10.737  71.827  1.00  0.00     7.346 A  
HETATM   20  C   UNL     1     -10.417   8.673  72.947  1.00  0.00     0.343 A  
HETATM   21  C   UNL     1     -10.747   9.936  72.451  1.00  0.00     2.743 A  
HETATM   22  F   UNL     1     -11.368   7.929  73.526  1.00  0.00    -0.339 F  
HETATM   23  C   UNL     1      -9.119   8.192  72.837  1.00  0.00    -0.267 A  
HETATM   24  C   UNL     1      -8.468  10.225  71.736  1.00  0.00     4.618 A  
HETATM   25  F   UNL     1      -8.807   6.982  73.316  1.00  0.00    -0.133 F  
HETATM   26  C   UNL     1      -8.137   8.963  72.235  1.00  0.00     0.169 A  
ENDBRANCH  17  19
ENDBRANCH  14  16
ENDBRANCH  10  14
BRANCH  13  27
HETATM   27  C   UNL     1      -9.082  15.261  64.890  1.00  0.00     2.385 C  
HETATM   28  C   UNL     1      -7.729  15.813  65.368  1.00  0.00     4.267 C  
HETATM   29  C   UNL     1      -8.010  17.280  65.695  1.00  0.00     0.564 C  
HETATM   30  H   UNL     1      -9.513  16.891  62.145  1.00  0.00     0.000 HD 
HETATM   31  C   UNL     1      -9.005  17.706  64.586  1.00  0.00     5.707 C  
HETATM   32  H   UNL     1      -8.970  18.669  62.829  1.00  0.00     0.000 HD 
HETATM   33  O   UNL     1      -9.174  16.182  62.680  1.00  0.00    15.630 OA 
HETATM   34  C   UNL     1      -9.629  16.400  64.031  1.00  0.00     6.754 C  
HETATM   35  O   UNL     1      -8.360  18.408  63.508  1.00  0.00    12.012 OA 
BRANCH  29  36
HETATM   36  O   UNL     1      -8.618  17.435  66.984  1.00  0.00    -0.219 OA 
BRANCH  36  37
HETATM   37  C   UNL     1      -8.049  18.497  67.765  1.00  0.00    -0.251 C  
BRANCH  37  38
HETATM   38  C   UNL     1      -6.594  18.173  68.092  1.00  0.00    -0.201 C  
HETATM   39  H   UNL     1      -5.611  17.234  69.509  1.00  0.00     0.000 HD 
HETATM   40  O   UNL     1      -6.517  17.435  69.306  1.00  0.00    -0.228 OA 
ENDBRANCH  37  38
ENDBRANCH  36  37
ENDBRANCH  29  36
ENDBRANCH  13  27
ENDBRANCH   4   5
ENDBRANCH   3   4
ENDBRANCH   2   3
TORSDOF 10
ENDMDL
