MODEL        1
REMARK 921   NORMALIZED FREE ENERGY PREDICTED BY IDOCK:   -6.09 KCAL/MOL
REMARK 922        TOTAL FREE ENERGY PREDICTED BY IDOCK:   -7.17 KCAL/MOL
REMARK 923 INTER-LIGAND FREE ENERGY PREDICTED BY IDOCK:   -6.80 KCAL/MOL
REMARK 924 INTRA-LIGAND FREE ENERGY PREDICTED BY IDOCK:   -0.37 KCAL/MOL
REMARK 927      BINDING AFFINITY PREDICTED BY RF-SCORE:    0.00 PKD
ROOT
HETATM    1 CL   UNL     1     -13.317  15.517  71.419  1.00  0.00    -0.577 Cl 
HETATM    2  C   UNL     1     -12.937  13.843  71.219  1.00  0.00    -0.341 A  
HETATM    3  C   UNL     1     -13.436  12.956  72.180  1.00  0.00    -0.619 A  
HETATM    4  C   UNL     1     -13.184  11.589  72.077  1.00  0.00    -0.443 A  
HETATM    5  C   UNL     1     -12.452  11.099  71.000  1.00  0.00    -0.506 A  
HETATM    6  C   UNL     1     -11.946  11.981  70.046  1.00  0.00    -0.400 A  
HETATM    7  C   UNL     1     -12.155  13.371  70.154  1.00  0.00    -0.415 A  
ENDROOT
BRANCH   7   8
HETATM    8  C   UNL     1     -11.490  14.285  69.143  1.00  0.00    -0.291 C  
BRANCH   8   9
HETATM    9  N   UNL     1     -11.157  13.589  67.887  1.00  0.00    -0.256 NA 
HETATM   10  C   UNL     1      -9.793  13.920  67.401  1.00  0.00    -0.237 C  
HETATM   11  C   UNL     1      -9.361  13.005  66.230  1.00  0.00    -0.149 C  
HETATM   12  C   UNL     1     -10.512  12.787  65.300  1.00  0.00    -0.292 A  
HETATM   13  C   UNL     1     -11.804  13.174  65.583  1.00  0.00    -0.430 A  
HETATM   14  C   UNL     1     -12.695  12.782  64.538  1.00  0.00    -0.405 A  
HETATM   15  C   UNL     1     -12.155  13.914  66.845  1.00  0.00    -0.430 C  
HETATM   16  C   UNL     1     -12.045  12.103  63.529  1.00  0.00    -0.550 A  
HETATM   17  S   UNL     1     -10.363  11.961  63.826  1.00  0.00    -0.458 SA 
ENDBRANCH   8   9
ENDBRANCH   7   8
TORSDOF 2
ENDMDL
MODEL        2
REMARK 921   NORMALIZED FREE ENERGY PREDICTED BY IDOCK:   -5.88 KCAL/MOL
REMARK 922        TOTAL FREE ENERGY PREDICTED BY IDOCK:   -6.93 KCAL/MOL
REMARK 923 INTER-LIGAND FREE ENERGY PREDICTED BY IDOCK:   -6.82 KCAL/MOL
REMARK 924 INTRA-LIGAND FREE ENERGY PREDICTED BY IDOCK:   -0.11 KCAL/MOL
REMARK 927      BINDING AFFINITY PREDICTED BY RF-SCORE:    0.00 PKD
ROOT
HETATM    1 CL   UNL     1      -9.810   9.859  65.443  1.00  0.00    -0.380 Cl 
HETATM    2  C   UNL     1     -10.772  11.273  65.192  1.00  0.00    -0.246 A  
HETATM    3  C   UNL     1     -10.979  11.677  63.868  1.00  0.00    -0.478 A  
HETATM    4  C   UNL     1     -11.757  12.799  63.585  1.00  0.00    -0.587 A  
HETATM    5  C   UNL     1     -12.350  13.509  64.625  1.00  0.00    -0.419 A  
HETATM    6  C   UNL     1     -12.139  13.114  65.945  1.00  0.00    -0.501 A  
HETATM    7  C   UNL     1     -11.323  12.007  66.253  1.00  0.00    -0.415 A  
ENDROOT
BRANCH   7   8
HETATM    8  C   UNL     1     -11.047  11.692  67.712  1.00  0.00    -0.249 C  
BRANCH   8   9
HETATM    9  N   UNL     1     -11.622  12.698  68.623  1.00  0.00    -0.294 NA 
HETATM   10  C   UNL     1     -10.738  13.879  68.794  1.00  0.00    -0.262 C  
HETATM   11  C   UNL     1     -11.451  15.027  69.547  1.00  0.00    -0.317 C  
HETATM   12  C   UNL     1     -12.272  14.473  70.667  1.00  0.00    -0.331 A  
HETATM   13  C   UNL     1     -12.511  13.127  70.843  1.00  0.00    -0.407 A  
HETATM   14  C   UNL     1     -13.374  12.903  71.958  1.00  0.00    -0.579 A  
HETATM   15  C   UNL     1     -11.905  12.087  69.941  1.00  0.00    -0.331 C  
HETATM   16  C   UNL     1     -13.761  14.081  72.560  1.00  0.00    -0.547 A  
HETATM   17  S   UNL     1     -13.069  15.452  71.800  1.00  0.00    -0.478 SA 
ENDBRANCH   8   9
ENDBRANCH   7   8
TORSDOF 2
ENDMDL
MODEL        3
REMARK 921   NORMALIZED FREE ENERGY PREDICTED BY IDOCK:   -5.65 KCAL/MOL
REMARK 922        TOTAL FREE ENERGY PREDICTED BY IDOCK:   -6.68 KCAL/MOL
REMARK 923 INTER-LIGAND FREE ENERGY PREDICTED BY IDOCK:   -6.38 KCAL/MOL
REMARK 924 INTRA-LIGAND FREE ENERGY PREDICTED BY IDOCK:   -0.30 KCAL/MOL
REMARK 927      BINDING AFFINITY PREDICTED BY RF-SCORE:    0.00 PKD
ROOT
HETATM    1 CL   UNL     1      -8.711  12.518  66.580  1.00  0.00    -0.152 Cl 
HETATM    2  C   UNL     1     -10.220  12.620  65.745  1.00  0.00    -0.272 A  
HETATM    3  C   UNL     1     -10.437  11.711  64.703  1.00  0.00    -0.354 A  
HETATM    4  C   UNL     1     -11.637  11.723  63.993  1.00  0.00    -0.428 A  
HETATM    5  C   UNL     1     -12.636  12.628  64.338  1.00  0.00    -0.470 A  
HETATM    6  C   UNL     1     -12.421  13.539  65.372  1.00  0.00    -0.540 A  
HETATM    7  C   UNL     1     -11.199  13.571  66.073  1.00  0.00    -0.305 A  
ENDROOT
BRANCH   7   8
HETATM    8  C   UNL     1     -10.988  14.655  67.114  1.00  0.00    -0.316 C  
BRANCH   8   9
HETATM    9  N   UNL     1     -11.771  14.419  68.340  1.00  0.00    -0.319 NA 
HETATM   10  C   UNL     1     -11.661  15.541  69.307  1.00  0.00    -0.357 C  
HETATM   11  C   UNL     1     -12.671  15.401  70.470  1.00  0.00    -0.455 C  
HETATM   12  C   UNL     1     -12.754  13.973  70.906  1.00  0.00    -0.350 A  
HETATM   13  C   UNL     1     -12.172  12.930  70.216  1.00  0.00    -0.362 A  
HETATM   14  C   UNL     1     -12.469  11.679  70.837  1.00  0.00    -0.440 A  
HETATM   15  C   UNL     1     -11.343  13.157  68.982  1.00  0.00    -0.282 C  
HETATM   16  C   UNL     1     -13.272  11.828  71.948  1.00  0.00    -0.362 A  
HETATM   17  S   UNL     1     -13.647  13.471  72.258  1.00  0.00    -0.612 SA 
ENDBRANCH   8   9
ENDBRANCH   7   8
TORSDOF 2
ENDMDL
MODEL        4
REMARK 921   NORMALIZED FREE ENERGY PREDICTED BY IDOCK:   -5.61 KCAL/MOL
REMARK 922        TOTAL FREE ENERGY PREDICTED BY IDOCK:   -6.64 KCAL/MOL
REMARK 923 INTER-LIGAND FREE ENERGY PREDICTED BY IDOCK:   -6.71 KCAL/MOL
REMARK 924 INTRA-LIGAND FREE ENERGY PREDICTED BY IDOCK:    0.07 KCAL/MOL
REMARK 927      BINDING AFFINITY PREDICTED BY RF-SCORE:    0.00 PKD
ROOT
HETATM    1 CL   UNL     1     -11.924  11.582  70.508  1.00  0.00    -0.461 Cl 
HETATM    2  C   UNL     1     -12.488  13.156  70.942  1.00  0.00    -0.323 A  
HETATM    3  C   UNL     1     -13.518  13.228  71.888  1.00  0.00    -0.525 A  
HETATM    4  C   UNL     1     -14.015  14.464  72.299  1.00  0.00    -0.610 A  
HETATM    5  C   UNL     1     -13.468  15.635  71.784  1.00  0.00    -0.525 A  
HETATM    6  C   UNL     1     -12.447  15.568  70.837  1.00  0.00    -0.494 A  
HETATM    7  C   UNL     1     -11.960  14.327  70.377  1.00  0.00    -0.402 A  
ENDROOT
BRANCH   7   8
HETATM    8  C   UNL     1     -10.924  14.321  69.269  1.00  0.00    -0.241 C  
BRANCH   8   9
HETATM    9  N   UNL     1     -10.934  15.566  68.481  1.00  0.00    -0.273 NA 
HETATM   10  C   UNL     1     -10.483  15.354  67.081  1.00  0.00    -0.290 C  
HETATM   11  C   UNL     1     -10.729  16.603  66.201  1.00  0.00    -0.132 C  
HETATM   12  C   UNL     1     -10.402  17.844  66.969  1.00  0.00    -0.362 A  
HETATM   13  C   UNL     1     -10.132  17.853  68.322  1.00  0.00    -0.376 A  
HETATM   14  C   UNL     1      -9.914  19.185  68.789  1.00  0.00    -0.493 A  
HETATM   15  C   UNL     1     -10.086  16.588  69.133  1.00  0.00    -0.287 C  
HETATM   16  C   UNL     1     -10.046  20.117  67.781  1.00  0.00    -0.400 A  
HETATM   17  S   UNL     1     -10.407  19.390  66.272  1.00  0.00    -0.517 SA 
ENDBRANCH   8   9
ENDBRANCH   7   8
TORSDOF 2
ENDMDL
MODEL        5
REMARK 921   NORMALIZED FREE ENERGY PREDICTED BY IDOCK:   -5.57 KCAL/MOL
REMARK 922        TOTAL FREE ENERGY PREDICTED BY IDOCK:   -6.59 KCAL/MOL
REMARK 923 INTER-LIGAND FREE ENERGY PREDICTED BY IDOCK:   -6.26 KCAL/MOL
REMARK 924 INTRA-LIGAND FREE ENERGY PREDICTED BY IDOCK:   -0.33 KCAL/MOL
REMARK 927      BINDING AFFINITY PREDICTED BY RF-SCORE:    0.00 PKD
ROOT
HETATM    1 CL   UNL     1     -13.613  12.806  71.886  1.00  0.00    -0.430 Cl 
HETATM    2  C   UNL     1     -12.788  11.359  71.425  1.00  0.00    -0.397 A  
HETATM    3  C   UNL     1     -13.047  10.209  72.179  1.00  0.00    -0.463 A  
HETATM    4  C   UNL     1     -12.431   9.000  71.857  1.00  0.00    -0.454 A  
HETATM    5  C   UNL     1     -11.570   8.931  70.766  1.00  0.00    -0.301 A  
HETATM    6  C   UNL     1     -11.304  10.077  70.018  1.00  0.00    -0.334 A  
HETATM    7  C   UNL     1     -11.885  11.317  70.352  1.00  0.00    -0.443 A  
ENDROOT
BRANCH   7   8
HETATM    8  C   UNL     1     -11.473  12.547  69.565  1.00  0.00    -0.230 C  
BRANCH   8   9
HETATM    9  N   UNL     1     -11.170  12.238  68.156  1.00  0.00    -0.248 NA 
HETATM   10  C   UNL     1      -9.758  12.535  67.803  1.00  0.00    -0.202 C  
HETATM   11  C   UNL     1      -9.385  11.982  66.406  1.00  0.00    -0.232 C  
HETATM   12  C   UNL     1     -10.514  12.204  65.450  1.00  0.00    -0.270 A  
HETATM   13  C   UNL     1     -11.764  12.639  65.835  1.00  0.00    -0.470 A  
HETATM   14  C   UNL     1     -12.650  12.701  64.717  1.00  0.00    -0.530 A  
HETATM   15  C   UNL     1     -12.080  12.989  67.263  1.00  0.00    -0.245 C  
HETATM   16  C   UNL     1     -12.040  12.294  63.549  1.00  0.00    -0.553 A  
HETATM   17  S   UNL     1     -10.400  11.863  63.792  1.00  0.00    -0.458 SA 
ENDBRANCH   8   9
ENDBRANCH   7   8
TORSDOF 2
ENDMDL
MODEL        6
REMARK 921   NORMALIZED FREE ENERGY PREDICTED BY IDOCK:   -5.56 KCAL/MOL
REMARK 922        TOTAL FREE ENERGY PREDICTED BY IDOCK:   -6.58 KCAL/MOL
REMARK 923 INTER-LIGAND FREE ENERGY PREDICTED BY IDOCK:   -6.22 KCAL/MOL
REMARK 924 INTRA-LIGAND FREE ENERGY PREDICTED BY IDOCK:   -0.36 KCAL/MOL
REMARK 927      BINDING AFFINITY PREDICTED BY RF-SCORE:    0.00 PKD
ROOT
HETATM    1 CL   UNL     1     -10.069  11.685  67.521  1.00  0.00    -0.204 Cl 
HETATM    2  C   UNL     1     -10.863  12.318  66.123  1.00  0.00    -0.279 A  
HETATM    3  C   UNL     1     -10.899  11.504  64.985  1.00  0.00    -0.336 A  
HETATM    4  C   UNL     1     -11.536  11.940  63.824  1.00  0.00    -0.555 A  
HETATM    5  C   UNL     1     -12.160  13.184  63.803  1.00  0.00    -0.563 A  
HETATM    6  C   UNL     1     -12.120  14.000  64.933  1.00  0.00    -0.435 A  
HETATM    7  C   UNL     1     -11.446  13.594  66.102  1.00  0.00    -0.342 A  
ENDROOT
BRANCH   7   8
HETATM    8  C   UNL     1     -11.347  14.571  67.258  1.00  0.00    -0.350 C  
BRANCH   8   9
HETATM    9  N   UNL     1     -10.582  15.782  66.910  1.00  0.00    -0.317 NA 
HETATM   10  C   UNL     1      -9.121  15.525  66.833  1.00  0.00    -0.241 C  
HETATM   11  C   UNL     1      -8.356  16.727  66.230  1.00  0.00    -0.353 C  
HETATM   12  C   UNL     1      -8.917  18.009  66.760  1.00  0.00    -0.269 A  
HETATM   13  C   UNL     1     -10.078  18.083  67.500  1.00  0.00    -0.356 A  
HETATM   14  C   UNL     1     -10.396  19.439  67.815  1.00  0.00    -0.547 A  
HETATM   15  C   UNL     1     -10.853  16.855  67.892  1.00  0.00    -0.310 C  
HETATM   16  C   UNL     1      -9.479  20.324  67.286  1.00  0.00    -0.423 A  
HETATM   17  S   UNL     1      -8.225  19.523  66.435  1.00  0.00    -0.342 SA 
ENDBRANCH   8   9
ENDBRANCH   7   8
TORSDOF 2
ENDMDL
MODEL        7
REMARK 921   NORMALIZED FREE ENERGY PREDICTED BY IDOCK:   -5.56 KCAL/MOL
REMARK 922        TOTAL FREE ENERGY PREDICTED BY IDOCK:   -6.58 KCAL/MOL
REMARK 923 INTER-LIGAND FREE ENERGY PREDICTED BY IDOCK:   -6.40 KCAL/MOL
REMARK 924 INTRA-LIGAND FREE ENERGY PREDICTED BY IDOCK:   -0.19 KCAL/MOL
REMARK 927      BINDING AFFINITY PREDICTED BY RF-SCORE:    0.00 PKD
ROOT
HETATM    1 CL   UNL     1     -11.664  11.501  70.629  1.00  0.00    -0.276 Cl 
HETATM    2  C   UNL     1     -12.428  13.011  70.981  1.00  0.00    -0.296 A  
HETATM    3  C   UNL     1     -13.531  12.983  71.841  1.00  0.00    -0.498 A  
HETATM    4  C   UNL     1     -14.189  14.164  72.183  1.00  0.00    -0.638 A  
HETATM    5  C   UNL     1     -13.733  15.380  71.685  1.00  0.00    -0.606 A  
HETATM    6  C   UNL     1     -12.638  15.410  70.822  1.00  0.00    -0.497 A  
HETATM    7  C   UNL     1     -11.985  14.224  70.431  1.00  0.00    -0.402 A  
ENDROOT
BRANCH   7   8
HETATM    8  C   UNL     1     -10.869  14.314  69.407  1.00  0.00    -0.168 C  
BRANCH   8   9
HETATM    9  N   UNL     1     -11.213  13.644  68.139  1.00  0.00    -0.262 NA 
HETATM   10  C   UNL     1     -10.294  12.520  67.826  1.00  0.00    -0.222 C  
HETATM   11  C   UNL     1     -10.804  11.675  66.634  1.00  0.00    -0.327 C  
HETATM   12  C   UNL     1     -11.367  12.569  65.575  1.00  0.00    -0.331 A  
HETATM   13  C   UNL     1     -11.583  13.919  65.754  1.00  0.00    -0.343 A  
HETATM   14  C   UNL     1     -12.182  14.498  64.595  1.00  0.00    -0.474 A  
HETATM   15  C   UNL     1     -11.208  14.623  67.030  1.00  0.00    -0.344 C  
HETATM   16  C   UNL     1     -12.407  13.564  63.606  1.00  0.00    -0.310 A  
HETATM   17  S   UNL     1     -11.877  12.000  64.062  1.00  0.00    -0.402 SA 
ENDBRANCH   8   9
ENDBRANCH   7   8
TORSDOF 2
ENDMDL
MODEL        8
REMARK 921   NORMALIZED FREE ENERGY PREDICTED BY IDOCK:   -5.54 KCAL/MOL
REMARK 922        TOTAL FREE ENERGY PREDICTED BY IDOCK:   -6.56 KCAL/MOL
REMARK 923 INTER-LIGAND FREE ENERGY PREDICTED BY IDOCK:   -6.22 KCAL/MOL
REMARK 924 INTRA-LIGAND FREE ENERGY PREDICTED BY IDOCK:   -0.34 KCAL/MOL
REMARK 927      BINDING AFFINITY PREDICTED BY RF-SCORE:    0.00 PKD
ROOT
HETATM    1 CL   UNL     1     -11.553  14.531  69.174  1.00  0.00    -0.308 Cl 
HETATM    2  C   UNL     1     -12.068  14.743  70.810  1.00  0.00    -0.309 A  
HETATM    3  C   UNL     1     -11.636  15.899  71.470  1.00  0.00    -0.537 A  
HETATM    4  C   UNL     1     -12.023  16.147  72.787  1.00  0.00    -0.638 A  
HETATM    5  C   UNL     1     -12.862  15.250  73.441  1.00  0.00    -0.667 A  
HETATM    6  C   UNL     1     -13.288  14.094  72.789  1.00  0.00    -0.618 A  
HETATM    7  C   UNL     1     -12.874  13.805  71.473  1.00  0.00    -0.445 A  
ENDROOT
BRANCH   7   8
HETATM    8  C   UNL     1     -13.285  12.481  70.857  1.00  0.00     0.320 C  
BRANCH   8   9
HETATM    9  N   UNL     1     -12.217  11.468  70.935  1.00  0.00    -0.357 NA 
HETATM   10  C   UNL     1     -11.665  11.124  69.600  1.00  0.00    -0.339 C  
HETATM   11  C   UNL     1     -10.390  10.254  69.711  1.00  0.00    -0.287 C  
HETATM   12  C   UNL     1     -10.556   9.238  70.795  1.00  0.00    -0.285 A  
HETATM   13  C   UNL     1     -11.607   9.240  71.687  1.00  0.00    -0.463 A  
HETATM   14  C   UNL     1     -11.469   8.189  72.643  1.00  0.00    -0.454 A  
HETATM   15  C   UNL     1     -12.722  10.247  71.601  1.00  0.00    -0.456 C  
HETATM   16  C   UNL     1     -10.318   7.456  72.445  1.00  0.00    -0.222 A  
HETATM   17  S   UNL     1      -9.419   8.015  71.097  1.00  0.00    -0.157 SA 
ENDBRANCH   8   9
ENDBRANCH   7   8
TORSDOF 2
ENDMDL
MODEL        9
REMARK 921   NORMALIZED FREE ENERGY PREDICTED BY IDOCK:   -5.48 KCAL/MOL
REMARK 922        TOTAL FREE ENERGY PREDICTED BY IDOCK:   -6.49 KCAL/MOL
REMARK 923 INTER-LIGAND FREE ENERGY PREDICTED BY IDOCK:   -6.63 KCAL/MOL
REMARK 924 INTRA-LIGAND FREE ENERGY PREDICTED BY IDOCK:    0.14 KCAL/MOL
REMARK 927      BINDING AFFINITY PREDICTED BY RF-SCORE:    0.00 PKD
ROOT
HETATM    1 CL   UNL     1      -8.953  15.350  66.541  1.00  0.00    -0.321 Cl 
HETATM    2  C   UNL     1     -10.301  14.417  65.996  1.00  0.00    -0.309 A  
HETATM    3  C   UNL     1     -11.030  14.920  64.912  1.00  0.00    -0.422 A  
HETATM    4  C   UNL     1     -12.121  14.215  64.406  1.00  0.00    -0.486 A  
HETATM    5  C   UNL     1     -12.475  12.992  64.968  1.00  0.00    -0.534 A  
HETATM    6  C   UNL     1     -11.756  12.491  66.053  1.00  0.00    -0.472 A  
HETATM    7  C   UNL     1     -10.676  13.209  66.604  1.00  0.00    -0.286 A  
ENDROOT
BRANCH   7   8
HETATM    8  C   UNL     1     -10.002  12.662  67.849  1.00  0.00    -0.228 C  
BRANCH   8   9
HETATM    9  N   UNL     1     -10.808  12.874  69.065  1.00  0.00    -0.192 NA 
HETATM   10  C   UNL     1     -11.705  11.727  69.357  1.00  0.00    -0.341 C  
HETATM   11  C   UNL     1     -12.358  11.848  70.755  1.00  0.00    -0.416 C  
HETATM   12  C   UNL     1     -12.762  13.265  71.010  1.00  0.00    -0.293 A  
HETATM   13  C   UNL     1     -12.398  14.319  70.199  1.00  0.00    -0.413 A  
HETATM   14  C   UNL     1     -12.878  15.557  70.724  1.00  0.00    -0.513 A  
HETATM   15  C   UNL     1     -11.604  14.115  68.938  1.00  0.00    -0.310 C  
HETATM   16  C   UNL     1     -13.560  15.388  71.910  1.00  0.00    -0.491 A  
HETATM   17  S   UNL     1     -13.645  13.741  72.378  1.00  0.00    -0.601 SA 
ENDBRANCH   8   9
ENDBRANCH   7   8
TORSDOF 2
ENDMDL
MODEL       10
REMARK 921   NORMALIZED FREE ENERGY PREDICTED BY IDOCK:   -5.48 KCAL/MOL
REMARK 922        TOTAL FREE ENERGY PREDICTED BY IDOCK:   -6.49 KCAL/MOL
REMARK 923 INTER-LIGAND FREE ENERGY PREDICTED BY IDOCK:   -6.15 KCAL/MOL
REMARK 924 INTRA-LIGAND FREE ENERGY PREDICTED BY IDOCK:   -0.34 KCAL/MOL
REMARK 927      BINDING AFFINITY PREDICTED BY RF-SCORE:    0.00 PKD
ROOT
HETATM    1 CL   UNL     1     -13.382   7.449  71.484  1.00  0.00    -0.433 Cl 
HETATM    2  C   UNL     1     -11.759   7.796  71.967  1.00  0.00    -0.304 A  
HETATM    3  C   UNL     1     -11.239   7.056  73.035  1.00  0.00    -0.242 A  
HETATM    4  C   UNL     1      -9.931   7.269  73.472  1.00  0.00    -0.366 A  
HETATM    5  C   UNL     1      -9.131   8.207  72.827  1.00  0.00    -0.328 A  
HETATM    6  C   UNL     1      -9.649   8.952  71.767  1.00  0.00    -0.353 A  
HETATM    7  C   UNL     1     -10.981   8.780  71.339  1.00  0.00    -0.360 A  
ENDROOT
BRANCH   7   8
HETATM    8  C   UNL     1     -11.516   9.694  70.252  1.00  0.00    -0.233 C  
BRANCH   8   9
HETATM    9  N   UNL     1     -11.813  11.049  70.751  1.00  0.00    -0.321 NA 
HETATM   10  C   UNL     1     -13.112  11.115  71.469  1.00  0.00    -0.385 C  
HETATM   11  C   UNL     1     -13.299  12.468  72.197  1.00  0.00    -0.540 C  
HETATM   12  C   UNL     1     -12.800  13.586  71.337  1.00  0.00    -0.355 A  
HETATM   13  C   UNL     1     -12.090  13.391  70.171  1.00  0.00    -0.415 A  
HETATM   14  C   UNL     1     -11.697  14.639  69.599  1.00  0.00    -0.358 A  
HETATM   15  C   UNL     1     -11.807  12.016  69.632  1.00  0.00    -0.333 C  
HETATM   16  C   UNL     1     -12.108  15.712  70.361  1.00  0.00    -0.394 A  
HETATM   17  S   UNL     1     -12.986  15.221  71.748  1.00  0.00    -0.433 SA 
ENDBRANCH   8   9
ENDBRANCH   7   8
TORSDOF 2
ENDMDL
MODEL       11
REMARK 921   NORMALIZED FREE ENERGY PREDICTED BY IDOCK:   -5.45 KCAL/MOL
REMARK 922        TOTAL FREE ENERGY PREDICTED BY IDOCK:   -6.45 KCAL/MOL
REMARK 923 INTER-LIGAND FREE ENERGY PREDICTED BY IDOCK:   -6.11 KCAL/MOL
REMARK 924 INTRA-LIGAND FREE ENERGY PREDICTED BY IDOCK:   -0.35 KCAL/MOL
REMARK 927      BINDING AFFINITY PREDICTED BY RF-SCORE:    0.00 PKD
ROOT
HETATM    1 CL   UNL     1     -11.959  11.748  69.937  1.00  0.00    -0.400 Cl 
HETATM    2  C   UNL     1     -12.480  13.206  70.705  1.00  0.00    -0.308 A  
HETATM    3  C   UNL     1     -13.240  13.076  71.873  1.00  0.00    -0.527 A  
HETATM    4  C   UNL     1     -13.683  14.208  72.557  1.00  0.00    -0.626 A  
HETATM    5  C   UNL     1     -13.348  15.474  72.089  1.00  0.00    -0.561 A  
HETATM    6  C   UNL     1     -12.597  15.607  70.922  1.00  0.00    -0.503 A  
HETATM    7  C   UNL     1     -12.175  14.477  70.194  1.00  0.00    -0.399 A  
ENDROOT
BRANCH   7   8
HETATM    8  C   UNL     1     -11.453  14.691  68.876  1.00  0.00    -0.298 C  
BRANCH   8   9
HETATM    9  N   UNL     1     -10.621  15.907  68.881  1.00  0.00    -0.230 NA 
HETATM   10  C   UNL     1     -11.028  16.875  67.831  1.00  0.00    -0.251 C  
HETATM   11  C   UNL     1     -10.319  18.240  68.000  1.00  0.00    -0.410 C  
HETATM   12  C   UNL     1      -8.889  18.030  68.385  1.00  0.00    -0.292 A  
HETATM   13  C   UNL     1      -8.368  16.804  68.741  1.00  0.00    -0.248 A  
HETATM   14  C   UNL     1      -6.995  16.922  69.115  1.00  0.00    -0.234 A  
HETATM   15  C   UNL     1      -9.195  15.548  68.710  1.00  0.00    -0.210 C  
HETATM   16  C   UNL     1      -6.548  18.224  69.045  1.00  0.00    -0.256 A  
HETATM   17  S   UNL     1      -7.770  19.299  68.507  1.00  0.00    -0.353 SA 
ENDBRANCH   8   9
ENDBRANCH   7   8
TORSDOF 2
ENDMDL
MODEL       12
REMARK 921   NORMALIZED FREE ENERGY PREDICTED BY IDOCK:   -5.41 KCAL/MOL
REMARK 922        TOTAL FREE ENERGY PREDICTED BY IDOCK:   -6.41 KCAL/MOL
REMARK 923 INTER-LIGAND FREE ENERGY PREDICTED BY IDOCK:   -6.05 KCAL/MOL
REMARK 924 INTRA-LIGAND FREE ENERGY PREDICTED BY IDOCK:   -0.36 KCAL/MOL
REMARK 927      BINDING AFFINITY PREDICTED BY RF-SCORE:    0.00 PKD
ROOT
HETATM    1 CL   UNL     1     -12.269  12.491  70.037  1.00  0.00    -0.310 Cl 
HETATM    2  C   UNL     1     -12.250  13.896  71.043  1.00  0.00    -0.342 A  
HETATM    3  C   UNL     1     -12.913  13.810  72.272  1.00  0.00    -0.432 A  
HETATM    4  C   UNL     1     -12.928  14.899  73.144  1.00  0.00    -0.627 A  
HETATM    5  C   UNL     1     -12.260  16.070  72.800  1.00  0.00    -0.617 A  
HETATM    6  C   UNL     1     -11.605  16.161  71.573  1.00  0.00    -0.502 A  
HETATM    7  C   UNL     1     -11.613  15.087  70.660  1.00  0.00    -0.358 A  
ENDROOT
BRANCH   7   8
HETATM    8  C   UNL     1     -10.973  15.286  69.299  1.00  0.00    -0.261 C  
BRANCH   8   9
HETATM    9  N   UNL     1     -10.065  16.447  69.268  1.00  0.00    -0.269 NA 
HETATM   10  C   UNL     1     -10.482  17.464  68.269  1.00  0.00    -0.385 C  
HETATM   11  C   UNL     1      -9.676  18.777  68.414  1.00  0.00    -0.421 C  
HETATM   12  C   UNL     1      -8.239  18.468  68.691  1.00  0.00    -0.308 A  
HETATM   13  C   UNL     1      -7.775  17.203  68.984  1.00  0.00    -0.164 A  
HETATM   14  C   UNL     1      -6.374  17.225  69.261  1.00  0.00    -0.239 A  
HETATM   15  C   UNL     1      -8.682  16.003  68.988  1.00  0.00    -0.245 C  
HETATM   16  C   UNL     1      -5.850  18.498  69.185  1.00  0.00    -0.227 A  
HETATM   17  S   UNL     1      -7.034  19.660  68.757  1.00  0.00    -0.344 SA 
ENDBRANCH   8   9
ENDBRANCH   7   8
TORSDOF 2
ENDMDL
MODEL       13
REMARK 921   NORMALIZED FREE ENERGY PREDICTED BY IDOCK:   -5.37 KCAL/MOL
REMARK 922        TOTAL FREE ENERGY PREDICTED BY IDOCK:   -6.37 KCAL/MOL
REMARK 923 INTER-LIGAND FREE ENERGY PREDICTED BY IDOCK:   -6.78 KCAL/MOL
REMARK 924 INTRA-LIGAND FREE ENERGY PREDICTED BY IDOCK:    0.41 KCAL/MOL
REMARK 927      BINDING AFFINITY PREDICTED BY RF-SCORE:    0.00 PKD
ROOT
HETATM    1 CL   UNL     1     -10.443  16.162  65.478  1.00  0.00    -0.405 Cl 
HETATM    2  C   UNL     1     -10.280  17.492  66.569  1.00  0.00    -0.342 A  
HETATM    3  C   UNL     1     -10.642  18.757  66.092  1.00  0.00    -0.435 A  
HETATM    4  C   UNL     1     -10.553  19.876  66.919  1.00  0.00    -0.534 A  
HETATM    5  C   UNL     1     -10.122  19.732  68.234  1.00  0.00    -0.575 A  
HETATM    6  C   UNL     1      -9.753  18.474  68.710  1.00  0.00    -0.390 A  
HETATM    7  C   UNL     1      -9.798  17.338  67.878  1.00  0.00    -0.283 A  
ENDROOT
BRANCH   7   8
HETATM    8  C   UNL     1      -9.283  16.019  68.422  1.00  0.00    -0.196 C  
BRANCH   8   9
HETATM    9  N   UNL     1     -10.213  15.407  69.389  1.00  0.00    -0.246 NA 
HETATM   10  C   UNL     1     -11.300  14.644  68.723  1.00  0.00    -0.281 C  
HETATM   11  C   UNL     1     -12.120  13.809  69.734  1.00  0.00    -0.400 C  
HETATM   12  C   UNL     1     -12.344  14.595  70.987  1.00  0.00    -0.333 A  
HETATM   13  C   UNL     1     -11.719  15.795  71.255  1.00  0.00    -0.496 A  
HETATM   14  C   UNL     1     -12.082  16.282  72.547  1.00  0.00    -0.615 A  
HETATM   15  C   UNL     1     -10.793  16.448  70.266  1.00  0.00    -0.212 C  
HETATM   16  C   UNL     1     -12.942  15.426  73.201  1.00  0.00    -0.515 A  
HETATM   17  S   UNL     1     -13.333  14.053  72.253  1.00  0.00    -0.522 SA 
ENDBRANCH   8   9
ENDBRANCH   7   8
TORSDOF 2
ENDMDL
MODEL       14
REMARK 921   NORMALIZED FREE ENERGY PREDICTED BY IDOCK:   -5.37 KCAL/MOL
REMARK 922        TOTAL FREE ENERGY PREDICTED BY IDOCK:   -6.36 KCAL/MOL
REMARK 923 INTER-LIGAND FREE ENERGY PREDICTED BY IDOCK:   -6.02 KCAL/MOL
REMARK 924 INTRA-LIGAND FREE ENERGY PREDICTED BY IDOCK:   -0.34 KCAL/MOL
REMARK 927      BINDING AFFINITY PREDICTED BY RF-SCORE:    0.00 PKD
ROOT
HETATM    1 CL   UNL     1      -9.881  10.538  66.429  1.00  0.00    -0.248 Cl 
HETATM    2  C   UNL     1     -10.939  11.866  66.104  1.00  0.00    -0.308 A  
HETATM    3  C   UNL     1     -11.388  12.017  64.787  1.00  0.00    -0.369 A  
HETATM    4  C   UNL     1     -12.256  13.056  64.452  1.00  0.00    -0.471 A  
HETATM    5  C   UNL     1     -12.696  13.934  65.437  1.00  0.00    -0.525 A  
HETATM    6  C   UNL     1     -12.245  13.791  66.749  1.00  0.00    -0.440 A  
HETATM    7  C   UNL     1     -11.335  12.773  67.099  1.00  0.00    -0.365 A  
ENDROOT
BRANCH   7   8
HETATM    8  C   UNL     1     -10.800  12.735  68.518  1.00  0.00    -0.253 C  
BRANCH   8   9
HETATM    9  N   UNL     1     -11.589  11.851  69.395  1.00  0.00    -0.302 NA 
HETATM   10  C   UNL     1     -12.063  12.546  70.619  1.00  0.00    -0.221 C  
HETATM   11  C   UNL     1     -13.088  11.692  71.405  1.00  0.00    -0.342 C  
HETATM   12  C   UNL     1     -12.663  10.258  71.411  1.00  0.00    -0.442 A  
HETATM   13  C   UNL     1     -11.628   9.768  70.642  1.00  0.00    -0.389 A  
HETATM   14  C   UNL     1     -11.492   8.356  70.811  1.00  0.00    -0.277 A  
HETATM   15  C   UNL     1     -10.793  10.661  69.768  1.00  0.00    -0.261 C  
HETATM   16  C   UNL     1     -12.435   7.844  71.678  1.00  0.00    -0.319 A  
HETATM   17  S   UNL     1     -13.464   9.062  72.306  1.00  0.00    -0.486 SA 
ENDBRANCH   8   9
ENDBRANCH   7   8
TORSDOF 2
ENDMDL
MODEL       15
REMARK 921   NORMALIZED FREE ENERGY PREDICTED BY IDOCK:   -5.33 KCAL/MOL
REMARK 922        TOTAL FREE ENERGY PREDICTED BY IDOCK:   -6.32 KCAL/MOL
REMARK 923 INTER-LIGAND FREE ENERGY PREDICTED BY IDOCK:   -5.96 KCAL/MOL
REMARK 924 INTRA-LIGAND FREE ENERGY PREDICTED BY IDOCK:   -0.36 KCAL/MOL
REMARK 927      BINDING AFFINITY PREDICTED BY RF-SCORE:    0.00 PKD
ROOT
HETATM    1 CL   UNL     1     -11.286  12.609  68.707  1.00  0.00    -0.308 Cl 
HETATM    2  C   UNL     1     -12.103  12.963  70.188  1.00  0.00    -0.302 A  
HETATM    3  C   UNL     1     -12.165  14.306  70.578  1.00  0.00    -0.427 A  
HETATM    4  C   UNL     1     -12.821  14.670  71.754  1.00  0.00    -0.402 A  
HETATM    5  C   UNL     1     -13.439  13.696  72.531  1.00  0.00    -0.675 A  
HETATM    6  C   UNL     1     -13.373  12.356  72.149  1.00  0.00    -0.508 A  
HETATM    7  C   UNL     1     -12.679  11.964  70.987  1.00  0.00    -0.354 A  
ENDROOT
BRANCH   7   8
HETATM    8  C   UNL     1     -12.554  10.482  70.683  1.00  0.00    -0.369 C  
BRANCH   8   9
HETATM    9  N   UNL     1     -11.345   9.885  71.277  1.00  0.00    -0.368 NA 
HETATM   10  C   UNL     1     -10.302   9.588  70.262  1.00  0.00    -0.269 C  
HETATM   11  C   UNL     1      -8.956   9.196  70.917  1.00  0.00    -0.298 C  
HETATM   12  C   UNL     1      -9.199   8.311  72.098  1.00  0.00    -0.222 A  
HETATM   13  C   UNL     1     -10.450   8.075  72.628  1.00  0.00    -0.408 A  
HETATM   14  C   UNL     1     -10.365   7.241  73.783  1.00  0.00    -0.360 A  
HETATM   15  C   UNL     1     -11.697   8.651  72.013  1.00  0.00    -0.369 C  
HETATM   16  C   UNL     1      -9.063   6.902  74.085  1.00  0.00    -0.207 A  
HETATM   17  S   UNL     1      -7.948   7.565  72.965  1.00  0.00    -0.114 SA 
ENDBRANCH   8   9
ENDBRANCH   7   8
TORSDOF 2
ENDMDL
MODEL       16
REMARK 921   NORMALIZED FREE ENERGY PREDICTED BY IDOCK:   -5.32 KCAL/MOL
REMARK 922        TOTAL FREE ENERGY PREDICTED BY IDOCK:   -6.31 KCAL/MOL
REMARK 923 INTER-LIGAND FREE ENERGY PREDICTED BY IDOCK:   -5.99 KCAL/MOL
REMARK 924 INTRA-LIGAND FREE ENERGY PREDICTED BY IDOCK:   -0.32 KCAL/MOL
REMARK 927      BINDING AFFINITY PREDICTED BY RF-SCORE:    0.00 PKD
ROOT
HETATM    1 CL   UNL     1      -7.161  16.939  66.244  1.00  0.00    -0.273 Cl 
HETATM    2  C   UNL     1      -8.556  17.865  66.673  1.00  0.00    -0.262 A  
HETATM    3  C   UNL     1      -8.496  19.247  66.455  1.00  0.00    -0.336 A  
HETATM    4  C   UNL     1      -9.589  20.057  66.762  1.00  0.00    -0.543 A  
HETATM    5  C   UNL     1     -10.753  19.487  67.267  1.00  0.00    -0.604 A  
HETATM    6  C   UNL     1     -10.813  18.112  67.492  1.00  0.00    -0.264 A  
HETATM    7  C   UNL     1      -9.706  17.282  67.227  1.00  0.00    -0.262 A  
ENDROOT
BRANCH   7   8
HETATM    8  C   UNL     1      -9.797  15.812  67.593  1.00  0.00    -0.232 C  
BRANCH   8   9
HETATM    9  N   UNL     1     -10.463  15.012  66.549  1.00  0.00    -0.278 NA 
HETATM   10  C   UNL     1     -11.877  14.705  66.886  1.00  0.00    -0.326 C  
HETATM   11  C   UNL     1     -12.633  14.085  65.688  1.00  0.00    -0.542 C  
HETATM   12  C   UNL     1     -11.751  13.112  64.973  1.00  0.00    -0.337 A  
HETATM   13  C   UNL     1     -10.404  12.971  65.234  1.00  0.00    -0.318 A  
HETATM   14  C   UNL     1      -9.812  12.011  64.358  1.00  0.00    -0.180 A  
HETATM   15  C   UNL     1      -9.717  13.756  66.317  1.00  0.00    -0.284 C  
HETATM   16  C   UNL     1     -10.727  11.487  63.469  1.00  0.00    -0.414 A  
HETATM   17  S   UNL     1     -12.298  12.130  63.703  1.00  0.00    -0.534 SA 
ENDBRANCH   8   9
ENDBRANCH   7   8
TORSDOF 2
ENDMDL
MODEL       17
REMARK 921   NORMALIZED FREE ENERGY PREDICTED BY IDOCK:   -5.30 KCAL/MOL
REMARK 922        TOTAL FREE ENERGY PREDICTED BY IDOCK:   -6.29 KCAL/MOL
REMARK 923 INTER-LIGAND FREE ENERGY PREDICTED BY IDOCK:   -5.90 KCAL/MOL
REMARK 924 INTRA-LIGAND FREE ENERGY PREDICTED BY IDOCK:   -0.39 KCAL/MOL
REMARK 927      BINDING AFFINITY PREDICTED BY RF-SCORE:    0.00 PKD
ROOT
HETATM    1 CL   UNL     1     -11.002  19.146  67.454  1.00  0.00    -0.516 Cl 
HETATM    2  C   UNL     1      -9.549  18.410  68.031  1.00  0.00    -0.298 A  
HETATM    3  C   UNL     1      -8.496  19.263  68.380  1.00  0.00    -0.386 A  
HETATM    4  C   UNL     1      -7.297  18.742  68.868  1.00  0.00    -0.325 A  
HETATM    5  C   UNL     1      -7.155  17.368  69.030  1.00  0.00    -0.233 A  
HETATM    6  C   UNL     1      -8.200  16.515  68.677  1.00  0.00    -0.234 A  
HETATM    7  C   UNL     1      -9.403  17.018  68.143  1.00  0.00    -0.254 A  
ENDROOT
BRANCH   7   8
HETATM    8  C   UNL     1     -10.460  16.033  67.679  1.00  0.00    -0.292 C  
BRANCH   8   9
HETATM    9  N   UNL     1     -11.007  15.231  68.788  1.00  0.00    -0.248 NA 
HETATM   10  C   UNL     1     -11.413  13.869  68.354  1.00  0.00    -0.311 C  
HETATM   11  C   UNL     1     -11.752  12.959  69.559  1.00  0.00    -0.387 C  
HETATM   12  C   UNL     1     -12.514  13.732  70.587  1.00  0.00    -0.359 A  
HETATM   13  C   UNL     1     -12.685  15.100  70.539  1.00  0.00    -0.416 A  
HETATM   14  C   UNL     1     -13.403  15.565  71.683  1.00  0.00    -0.585 A  
HETATM   15  C   UNL     1     -12.160  15.928  69.399  1.00  0.00    -0.168 C  
HETATM   16  C   UNL     1     -13.723  14.539  72.547  1.00  0.00    -0.476 A  
HETATM   17  S   UNL     1     -13.184  13.017  71.971  1.00  0.00    -0.407 SA 
ENDBRANCH   8   9
ENDBRANCH   7   8
TORSDOF 2
ENDMDL
MODEL       18
REMARK 921   NORMALIZED FREE ENERGY PREDICTED BY IDOCK:   -5.24 KCAL/MOL
REMARK 922        TOTAL FREE ENERGY PREDICTED BY IDOCK:   -6.22 KCAL/MOL
REMARK 923 INTER-LIGAND FREE ENERGY PREDICTED BY IDOCK:   -5.86 KCAL/MOL
REMARK 924 INTRA-LIGAND FREE ENERGY PREDICTED BY IDOCK:   -0.35 KCAL/MOL
REMARK 927      BINDING AFFINITY PREDICTED BY RF-SCORE:    0.00 PKD
ROOT
HETATM    1 CL   UNL     1      -6.790  17.831  68.825  1.00  0.00    -0.237 Cl 
HETATM    2  C   UNL     1      -8.210  18.598  68.207  1.00  0.00    -0.323 A  
HETATM    3  C   UNL     1      -8.057  19.876  67.656  1.00  0.00    -0.339 A  
HETATM    4  C   UNL     1      -9.154  20.552  67.123  1.00  0.00    -0.452 A  
HETATM    5  C   UNL     1     -10.405  19.943  67.117  1.00  0.00    -0.581 A  
HETATM    6  C   UNL     1     -10.563  18.673  67.671  1.00  0.00    -0.458 A  
HETATM    7  C   UNL     1      -9.474  17.991  68.252  1.00  0.00    -0.305 A  
ENDROOT
BRANCH   7   8
HETATM    8  C   UNL     1      -9.732  16.660  68.933  1.00  0.00    -0.255 C  
BRANCH   8   9
HETATM    9  N   UNL     1     -10.479  15.723  68.074  1.00  0.00    -0.263 NA 
HETATM   10  C   UNL     1     -11.015  14.564  68.832  1.00  0.00    -0.256 C  
HETATM   11  C   UNL     1     -11.996  13.723  67.981  1.00  0.00    -0.390 C  
HETATM   12  C   UNL     1     -11.484  13.597  66.582  1.00  0.00    -0.343 A  
HETATM   13  C   UNL     1     -10.409  14.313  66.097  1.00  0.00    -0.305 A  
HETATM   14  C   UNL     1     -10.189  14.029  64.715  1.00  0.00    -0.332 A  
HETATM   15  C   UNL     1      -9.617  15.248  66.969  1.00  0.00    -0.224 C  
HETATM   16  C   UNL     1     -11.112  13.134  64.216  1.00  0.00    -0.396 A  
HETATM   17  S   UNL     1     -12.224  12.617  65.412  1.00  0.00    -0.406 SA 
ENDBRANCH   8   9
ENDBRANCH   7   8
TORSDOF 2
ENDMDL
MODEL       19
REMARK 921   NORMALIZED FREE ENERGY PREDICTED BY IDOCK:   -5.23 KCAL/MOL
REMARK 922        TOTAL FREE ENERGY PREDICTED BY IDOCK:   -6.21 KCAL/MOL
REMARK 923 INTER-LIGAND FREE ENERGY PREDICTED BY IDOCK:   -5.84 KCAL/MOL
REMARK 924 INTRA-LIGAND FREE ENERGY PREDICTED BY IDOCK:   -0.37 KCAL/MOL
REMARK 927      BINDING AFFINITY PREDICTED BY RF-SCORE:    0.00 PKD
ROOT
HETATM    1 CL   UNL     1     -13.487  12.917  72.329  1.00  0.00    -0.672 Cl 
HETATM    2  C   UNL     1     -12.518  13.879  71.270  1.00  0.00    -0.359 A  
HETATM    3  C   UNL     1     -12.356  15.229  71.602  1.00  0.00    -0.432 A  
HETATM    4  C   UNL     1     -11.575  16.064  70.804  1.00  0.00    -0.431 A  
HETATM    5  C   UNL     1     -10.934  15.547  69.682  1.00  0.00    -0.288 A  
HETATM    6  C   UNL     1     -11.100  14.205  69.344  1.00  0.00    -0.261 A  
HETATM    7  C   UNL     1     -11.918  13.355  70.115  1.00  0.00    -0.396 A  
ENDROOT
BRANCH   7   8
HETATM    8  C   UNL     1     -12.142  11.933  69.635  1.00  0.00    -0.239 C  
BRANCH   8   9
HETATM    9  N   UNL     1     -11.320  10.954  70.369  1.00  0.00    -0.268 NA 
HETATM   10  C   UNL     1     -10.279  10.333  69.510  1.00  0.00    -0.236 C  
HETATM   11  C   UNL     1      -9.272   9.500  70.338  1.00  0.00    -0.305 C  
HETATM   12  C   UNL     1      -9.991   8.737  71.404  1.00  0.00    -0.283 A  
HETATM   13  C   UNL     1     -11.320   8.933  71.716  1.00  0.00    -0.431 A  
HETATM   14  C   UNL     1     -11.715   8.107  72.812  1.00  0.00    -0.334 A  
HETATM   15  C   UNL     1     -12.181   9.904  70.956  1.00  0.00    -0.353 C  
HETATM   16  C   UNL     1     -10.670   7.343  73.288  1.00  0.00    -0.391 A  
HETATM   17  S   UNL     1      -9.225   7.601  72.404  1.00  0.00    -0.164 SA 
ENDBRANCH   8   9
ENDBRANCH   7   8
TORSDOF 2
ENDMDL
MODEL       20
REMARK 921   NORMALIZED FREE ENERGY PREDICTED BY IDOCK:   -5.20 KCAL/MOL
REMARK 922        TOTAL FREE ENERGY PREDICTED BY IDOCK:   -6.18 KCAL/MOL
REMARK 923 INTER-LIGAND FREE ENERGY PREDICTED BY IDOCK:   -5.84 KCAL/MOL
REMARK 924 INTRA-LIGAND FREE ENERGY PREDICTED BY IDOCK:   -0.34 KCAL/MOL
REMARK 927      BINDING AFFINITY PREDICTED BY RF-SCORE:    0.00 PKD
ROOT
HETATM    1 CL   UNL     1     -12.492  14.254  70.178  1.00  0.00    -0.405 Cl 
HETATM    2  C   UNL     1     -11.658  15.229  69.020  1.00  0.00    -0.343 A  
HETATM    3  C   UNL     1     -11.069  16.410  69.486  1.00  0.00    -0.293 A  
HETATM    4  C   UNL     1     -10.366  17.240  68.613  1.00  0.00    -0.357 A  
HETATM    5  C   UNL     1     -10.230  16.881  67.276  1.00  0.00    -0.297 A  
HETATM    6  C   UNL     1     -10.822  15.709  66.807  1.00  0.00    -0.277 A  
HETATM    7  C   UNL     1     -11.571  14.878  67.664  1.00  0.00    -0.357 A  
ENDROOT
BRANCH   7   8
HETATM    8  C   UNL     1     -12.279  13.674  67.070  1.00  0.00    -0.329 C  
BRANCH   8   9
HETATM    9  N   UNL     1     -11.496  13.032  66.000  1.00  0.00    -0.321 NA 
HETATM   10  C   UNL     1     -12.207  13.038  64.696  1.00  0.00    -0.421 C  
HETATM   11  C   UNL     1     -11.287  12.590  63.535  1.00  0.00    -0.556 C  
HETATM   12  C   UNL     1     -10.430  11.446  63.974  1.00  0.00    -0.378 A  
HETATM   13  C   UNL     1     -10.340  11.019  65.282  1.00  0.00    -0.338 A  
HETATM   14  C   UNL     1      -9.402   9.950  65.407  1.00  0.00    -0.297 A  
HETATM   15  C   UNL     1     -11.156  11.643  66.381  1.00  0.00    -0.291 C  
HETATM   16  C   UNL     1      -8.815   9.631  64.201  1.00  0.00    -0.226 A  
HETATM   17  S   UNL     1      -9.409  10.599  62.917  1.00  0.00    -0.358 SA 
ENDBRANCH   8   9
ENDBRANCH   7   8
TORSDOF 2
ENDMDL
MODEL       21
REMARK 921   NORMALIZED FREE ENERGY PREDICTED BY IDOCK:   -5.19 KCAL/MOL
REMARK 922        TOTAL FREE ENERGY PREDICTED BY IDOCK:   -6.17 KCAL/MOL
REMARK 923 INTER-LIGAND FREE ENERGY PREDICTED BY IDOCK:   -5.86 KCAL/MOL
REMARK 924 INTRA-LIGAND FREE ENERGY PREDICTED BY IDOCK:   -0.31 KCAL/MOL
REMARK 927      BINDING AFFINITY PREDICTED BY RF-SCORE:    0.00 PKD
ROOT
HETATM    1 CL   UNL     1      -9.952   7.813  70.448  1.00  0.00    -0.188 Cl 
HETATM    2  C   UNL     1     -11.566   8.205  70.929  1.00  0.00    -0.267 A  
HETATM    3  C   UNL     1     -12.407   7.140  71.269  1.00  0.00    -0.418 A  
HETATM    4  C   UNL     1     -13.718   7.379  71.681  1.00  0.00    -0.468 A  
HETATM    5  C   UNL     1     -14.185   8.686  71.777  1.00  0.00    -0.490 A  
HETATM    6  C   UNL     1     -13.352   9.749  71.432  1.00  0.00    -0.449 A  
HETATM    7  C   UNL     1     -12.038   9.526  70.973  1.00  0.00    -0.398 A  
ENDROOT
BRANCH   7   8
HETATM    8  C   UNL     1     -11.218  10.717  70.512  1.00  0.00    -0.185 C  
BRANCH   8   9
HETATM    9  N   UNL     1     -11.455  11.049  69.096  1.00  0.00    -0.273 NA 
HETATM   10  C   UNL     1     -10.465  10.412  68.191  1.00  0.00    -0.188 C  
HETATM   11  C   UNL     1     -10.863  10.562  66.704  1.00  0.00    -0.166 C  
HETATM   12  C   UNL     1     -11.409  11.932  66.455  1.00  0.00    -0.341 A  
HETATM   13  C   UNL     1     -11.703  12.828  67.461  1.00  0.00    -0.422 A  
HETATM   14  C   UNL     1     -12.263  14.028  66.927  1.00  0.00    -0.415 A  
HETATM   15  C   UNL     1     -11.437  12.517  68.908  1.00  0.00    -0.307 C  
HETATM   16  C   UNL     1     -12.386  13.978  65.554  1.00  0.00    -0.483 A  
HETATM   17  S   UNL     1     -11.804  12.502  64.907  1.00  0.00    -0.398 SA 
ENDBRANCH   8   9
ENDBRANCH   7   8
TORSDOF 2
ENDMDL
MODEL       22
REMARK 921   NORMALIZED FREE ENERGY PREDICTED BY IDOCK:   -5.19 KCAL/MOL
REMARK 922        TOTAL FREE ENERGY PREDICTED BY IDOCK:   -6.17 KCAL/MOL
REMARK 923 INTER-LIGAND FREE ENERGY PREDICTED BY IDOCK:   -5.80 KCAL/MOL
REMARK 924 INTRA-LIGAND FREE ENERGY PREDICTED BY IDOCK:   -0.37 KCAL/MOL
REMARK 927      BINDING AFFINITY PREDICTED BY RF-SCORE:    0.00 PKD
ROOT
HETATM    1 CL   UNL     1      -8.716  11.067  66.037  1.00  0.00    -0.187 Cl 
HETATM    2  C   UNL     1     -10.189  11.736  65.429  1.00  0.00    -0.261 A  
HETATM    3  C   UNL     1     -10.540  11.418  64.113  1.00  0.00    -0.430 A  
HETATM    4  C   UNL     1     -11.722  11.908  63.558  1.00  0.00    -0.550 A  
HETATM    5  C   UNL     1     -12.570  12.700  64.327  1.00  0.00    -0.453 A  
HETATM    6  C   UNL     1     -12.219  13.025  65.637  1.00  0.00    -0.521 A  
HETATM    7  C   UNL     1     -11.009  12.574  66.201  1.00  0.00    -0.318 A  
ENDROOT
BRANCH   7   8
HETATM    8  C   UNL     1     -10.636  13.050  67.592  1.00  0.00    -0.224 C  
BRANCH   8   9
HETATM    9  N   UNL     1     -11.378  12.339  68.649  1.00  0.00    -0.266 NA 
HETATM   10  C   UNL     1     -11.663  13.205  69.821  1.00  0.00    -0.280 C  
HETATM   11  C   UNL     1     -12.646  12.532  70.809  1.00  0.00    -0.299 C  
HETATM   12  C   UNL     1     -12.320  11.079  70.947  1.00  0.00    -0.402 A  
HETATM   13  C   UNL     1     -11.416  10.422  70.140  1.00  0.00    -0.396 A  
HETATM   14  C   UNL     1     -11.356   9.033  70.466  1.00  0.00    -0.282 A  
HETATM   15  C   UNL     1     -10.626  11.139  69.080  1.00  0.00    -0.218 C  
HETATM   16  C   UNL     1     -12.226   8.701  71.483  1.00  0.00    -0.318 A  
HETATM   17  S   UNL     1     -13.094  10.061  72.061  1.00  0.00    -0.397 SA 
ENDBRANCH   8   9
ENDBRANCH   7   8
TORSDOF 2
ENDMDL
MODEL       23
REMARK 921   NORMALIZED FREE ENERGY PREDICTED BY IDOCK:   -5.17 KCAL/MOL
REMARK 922        TOTAL FREE ENERGY PREDICTED BY IDOCK:   -6.14 KCAL/MOL
REMARK 923 INTER-LIGAND FREE ENERGY PREDICTED BY IDOCK:   -5.77 KCAL/MOL
REMARK 924 INTRA-LIGAND FREE ENERGY PREDICTED BY IDOCK:   -0.37 KCAL/MOL
REMARK 927      BINDING AFFINITY PREDICTED BY RF-SCORE:    0.00 PKD
ROOT
HETATM    1 CL   UNL     1     -11.076  15.368  66.363  1.00  0.00    -0.281 Cl 
HETATM    2  C   UNL     1     -11.271  13.936  65.415  1.00  0.00    -0.306 A  
HETATM    3  C   UNL     1     -12.062  14.035  64.264  1.00  0.00    -0.476 A  
HETATM    4  C   UNL     1     -12.253  12.925  63.441  1.00  0.00    -0.574 A  
HETATM    5  C   UNL     1     -11.634  11.719  63.752  1.00  0.00    -0.508 A  
HETATM    6  C   UNL     1     -10.852  11.615  64.902  1.00  0.00    -0.359 A  
HETATM    7  C   UNL     1     -10.681  12.713  65.768  1.00  0.00    -0.295 A  
ENDROOT
BRANCH   7   8
HETATM    8  C   UNL     1      -9.906  12.507  67.056  1.00  0.00    -0.217 C  
BRANCH   8   9
HETATM    9  N   UNL     1     -10.761  12.030  68.158  1.00  0.00    -0.207 NA 
HETATM   10  C   UNL     1     -11.039  13.092  69.159  1.00  0.00    -0.192 C  
HETATM   11  C   UNL     1     -12.127  12.660  70.171  1.00  0.00    -0.368 C  
HETATM   12  C   UNL     1     -11.929  11.228  70.555  1.00  0.00    -0.371 A  
HETATM   13  C   UNL     1     -11.038  10.386  69.925  1.00  0.00    -0.367 A  
HETATM   14  C   UNL     1     -11.110   9.067  70.467  1.00  0.00    -0.297 A  
HETATM   15  C   UNL     1     -10.135  10.865  68.821  1.00  0.00    -0.194 C  
HETATM   16  C   UNL     1     -12.060   8.967  71.462  1.00  0.00    -0.330 A  
HETATM   17  S   UNL     1     -12.844  10.461  71.760  1.00  0.00    -0.428 SA 
ENDBRANCH   8   9
ENDBRANCH   7   8
TORSDOF 2
ENDMDL
MODEL       24
REMARK 921   NORMALIZED FREE ENERGY PREDICTED BY IDOCK:   -5.17 KCAL/MOL
REMARK 922        TOTAL FREE ENERGY PREDICTED BY IDOCK:   -6.14 KCAL/MOL
REMARK 923 INTER-LIGAND FREE ENERGY PREDICTED BY IDOCK:   -5.96 KCAL/MOL
REMARK 924 INTRA-LIGAND FREE ENERGY PREDICTED BY IDOCK:   -0.18 KCAL/MOL
REMARK 927      BINDING AFFINITY PREDICTED BY RF-SCORE:    0.00 PKD
ROOT
HETATM    1 CL   UNL     1      -9.228  15.674  66.840  1.00  0.00    -0.240 Cl 
HETATM    2  C   UNL     1     -10.490  14.686  66.194  1.00  0.00    -0.302 A  
HETATM    3  C   UNL     1     -10.417  14.365  64.834  1.00  0.00    -0.448 A  
HETATM    4  C   UNL     1     -11.391  13.559  64.245  1.00  0.00    -0.402 A  
HETATM    5  C   UNL     1     -12.430  13.052  65.019  1.00  0.00    -0.534 A  
HETATM    6  C   UNL     1     -12.510  13.376  66.373  1.00  0.00    -0.297 A  
HETATM    7  C   UNL     1     -11.559  14.223  66.977  1.00  0.00    -0.406 A  
ENDROOT
BRANCH   7   8
HETATM    8  C   UNL     1     -11.761  14.623  68.426  1.00  0.00    -0.320 C  
BRANCH   8   9
HETATM    9  N   UNL     1     -12.190  13.492  69.269  1.00  0.00    -0.272 NA 
HETATM   10  C   UNL     1     -12.461  13.901  70.671  1.00  0.00    -0.366 C  
HETATM   11  C   UNL     1     -13.142  12.771  71.479  1.00  0.00    -0.380 C  
HETATM   12  C   UNL     1     -12.527  11.452  71.134  1.00  0.00    -0.360 A  
HETATM   13  C   UNL     1     -11.641  11.274  70.093  1.00  0.00    -0.393 A  
HETATM   14  C   UNL     1     -11.269   9.901  69.968  1.00  0.00    -0.327 A  
HETATM   15  C   UNL     1     -11.168  12.423  69.245  1.00  0.00    -0.201 C  
HETATM   16  C   UNL     1     -11.901   9.106  70.900  1.00  0.00    -0.270 A  
HETATM   17  S   UNL     1     -12.919  10.012  71.939  1.00  0.00    -0.440 SA 
ENDBRANCH   8   9
ENDBRANCH   7   8
TORSDOF 2
ENDMDL
MODEL       25
REMARK 921   NORMALIZED FREE ENERGY PREDICTED BY IDOCK:   -5.14 KCAL/MOL
REMARK 922        TOTAL FREE ENERGY PREDICTED BY IDOCK:   -6.11 KCAL/MOL
REMARK 923 INTER-LIGAND FREE ENERGY PREDICTED BY IDOCK:   -5.88 KCAL/MOL
REMARK 924 INTRA-LIGAND FREE ENERGY PREDICTED BY IDOCK:   -0.24 KCAL/MOL
REMARK 927      BINDING AFFINITY PREDICTED BY RF-SCORE:    0.00 PKD
ROOT
HETATM    1 CL   UNL     1      -7.555  16.107  66.795  1.00  0.00    -0.275 Cl 
HETATM    2  C   UNL     1      -8.591  17.392  67.308  1.00  0.00    -0.212 A  
HETATM    3  C   UNL     1      -8.041  18.355  68.162  1.00  0.00    -0.305 A  
HETATM    4  C   UNL     1      -8.812  19.429  68.605  1.00  0.00    -0.417 A  
HETATM    5  C   UNL     1     -10.129  19.558  68.178  1.00  0.00    -0.537 A  
HETATM    6  C   UNL     1     -10.683  18.596  67.334  1.00  0.00    -0.456 A  
HETATM    7  C   UNL     1      -9.933  17.481  66.908  1.00  0.00    -0.313 A  
ENDROOT
BRANCH   7   8
HETATM    8  C   UNL     1     -10.625  16.416  66.077  1.00  0.00    -0.269 C  
BRANCH   8   9
HETATM    9  N   UNL     1     -10.808  15.155  66.817  1.00  0.00    -0.319 NA 
HETATM   10  C   UNL     1     -11.394  14.083  65.973  1.00  0.00    -0.328 C  
HETATM   11  C   UNL     1     -11.353  12.706  66.679  1.00  0.00    -0.379 C  
HETATM   12  C   UNL     1     -11.695  12.863  68.126  1.00  0.00    -0.352 A  
HETATM   13  C   UNL     1     -11.811  14.085  68.754  1.00  0.00    -0.396 A  
HETATM   14  C   UNL     1     -12.086  13.920  70.145  1.00  0.00    -0.418 A  
HETATM   15  C   UNL     1     -11.660  15.381  68.006  1.00  0.00    -0.292 C  
HETATM   16  C   UNL     1     -12.146  12.591  70.508  1.00  0.00    -0.274 A  
HETATM   17  S   UNL     1     -11.897  11.545  69.175  1.00  0.00    -0.335 SA 
ENDBRANCH   8   9
ENDBRANCH   7   8
TORSDOF 2
ENDMDL
MODEL       26
REMARK 921   NORMALIZED FREE ENERGY PREDICTED BY IDOCK:   -5.14 KCAL/MOL
REMARK 922        TOTAL FREE ENERGY PREDICTED BY IDOCK:   -6.11 KCAL/MOL
REMARK 923 INTER-LIGAND FREE ENERGY PREDICTED BY IDOCK:   -5.90 KCAL/MOL
REMARK 924 INTRA-LIGAND FREE ENERGY PREDICTED BY IDOCK:   -0.21 KCAL/MOL
REMARK 927      BINDING AFFINITY PREDICTED BY RF-SCORE:    0.00 PKD
ROOT
HETATM    1 CL   UNL     1      -7.858  16.805  68.875  1.00  0.00    -0.250 Cl 
HETATM    2  C   UNL     1      -8.740  18.136  68.214  1.00  0.00    -0.284 A  
HETATM    3  C   UNL     1      -8.016  19.295  67.911  1.00  0.00    -0.327 A  
HETATM    4  C   UNL     1      -8.657  20.404  67.360  1.00  0.00    -0.403 A  
HETATM    5  C   UNL     1     -10.021  20.351  67.089  1.00  0.00    -0.568 A  
HETATM    6  C   UNL     1     -10.746  19.201  67.397  1.00  0.00    -0.578 A  
HETATM    7  C   UNL     1     -10.125  18.085  67.992  1.00  0.00    -0.370 A  
ENDROOT
BRANCH   7   8
HETATM    8  C   UNL     1     -10.988  16.905  68.400  1.00  0.00    -0.296 C  
BRANCH   8   9
HETATM    9  N   UNL     1     -10.679  15.688  67.630  1.00  0.00    -0.296 NA 
HETATM   10  C   UNL     1     -10.778  15.905  66.164  1.00  0.00    -0.271 C  
HETATM   11  C   UNL     1     -10.217  14.705  65.364  1.00  0.00    -0.415 C  
HETATM   12  C   UNL     1     -10.627  13.421  66.013  1.00  0.00    -0.287 A  
HETATM   13  C   UNL     1     -11.228  13.352  67.252  1.00  0.00    -0.319 A  
HETATM   14  C   UNL     1     -11.450  11.995  67.637  1.00  0.00    -0.392 A  
HETATM   15  C   UNL     1     -11.580  14.586  68.036  1.00  0.00    -0.336 C  
HETATM   16  C   UNL     1     -10.992  11.105  66.688  1.00  0.00    -0.228 A  
HETATM   17  S   UNL     1     -10.321  11.901  65.326  1.00  0.00    -0.286 SA 
ENDBRANCH   8   9
ENDBRANCH   7   8
TORSDOF 2
ENDMDL
MODEL       27
REMARK 921   NORMALIZED FREE ENERGY PREDICTED BY IDOCK:   -5.14 KCAL/MOL
REMARK 922        TOTAL FREE ENERGY PREDICTED BY IDOCK:   -6.10 KCAL/MOL
REMARK 923 INTER-LIGAND FREE ENERGY PREDICTED BY IDOCK:   -5.74 KCAL/MOL
REMARK 924 INTRA-LIGAND FREE ENERGY PREDICTED BY IDOCK:   -0.37 KCAL/MOL
REMARK 927      BINDING AFFINITY PREDICTED BY RF-SCORE:    0.00 PKD
ROOT
HETATM    1 CL   UNL     1     -10.719  19.478  66.025  1.00  0.00    -0.557 Cl 
HETATM    2  C   UNL     1      -9.232  18.657  66.344  1.00  0.00    -0.291 A  
HETATM    3  C   UNL     1      -8.102  19.448  66.580  1.00  0.00    -0.315 A  
HETATM    4  C   UNL     1      -6.871  18.857  66.860  1.00  0.00    -0.205 A  
HETATM    5  C   UNL     1      -6.769  17.471  66.928  1.00  0.00    -0.220 A  
HETATM    6  C   UNL     1      -7.891  16.679  66.686  1.00  0.00    -0.316 A  
HETATM    7  C   UNL     1      -9.135  17.257  66.361  1.00  0.00    -0.281 A  
ENDROOT
BRANCH   7   8
HETATM    8  C   UNL     1     -10.290  16.339  66.005  1.00  0.00    -0.349 C  
BRANCH   8   9
HETATM    9  N   UNL     1     -10.703  15.489  67.136  1.00  0.00    -0.312 NA 
HETATM   10  C   UNL     1     -11.674  14.441  66.730  1.00  0.00    -0.397 C  
HETATM   11  C   UNL     1     -11.911  13.408  67.858  1.00  0.00    -0.392 C  
HETATM   12  C   UNL     1     -11.987  14.102  69.180  1.00  0.00    -0.349 A  
HETATM   13  C   UNL     1     -11.674  15.432  69.361  1.00  0.00    -0.369 A  
HETATM   14  C   UNL     1     -11.782  15.800  70.737  1.00  0.00    -0.430 A  
HETATM   15  C   UNL     1     -11.282  16.321  68.213  1.00  0.00    -0.324 C  
HETATM   16  C   UNL     1     -12.151  14.734  71.531  1.00  0.00    -0.350 A  
HETATM   17  S   UNL     1     -12.390  13.302  70.621  1.00  0.00    -0.277 SA 
ENDBRANCH   8   9
ENDBRANCH   7   8
TORSDOF 2
ENDMDL
MODEL       28
REMARK 921   NORMALIZED FREE ENERGY PREDICTED BY IDOCK:   -5.12 KCAL/MOL
REMARK 922        TOTAL FREE ENERGY PREDICTED BY IDOCK:   -6.08 KCAL/MOL
REMARK 923 INTER-LIGAND FREE ENERGY PREDICTED BY IDOCK:   -5.72 KCAL/MOL
REMARK 924 INTRA-LIGAND FREE ENERGY PREDICTED BY IDOCK:   -0.36 KCAL/MOL
REMARK 927      BINDING AFFINITY PREDICTED BY RF-SCORE:    0.00 PKD
ROOT
HETATM    1 CL   UNL     1     -13.565   9.629  71.689  1.00  0.00    -0.422 Cl 
HETATM    2  C   UNL     1     -11.881   9.514  71.319  1.00  0.00    -0.373 A  
HETATM    3  C   UNL     1     -11.082   8.776  72.200  1.00  0.00    -0.406 A  
HETATM    4  C   UNL     1      -9.717   8.626  71.958  1.00  0.00    -0.391 A  
HETATM    5  C   UNL     1      -9.148   9.195  70.823  1.00  0.00    -0.313 A  
HETATM    6  C   UNL     1      -9.940   9.938  69.948  1.00  0.00    -0.292 A  
HETATM    7  C   UNL     1     -11.313  10.136  70.196  1.00  0.00    -0.372 A  
ENDROOT
BRANCH   7   8
HETATM    8  C   UNL     1     -12.096  11.041  69.264  1.00  0.00    -0.292 C  
BRANCH   8   9
HETATM    9  N   UNL     1     -11.609  12.432  69.289  1.00  0.00    -0.302 NA 
HETATM   10  C   UNL     1     -12.241  13.234  70.368  1.00  0.00    -0.332 C  
HETATM   11  C   UNL     1     -11.551  14.607  70.545  1.00  0.00    -0.319 C  
HETATM   12  C   UNL     1     -11.215  15.188  69.208  1.00  0.00    -0.278 A  
HETATM   13  C   UNL     1     -11.319  14.486  68.025  1.00  0.00    -0.326 A  
HETATM   14  C   UNL     1     -10.875  15.277  66.922  1.00  0.00    -0.317 A  
HETATM   15  C   UNL     1     -11.845  13.078  67.979  1.00  0.00    -0.347 C  
HETATM   16  C   UNL     1     -10.440  16.524  67.320  1.00  0.00    -0.304 A  
HETATM   17  S   UNL     1     -10.589  16.752  69.011  1.00  0.00    -0.336 SA 
ENDBRANCH   8   9
ENDBRANCH   7   8
TORSDOF 2
ENDMDL
MODEL       29
REMARK 921   NORMALIZED FREE ENERGY PREDICTED BY IDOCK:   -5.11 KCAL/MOL
REMARK 922        TOTAL FREE ENERGY PREDICTED BY IDOCK:   -6.08 KCAL/MOL
REMARK 923 INTER-LIGAND FREE ENERGY PREDICTED BY IDOCK:   -5.94 KCAL/MOL
REMARK 924 INTRA-LIGAND FREE ENERGY PREDICTED BY IDOCK:   -0.14 KCAL/MOL
REMARK 927      BINDING AFFINITY PREDICTED BY RF-SCORE:    0.00 PKD
ROOT
HETATM    1 CL   UNL     1     -12.865  10.318  71.117  1.00  0.00    -0.472 Cl 
HETATM    2  C   UNL     1     -12.848  12.040  71.267  1.00  0.00    -0.265 A  
HETATM    3  C   UNL     1     -13.608  12.599  72.301  1.00  0.00    -0.508 A  
HETATM    4  C   UNL     1     -13.631  13.980  72.493  1.00  0.00    -0.670 A  
HETATM    5  C   UNL     1     -12.876  14.806  71.667  1.00  0.00    -0.405 A  
HETATM    6  C   UNL     1     -12.123  14.253  70.632  1.00  0.00    -0.417 A  
HETATM    7  C   UNL     1     -12.119  12.864  70.395  1.00  0.00    -0.385 A  
ENDROOT
BRANCH   7   8
HETATM    8  C   UNL     1     -11.366  12.336  69.189  1.00  0.00    -0.272 C  
BRANCH   8   9
HETATM    9  N   UNL     1     -11.624  13.127  67.972  1.00  0.00    -0.312 NA 
HETATM   10  C   UNL     1     -11.843  12.272  66.777  1.00  0.00    -0.277 C  
HETATM   11  C   UNL     1     -12.353  13.091  65.569  1.00  0.00    -0.527 C  
HETATM   12  C   UNL     1     -11.633  14.400  65.496  1.00  0.00    -0.347 A  
HETATM   13  C   UNL     1     -10.803  14.869  66.493  1.00  0.00    -0.322 A  
HETATM   14  C   UNL     1     -10.305  16.168  66.173  1.00  0.00    -0.350 A  
HETATM   15  C   UNL     1     -10.503  14.060  67.725  1.00  0.00    -0.236 C  
HETATM   16  C   UNL     1     -10.793  16.629  64.968  1.00  0.00    -0.176 A  
HETATM   17  S   UNL     1     -11.826  15.491  64.211  1.00  0.00    -0.000 SA 
ENDBRANCH   8   9
ENDBRANCH   7   8
TORSDOF 2
ENDMDL
MODEL       30
REMARK 921   NORMALIZED FREE ENERGY PREDICTED BY IDOCK:   -5.11 KCAL/MOL
REMARK 922        TOTAL FREE ENERGY PREDICTED BY IDOCK:   -6.08 KCAL/MOL
REMARK 923 INTER-LIGAND FREE ENERGY PREDICTED BY IDOCK:   -5.73 KCAL/MOL
REMARK 924 INTRA-LIGAND FREE ENERGY PREDICTED BY IDOCK:   -0.35 KCAL/MOL
REMARK 927      BINDING AFFINITY PREDICTED BY RF-SCORE:    0.00 PKD
ROOT
HETATM    1 CL   UNL     1     -11.856  14.817  68.791  1.00  0.00    -0.340 Cl 
HETATM    2  C   UNL     1     -11.830  13.752  67.431  1.00  0.00    -0.396 A  
HETATM    3  C   UNL     1     -12.475  14.186  66.267  1.00  0.00    -0.395 A  
HETATM    4  C   UNL     1     -12.484  13.387  65.124  1.00  0.00    -0.509 A  
HETATM    5  C   UNL     1     -11.827  12.161  65.132  1.00  0.00    -0.356 A  
HETATM    6  C   UNL     1     -11.190  11.722  66.292  1.00  0.00    -0.370 A  
HETATM    7  C   UNL     1     -11.206  12.496  67.470  1.00  0.00    -0.342 A  
ENDROOT
BRANCH   7   8
HETATM    8  C   UNL     1     -10.586  11.915  68.728  1.00  0.00    -0.206 C  
BRANCH   8   9
HETATM    9  N   UNL     1     -11.543  11.109  69.507  1.00  0.00    -0.290 NA 
HETATM   10  C   UNL     1     -12.087  11.848  70.674  1.00  0.00    -0.294 C  
HETATM   11  C   UNL     1     -13.264  11.093  71.337  1.00  0.00    -0.301 C  
HETATM   12  C   UNL     1     -12.971   9.627  71.383  1.00  0.00    -0.385 A  
HETATM   13  C   UNL     1     -11.905   9.043  70.731  1.00  0.00    -0.251 A  
HETATM   14  C   UNL     1     -11.914   7.626  70.907  1.00  0.00    -0.252 A  
HETATM   15  C   UNL     1     -10.902   9.855  69.959  1.00  0.00    -0.294 C  
HETATM   16  C   UNL     1     -12.989   7.203  71.661  1.00  0.00    -0.370 A  
HETATM   17  S   UNL     1     -13.970   8.510  72.177  1.00  0.00    -0.384 SA 
ENDBRANCH   8   9
ENDBRANCH   7   8
TORSDOF 2
ENDMDL
MODEL       31
REMARK 921   NORMALIZED FREE ENERGY PREDICTED BY IDOCK:   -5.11 KCAL/MOL
REMARK 922        TOTAL FREE ENERGY PREDICTED BY IDOCK:   -6.07 KCAL/MOL
REMARK 923 INTER-LIGAND FREE ENERGY PREDICTED BY IDOCK:   -5.71 KCAL/MOL
REMARK 924 INTRA-LIGAND FREE ENERGY PREDICTED BY IDOCK:   -0.36 KCAL/MOL
REMARK 927      BINDING AFFINITY PREDICTED BY RF-SCORE:    0.00 PKD
ROOT
HETATM    1 CL   UNL     1     -10.628  19.942  66.100  1.00  0.00    -0.566 Cl 
HETATM    2  C   UNL     1      -9.316  19.281  67.010  1.00  0.00    -0.318 A  
HETATM    3  C   UNL     1      -8.082  19.935  66.920  1.00  0.00    -0.346 A  
HETATM    4  C   UNL     1      -6.981  19.468  67.638  1.00  0.00    -0.264 A  
HETATM    5  C   UNL     1      -7.116  18.359  68.467  1.00  0.00    -0.285 A  
HETATM    6  C   UNL     1      -8.342  17.700  68.553  1.00  0.00    -0.291 A  
HETATM    7  C   UNL     1      -9.455  18.131  67.803  1.00  0.00    -0.269 A  
ENDROOT
BRANCH   7   8
HETATM    8  C   UNL     1     -10.729  17.310  67.859  1.00  0.00    -0.351 C  
BRANCH   8   9
HETATM    9  N   UNL     1     -10.544  15.946  67.333  1.00  0.00    -0.311 NA 
HETATM   10  C   UNL     1     -10.647  15.891  65.852  1.00  0.00    -0.337 C  
HETATM   11  C   UNL     1     -10.210  14.516  65.294  1.00  0.00    -0.431 C  
HETATM   12  C   UNL     1     -10.722  13.420  66.174  1.00  0.00    -0.284 A  
HETATM   13  C   UNL     1     -11.305  13.640  67.404  1.00  0.00    -0.340 A  
HETATM   14  C   UNL     1     -11.641  12.406  68.038  1.00  0.00    -0.403 A  
HETATM   15  C   UNL     1     -11.531  15.027  67.941  1.00  0.00    -0.340 C  
HETATM   16  C   UNL     1     -11.281  11.315  67.274  1.00  0.00    -0.296 A  
HETATM   17  S   UNL     1     -10.565  11.776  65.787  1.00  0.00    -0.277 SA 
ENDBRANCH   8   9
ENDBRANCH   7   8
TORSDOF 2
ENDMDL
MODEL       32
REMARK 921   NORMALIZED FREE ENERGY PREDICTED BY IDOCK:   -5.07 KCAL/MOL
REMARK 922        TOTAL FREE ENERGY PREDICTED BY IDOCK:   -6.03 KCAL/MOL
REMARK 923 INTER-LIGAND FREE ENERGY PREDICTED BY IDOCK:   -5.67 KCAL/MOL
REMARK 924 INTRA-LIGAND FREE ENERGY PREDICTED BY IDOCK:   -0.35 KCAL/MOL
REMARK 927      BINDING AFFINITY PREDICTED BY RF-SCORE:    0.00 PKD
ROOT
HETATM    1 CL   UNL     1     -10.222   8.025  70.417  1.00  0.00    -0.199 Cl 
HETATM    2  C   UNL     1     -11.238   9.378  70.772  1.00  0.00    -0.302 A  
HETATM    3  C   UNL     1     -12.250   9.185  71.719  1.00  0.00    -0.442 A  
HETATM    4  C   UNL     1     -13.099  10.235  72.069  1.00  0.00    -0.529 A  
HETATM    5  C   UNL     1     -12.924  11.488  71.490  1.00  0.00    -0.485 A  
HETATM    6  C   UNL     1     -11.921  11.681  70.541  1.00  0.00    -0.413 A  
HETATM    7  C   UNL     1     -11.080  10.623  70.144  1.00  0.00    -0.341 A  
ENDROOT
BRANCH   7   8
HETATM    8  C   UNL     1     -10.079  10.870  69.030  1.00  0.00    -0.196 C  
BRANCH   8   9
HETATM    9  N   UNL     1     -10.541  11.894  68.075  1.00  0.00    -0.200 NA 
HETATM   10  C   UNL     1     -11.136  11.298  66.851  1.00  0.00    -0.275 C  
HETATM   11  C   UNL     1     -11.835  12.363  65.974  1.00  0.00    -0.459 C  
HETATM   12  C   UNL     1     -11.019  13.616  65.939  1.00  0.00    -0.282 A  
HETATM   13  C   UNL     1      -9.925  13.834  66.750  1.00  0.00    -0.270 A  
HETATM   14  C   UNL     1      -9.383  15.138  66.537  1.00  0.00    -0.308 A  
HETATM   15  C   UNL     1      -9.421  12.788  67.707  1.00  0.00    -0.205 C  
HETATM   16  C   UNL     1     -10.098  15.849  65.596  1.00  0.00    -0.358 A  
HETATM   17  S   UNL     1     -11.402  14.941  64.953  1.00  0.00    -0.406 SA 
ENDBRANCH   8   9
ENDBRANCH   7   8
TORSDOF 2
ENDMDL
MODEL       33
REMARK 921   NORMALIZED FREE ENERGY PREDICTED BY IDOCK:   -5.05 KCAL/MOL
REMARK 922        TOTAL FREE ENERGY PREDICTED BY IDOCK:   -6.01 KCAL/MOL
REMARK 923 INTER-LIGAND FREE ENERGY PREDICTED BY IDOCK:   -5.66 KCAL/MOL
REMARK 924 INTRA-LIGAND FREE ENERGY PREDICTED BY IDOCK:   -0.35 KCAL/MOL
REMARK 927      BINDING AFFINITY PREDICTED BY RF-SCORE:    0.00 PKD
ROOT
HETATM    1 CL   UNL     1     -12.361  11.975  63.361  1.00  0.00    -0.670 Cl 
HETATM    2  C   UNL     1     -10.906  11.379  64.077  1.00  0.00    -0.383 A  
HETATM    3  C   UNL     1      -9.982  10.761  63.226  1.00  0.00    -0.369 A  
HETATM    4  C   UNL     1      -8.778  10.269  63.729  1.00  0.00    -0.211 A  
HETATM    5  C   UNL     1      -8.482  10.413  65.081  1.00  0.00    -0.177 A  
HETATM    6  C   UNL     1      -9.404  11.021  65.933  1.00  0.00    -0.229 A  
HETATM    7  C   UNL     1     -10.643  11.488  65.451  1.00  0.00    -0.336 A  
ENDROOT
BRANCH   7   8
HETATM    8  C   UNL     1     -11.645  12.043  66.446  1.00  0.00    -0.313 C  
BRANCH   8   9
HETATM    9  N   UNL     1     -11.231  13.346  66.995  1.00  0.00    -0.296 NA 
HETATM   10  C   UNL     1     -12.024  13.736  68.189  1.00  0.00    -0.358 C  
HETATM   11  C   UNL     1     -11.426  14.973  68.900  1.00  0.00    -0.333 C  
HETATM   12  C   UNL     1     -10.961  15.971  67.887  1.00  0.00    -0.327 A  
HETATM   13  C   UNL     1     -10.891  15.707  66.535  1.00  0.00    -0.260 A  
HETATM   14  C   UNL     1     -10.357  16.824  65.824  1.00  0.00    -0.322 A  
HETATM   15  C   UNL     1     -11.340  14.394  65.955  1.00  0.00    -0.335 C  
HETATM   16  C   UNL     1     -10.031  17.867  66.666  1.00  0.00    -0.355 A  
HETATM   17  S   UNL     1     -10.391  17.513  68.303  1.00  0.00    -0.385 SA 
ENDBRANCH   8   9
ENDBRANCH   7   8
TORSDOF 2
ENDMDL
MODEL       34
REMARK 921   NORMALIZED FREE ENERGY PREDICTED BY IDOCK:   -4.98 KCAL/MOL
REMARK 922        TOTAL FREE ENERGY PREDICTED BY IDOCK:   -5.93 KCAL/MOL
REMARK 923 INTER-LIGAND FREE ENERGY PREDICTED BY IDOCK:   -5.63 KCAL/MOL
REMARK 924 INTRA-LIGAND FREE ENERGY PREDICTED BY IDOCK:   -0.30 KCAL/MOL
REMARK 927      BINDING AFFINITY PREDICTED BY RF-SCORE:    0.00 PKD
ROOT
HETATM    1 CL   UNL     1     -12.253  13.956  71.201  1.00  0.00    -0.423 Cl 
HETATM    2  C   UNL     1     -11.883  13.370  69.618  1.00  0.00    -0.331 A  
HETATM    3  C   UNL     1     -11.742  11.986  69.465  1.00  0.00    -0.408 A  
HETATM    4  C   UNL     1     -11.459  11.438  68.214  1.00  0.00    -0.369 A  
HETATM    5  C   UNL     1     -11.338  12.271  67.106  1.00  0.00    -0.398 A  
HETATM    6  C   UNL     1     -11.471  13.651  67.256  1.00  0.00    -0.370 A  
HETATM    7  C   UNL     1     -11.716  14.227  68.518  1.00  0.00    -0.376 A  
ENDROOT
BRANCH   7   8
HETATM    8  C   UNL     1     -11.743  15.739  68.633  1.00  0.00    -0.344 C  
BRANCH   8   9
HETATM    9  N   UNL     1     -10.416  16.345  68.423  1.00  0.00    -0.281 NA 
HETATM   10  C   UNL     1      -9.417  15.876  69.417  1.00  0.00    -0.248 C  
HETATM   11  C   UNL     1      -7.982  16.319  69.045  1.00  0.00    -0.238 C  
HETATM   12  C   UNL     1      -7.997  17.721  68.525  1.00  0.00    -0.294 A  
HETATM   13  C   UNL     1      -9.154  18.411  68.230  1.00  0.00    -0.330 A  
HETATM   14  C   UNL     1      -8.857  19.702  67.697  1.00  0.00    -0.378 A  
HETATM   15  C   UNL     1     -10.517  17.820  68.468  1.00  0.00    -0.328 C  
HETATM   16  C   UNL     1      -7.499  19.921  67.595  1.00  0.00    -0.285 A  
HETATM   17  S   UNL     1      -6.585  18.588  68.163  1.00  0.00    -0.225 SA 
ENDBRANCH   8   9
ENDBRANCH   7   8
TORSDOF 2
ENDMDL
MODEL       35
REMARK 921   NORMALIZED FREE ENERGY PREDICTED BY IDOCK:   -4.96 KCAL/MOL
REMARK 922        TOTAL FREE ENERGY PREDICTED BY IDOCK:   -5.90 KCAL/MOL
REMARK 923 INTER-LIGAND FREE ENERGY PREDICTED BY IDOCK:   -6.08 KCAL/MOL
REMARK 924 INTRA-LIGAND FREE ENERGY PREDICTED BY IDOCK:    0.18 KCAL/MOL
REMARK 927      BINDING AFFINITY PREDICTED BY RF-SCORE:    0.00 PKD
ROOT
HETATM    1 CL   UNL     1      -7.763  16.332  68.988  1.00  0.00    -0.216 Cl 
HETATM    2  C   UNL     1      -8.834  17.544  68.381  1.00  0.00    -0.276 A  
HETATM    3  C   UNL     1      -8.435  18.878  68.522  1.00  0.00    -0.384 A  
HETATM    4  C   UNL     1      -9.240  19.911  68.043  1.00  0.00    -0.405 A  
HETATM    5  C   UNL     1     -10.438  19.614  67.401  1.00  0.00    -0.596 A  
HETATM    6  C   UNL     1     -10.843  18.286  67.266  1.00  0.00    -0.269 A  
HETATM    7  C   UNL     1     -10.063  17.231  67.780  1.00  0.00    -0.311 A  
ENDROOT
BRANCH   7   8
HETATM    8  C   UNL     1     -10.609  15.817  67.695  1.00  0.00    -0.301 C  
BRANCH   8   9
HETATM    9  N   UNL     1     -11.385  15.441  68.890  1.00  0.00    -0.293 NA 
HETATM   10  C   UNL     1     -11.025  16.256  70.079  1.00  0.00    -0.355 C  
HETATM   11  C   UNL     1     -12.007  16.027  71.253  1.00  0.00    -0.475 C  
HETATM   12  C   UNL     1     -12.358  14.576  71.352  1.00  0.00    -0.356 A  
HETATM   13  C   UNL     1     -12.015  13.643  70.397  1.00  0.00    -0.372 A  
HETATM   14  C   UNL     1     -12.535  12.356  70.732  1.00  0.00    -0.356 A  
HETATM   15  C   UNL     1     -11.196  14.004  69.188  1.00  0.00    -0.269 C  
HETATM   16  C   UNL     1     -13.258  12.377  71.906  1.00  0.00    -0.382 A  
HETATM   17  S   UNL     1     -13.290  13.936  72.616  1.00  0.00    -0.462 SA 
ENDBRANCH   8   9
ENDBRANCH   7   8
TORSDOF 2
ENDMDL
MODEL       36
REMARK 921   NORMALIZED FREE ENERGY PREDICTED BY IDOCK:   -4.95 KCAL/MOL
REMARK 922        TOTAL FREE ENERGY PREDICTED BY IDOCK:   -5.89 KCAL/MOL
REMARK 923 INTER-LIGAND FREE ENERGY PREDICTED BY IDOCK:   -5.80 KCAL/MOL
REMARK 924 INTRA-LIGAND FREE ENERGY PREDICTED BY IDOCK:   -0.09 KCAL/MOL
REMARK 927      BINDING AFFINITY PREDICTED BY RF-SCORE:    0.00 PKD
ROOT
HETATM    1 CL   UNL     1     -11.106  15.632  64.837  1.00  0.00    -0.432 Cl 
HETATM    2  C   UNL     1     -10.447  14.151  65.438  1.00  0.00    -0.357 A  
HETATM    3  C   UNL     1     -10.462  13.049  64.575  1.00  0.00    -0.413 A  
HETATM    4  C   UNL     1      -9.934  11.825  64.984  1.00  0.00    -0.287 A  
HETATM    5  C   UNL     1      -9.367  11.704  66.248  1.00  0.00    -0.228 A  
HETATM    6  C   UNL     1      -9.357  12.798  67.113  1.00  0.00    -0.216 A  
HETATM    7  C   UNL     1      -9.923  14.032  66.734  1.00  0.00    -0.268 A  
ENDROOT
BRANCH   7   8
HETATM    8  C   UNL     1      -9.975  15.151  67.757  1.00  0.00    -0.225 C  
BRANCH   8   9
HETATM    9  N   UNL     1     -10.743  14.779  68.959  1.00  0.00    -0.243 NA 
HETATM   10  C   UNL     1     -11.985  14.035  68.630  1.00  0.00    -0.354 C  
HETATM   11  C   UNL     1     -12.652  13.439  69.893  1.00  0.00    -0.034 C  
HETATM   12  C   UNL     1     -12.580  14.418  71.021  1.00  0.00    -0.349 A  
HETATM   13  C   UNL     1     -11.836  15.578  70.976  1.00  0.00    -0.427 A  
HETATM   14  C   UNL     1     -11.912  16.282  72.216  1.00  0.00    -0.605 A  
HETATM   15  C   UNL     1     -11.074  15.988  69.746  1.00  0.00    -0.337 C  
HETATM   16  C   UNL     1     -12.688  15.618  73.143  1.00  0.00    -0.486 A  
HETATM   17  S   UNL     1     -13.343  14.164  72.514  1.00  0.00    -0.544 SA 
ENDBRANCH   8   9
ENDBRANCH   7   8
TORSDOF 2
ENDMDL
MODEL       37
REMARK 921   NORMALIZED FREE ENERGY PREDICTED BY IDOCK:   -4.94 KCAL/MOL
REMARK 922        TOTAL FREE ENERGY PREDICTED BY IDOCK:   -5.89 KCAL/MOL
REMARK 923 INTER-LIGAND FREE ENERGY PREDICTED BY IDOCK:   -5.54 KCAL/MOL
REMARK 924 INTRA-LIGAND FREE ENERGY PREDICTED BY IDOCK:   -0.35 KCAL/MOL
REMARK 927      BINDING AFFINITY PREDICTED BY RF-SCORE:    0.00 PKD
ROOT
HETATM    1 CL   UNL     1     -10.906  19.564  67.101  1.00  0.00    -0.596 Cl 
HETATM    2  C   UNL     1      -9.626  18.610  67.762  1.00  0.00    -0.304 A  
HETATM    3  C   UNL     1      -8.352  19.189  67.800  1.00  0.00    -0.325 A  
HETATM    4  C   UNL     1      -7.272  18.485  68.333  1.00  0.00    -0.292 A  
HETATM    5  C   UNL     1      -7.467  17.210  68.852  1.00  0.00    -0.241 A  
HETATM    6  C   UNL     1      -8.733  16.627  68.810  1.00  0.00    -0.260 A  
HETATM    7  C   UNL     1      -9.828  17.305  68.238  1.00  0.00    -0.304 A  
ENDROOT
BRANCH   7   8
HETATM    8  C   UNL     1     -11.154  16.577  68.126  1.00  0.00    -0.303 C  
BRANCH   8   9
HETATM    9  N   UNL     1     -10.987  15.117  68.009  1.00  0.00    -0.284 NA 
HETATM   10  C   UNL     1     -11.310  14.618  66.648  1.00  0.00    -0.356 C  
HETATM   11  C   UNL     1     -10.898  13.137  66.465  1.00  0.00    -0.291 C  
HETATM   12  C   UNL     1     -11.221  12.359  67.701  1.00  0.00    -0.288 A  
HETATM   13  C   UNL     1     -11.623  12.943  68.885  1.00  0.00    -0.360 A  
HETATM   14  C   UNL     1     -11.802  11.958  69.904  1.00  0.00    -0.418 A  
HETATM   15  C   UNL     1     -11.829  14.427  69.011  1.00  0.00    -0.323 C  
HETATM   16  C   UNL     1     -11.511  10.687  69.454  1.00  0.00    -0.286 A  
HETATM   17  S   UNL     1     -11.048  10.675  67.804  1.00  0.00    -0.306 SA 
ENDBRANCH   8   9
ENDBRANCH   7   8
TORSDOF 2
ENDMDL
MODEL       38
REMARK 921   NORMALIZED FREE ENERGY PREDICTED BY IDOCK:   -4.94 KCAL/MOL
REMARK 922        TOTAL FREE ENERGY PREDICTED BY IDOCK:   -5.88 KCAL/MOL
REMARK 923 INTER-LIGAND FREE ENERGY PREDICTED BY IDOCK:   -5.94 KCAL/MOL
REMARK 924 INTRA-LIGAND FREE ENERGY PREDICTED BY IDOCK:    0.06 KCAL/MOL
REMARK 927      BINDING AFFINITY PREDICTED BY RF-SCORE:    0.00 PKD
ROOT
HETATM    1 CL   UNL     1      -8.831  11.231  65.438  1.00  0.00    -0.114 Cl 
HETATM    2  C   UNL     1     -10.182  12.230  65.034  1.00  0.00    -0.285 A  
HETATM    3  C   UNL     1     -10.791  12.011  63.792  1.00  0.00    -0.481 A  
HETATM    4  C   UNL     1     -11.895  12.768  63.404  1.00  0.00    -0.591 A  
HETATM    5  C   UNL     1     -12.411  13.732  64.264  1.00  0.00    -0.384 A  
HETATM    6  C   UNL     1     -11.802  13.958  65.498  1.00  0.00    -0.372 A  
HETATM    7  C   UNL     1     -10.660  13.232  65.892  1.00  0.00    -0.288 A  
ENDROOT
BRANCH   7   8
HETATM    8  C   UNL     1      -9.983  13.599  67.199  1.00  0.00    -0.247 C  
BRANCH   8   9
HETATM    9  N   UNL     1     -10.610  12.946  68.362  1.00  0.00    -0.248 NA 
HETATM   10  C   UNL     1     -11.196  11.624  68.020  1.00  0.00    -0.263 C  
HETATM   11  C   UNL     1     -11.629  10.842  69.283  1.00  0.00    -0.388 C  
HETATM   12  C   UNL     1     -12.267  11.771  70.267  1.00  0.00    -0.299 A  
HETATM   13  C   UNL     1     -12.260  13.144  70.134  1.00  0.00    -0.360 A  
HETATM   14  C   UNL     1     -12.891  13.768  71.252  1.00  0.00    -0.434 A  
HETATM   15  C   UNL     1     -11.652  13.824  68.938  1.00  0.00    -0.319 C  
HETATM   16  C   UNL     1     -13.327  12.848  72.182  1.00  0.00    -0.515 A  
HETATM   17  S   UNL     1     -12.999  11.237  71.700  1.00  0.00    -0.349 SA 
ENDBRANCH   8   9
ENDBRANCH   7   8
TORSDOF 2
ENDMDL
MODEL       39
REMARK 921   NORMALIZED FREE ENERGY PREDICTED BY IDOCK:   -4.93 KCAL/MOL
REMARK 922        TOTAL FREE ENERGY PREDICTED BY IDOCK:   -5.87 KCAL/MOL
REMARK 923 INTER-LIGAND FREE ENERGY PREDICTED BY IDOCK:   -5.54 KCAL/MOL
REMARK 924 INTRA-LIGAND FREE ENERGY PREDICTED BY IDOCK:   -0.33 KCAL/MOL
REMARK 927      BINDING AFFINITY PREDICTED BY RF-SCORE:    0.00 PKD
ROOT
HETATM    1 CL   UNL     1     -12.023  13.125  67.537  1.00  0.00    -0.394 Cl 
HETATM    2  C   UNL     1     -11.814  14.149  68.914  1.00  0.00    -0.347 A  
HETATM    3  C   UNL     1     -12.112  13.602  70.167  1.00  0.00    -0.431 A  
HETATM    4  C   UNL     1     -11.952  14.363  71.325  1.00  0.00    -0.359 A  
HETATM    5  C   UNL     1     -11.472  15.666  71.236  1.00  0.00    -0.469 A  
HETATM    6  C   UNL     1     -11.181  16.215  69.988  1.00  0.00    -0.359 A  
HETATM    7  C   UNL     1     -11.375  15.477  68.804  1.00  0.00    -0.339 A  
ENDROOT
BRANCH   7   8
HETATM    8  C   UNL     1     -11.142  16.167  67.473  1.00  0.00    -0.175 C  
BRANCH   8   9
HETATM    9  N   UNL     1     -10.140  17.244  67.564  1.00  0.00    -0.304 NA 
HETATM   10  C   UNL     1     -10.713  18.579  67.255  1.00  0.00    -0.374 C  
HETATM   11  C   UNL     1      -9.726  19.722  67.591  1.00  0.00    -0.490 C  
HETATM   12  C   UNL     1      -8.338  19.334  67.191  1.00  0.00    -0.280 A  
HETATM   13  C   UNL     1      -7.989  18.063  66.788  1.00  0.00    -0.261 A  
HETATM   14  C   UNL     1      -6.588  17.977  66.527  1.00  0.00    -0.243 A  
HETATM   15  C   UNL     1      -9.005  16.962  66.658  1.00  0.00    -0.252 C  
HETATM   16  C   UNL     1      -5.942  19.173  66.762  1.00  0.00    -0.162 A  
HETATM   17  S   UNL     1      -7.023  20.402  67.270  1.00  0.00    -0.304 SA 
ENDBRANCH   8   9
ENDBRANCH   7   8
TORSDOF 2
ENDMDL
MODEL       40
REMARK 921   NORMALIZED FREE ENERGY PREDICTED BY IDOCK:   -4.93 KCAL/MOL
REMARK 922        TOTAL FREE ENERGY PREDICTED BY IDOCK:   -5.87 KCAL/MOL
REMARK 923 INTER-LIGAND FREE ENERGY PREDICTED BY IDOCK:   -5.49 KCAL/MOL
REMARK 924 INTRA-LIGAND FREE ENERGY PREDICTED BY IDOCK:   -0.39 KCAL/MOL
REMARK 927      BINDING AFFINITY PREDICTED BY RF-SCORE:    0.00 PKD
ROOT
HETATM    1 CL   UNL     1     -11.543  11.760  67.844  1.00  0.00    -0.381 Cl 
HETATM    2  C   UNL     1     -11.096  11.867  66.178  1.00  0.00    -0.326 A  
HETATM    3  C   UNL     1     -10.504  10.737  65.602  1.00  0.00    -0.255 A  
HETATM    4  C   UNL     1     -10.130  10.743  64.259  1.00  0.00    -0.427 A  
HETATM    5  C   UNL     1     -10.369  11.870  63.480  1.00  0.00    -0.495 A  
HETATM    6  C   UNL     1     -10.952  13.000  64.052  1.00  0.00    -0.422 A  
HETATM    7  C   UNL     1     -11.298  13.029  65.418  1.00  0.00    -0.327 A  
ENDROOT
BRANCH   7   8
HETATM    8  C   UNL     1     -11.830  14.323  66.005  1.00  0.00    -0.391 C  
BRANCH   8   9
HETATM    9  N   UNL     1     -10.797  15.075  66.739  1.00  0.00    -0.314 NA 
HETATM   10  C   UNL     1     -11.316  15.670  67.997  1.00  0.00    -0.324 C  
HETATM   11  C   UNL     1     -10.179  16.243  68.876  1.00  0.00    -0.256 C  
HETATM   12  C   UNL     1      -9.169  16.937  68.019  1.00  0.00    -0.235 A  
HETATM   13  C   UNL     1      -9.166  16.873  66.641  1.00  0.00    -0.278 A  
HETATM   14  C   UNL     1      -8.052  17.583  66.099  1.00  0.00    -0.244 A  
HETATM   15  C   UNL     1     -10.231  16.136  65.876  1.00  0.00    -0.360 C  
HETATM   16  C   UNL     1      -7.258  18.132  67.084  1.00  0.00    -0.199 A  
HETATM   17  S   UNL     1      -7.865  17.815  68.655  1.00  0.00    -0.253 SA 
ENDBRANCH   8   9
ENDBRANCH   7   8
TORSDOF 2
ENDMDL
MODEL       41
REMARK 921   NORMALIZED FREE ENERGY PREDICTED BY IDOCK:   -4.92 KCAL/MOL
REMARK 922        TOTAL FREE ENERGY PREDICTED BY IDOCK:   -5.86 KCAL/MOL
REMARK 923 INTER-LIGAND FREE ENERGY PREDICTED BY IDOCK:   -5.47 KCAL/MOL
REMARK 924 INTRA-LIGAND FREE ENERGY PREDICTED BY IDOCK:   -0.40 KCAL/MOL
REMARK 927      BINDING AFFINITY PREDICTED BY RF-SCORE:    0.00 PKD
ROOT
HETATM    1 CL   UNL     1     -12.439  12.971  70.883  1.00  0.00    -0.440 Cl 
HETATM    2  C   UNL     1     -11.800  11.935  69.656  1.00  0.00    -0.337 A  
HETATM    3  C   UNL     1     -11.314  10.687  70.062  1.00  0.00    -0.400 A  
HETATM    4  C   UNL     1     -10.797   9.791  69.127  1.00  0.00    -0.231 A  
HETATM    5  C   UNL     1     -10.787  10.130  67.777  1.00  0.00    -0.346 A  
HETATM    6  C   UNL     1     -11.264  11.375  67.370  1.00  0.00    -0.370 A  
HETATM    7  C   UNL     1     -11.751  12.310  68.304  1.00  0.00    -0.392 A  
ENDROOT
BRANCH   7   8
HETATM    8  C   UNL     1     -12.157  13.686  67.809  1.00  0.00    -0.290 C  
BRANCH   8   9
HETATM    9  N   UNL     1     -11.118  14.702  68.055  1.00  0.00    -0.270 NA 
HETATM   10  C   UNL     1     -11.624  15.848  68.854  1.00  0.00    -0.388 C  
HETATM   11  C   UNL     1     -10.478  16.780  69.314  1.00  0.00    -0.331 C  
HETATM   12  C   UNL     1      -9.482  16.950  68.212  1.00  0.00    -0.250 A  
HETATM   13  C   UNL     1      -9.496  16.206  67.051  1.00  0.00    -0.233 A  
HETATM   14  C   UNL     1      -8.392  16.548  66.213  1.00  0.00    -0.364 A  
HETATM   15  C   UNL     1     -10.568  15.189  66.771  1.00  0.00    -0.298 C  
HETATM   16  C   UNL     1      -7.588  17.513  66.781  1.00  0.00    -0.226 A  
HETATM   17  S   UNL     1      -8.174  18.025  68.308  1.00  0.00    -0.298 SA 
ENDBRANCH   8   9
ENDBRANCH   7   8
TORSDOF 2
ENDMDL
MODEL       42
REMARK 921   NORMALIZED FREE ENERGY PREDICTED BY IDOCK:   -4.88 KCAL/MOL
REMARK 922        TOTAL FREE ENERGY PREDICTED BY IDOCK:   -5.82 KCAL/MOL
REMARK 923 INTER-LIGAND FREE ENERGY PREDICTED BY IDOCK:   -5.56 KCAL/MOL
REMARK 924 INTRA-LIGAND FREE ENERGY PREDICTED BY IDOCK:   -0.26 KCAL/MOL
REMARK 927      BINDING AFFINITY PREDICTED BY RF-SCORE:    0.00 PKD
ROOT
HETATM    1 CL   UNL     1      -9.165  10.394  68.890  1.00  0.00    -0.168 Cl 
HETATM    2  C   UNL     1     -10.476  10.091  69.974  1.00  0.00    -0.287 A  
HETATM    3  C   UNL     1     -10.212   9.283  71.086  1.00  0.00    -0.387 A  
HETATM    4  C   UNL     1     -11.217   9.007  72.013  1.00  0.00    -0.379 A  
HETATM    5  C   UNL     1     -12.483   9.558  71.845  1.00  0.00    -0.465 A  
HETATM    6  C   UNL     1     -12.751  10.358  70.735  1.00  0.00    -0.460 A  
HETATM    7  C   UNL     1     -11.761  10.614  69.765  1.00  0.00    -0.385 A  
ENDROOT
BRANCH   7   8
HETATM    8  C   UNL     1     -12.146  11.404  68.527  1.00  0.00    -0.098 C  
BRANCH   8   9
HETATM    9  N   UNL     1     -11.596  12.771  68.538  1.00  0.00    -0.299 NA 
HETATM   10  C   UNL     1     -12.229  13.627  69.575  1.00  0.00    -0.264 C  
HETATM   11  C   UNL     1     -11.483  14.972  69.745  1.00  0.00    -0.324 C  
HETATM   12  C   UNL     1     -11.074  15.503  68.408  1.00  0.00    -0.315 A  
HETATM   13  C   UNL     1     -11.169  14.779  67.239  1.00  0.00    -0.351 A  
HETATM   14  C   UNL     1     -10.650  15.521  66.135  1.00  0.00    -0.321 A  
HETATM   15  C   UNL     1     -11.756  13.394  67.206  1.00  0.00    -0.380 C  
HETATM   16  C   UNL     1     -10.172  16.756  66.519  1.00  0.00    -0.316 A  
HETATM   17  S   UNL     1     -10.370  17.032  68.199  1.00  0.00    -0.365 SA 
ENDBRANCH   8   9
ENDBRANCH   7   8
TORSDOF 2
ENDMDL
MODEL       43
REMARK 921   NORMALIZED FREE ENERGY PREDICTED BY IDOCK:   -4.88 KCAL/MOL
REMARK 922        TOTAL FREE ENERGY PREDICTED BY IDOCK:   -5.82 KCAL/MOL
REMARK 923 INTER-LIGAND FREE ENERGY PREDICTED BY IDOCK:   -5.48 KCAL/MOL
REMARK 924 INTRA-LIGAND FREE ENERGY PREDICTED BY IDOCK:   -0.34 KCAL/MOL
REMARK 927      BINDING AFFINITY PREDICTED BY RF-SCORE:    0.00 PKD
ROOT
HETATM    1 CL   UNL     1     -12.752  14.088  65.474  1.00  0.00    -0.554 Cl 
HETATM    2  C   UNL     1     -11.318  14.650  66.258  1.00  0.00    -0.347 A  
HETATM    3  C   UNL     1     -10.406  15.374  65.482  1.00  0.00    -0.412 A  
HETATM    4  C   UNL     1      -9.234  15.873  66.049  1.00  0.00    -0.372 A  
HETATM    5  C   UNL     1      -8.980  15.670  67.402  1.00  0.00    -0.205 A  
HETATM    6  C   UNL     1      -9.883  14.943  68.177  1.00  0.00    -0.218 A  
HETATM    7  C   UNL     1     -11.053  14.396  67.613  1.00  0.00    -0.311 A  
ENDROOT
BRANCH   7   8
HETATM    8  C   UNL     1     -11.940  13.526  68.484  1.00  0.00    -0.344 C  
BRANCH   8   9
HETATM    9  N   UNL     1     -11.338  12.210  68.764  1.00  0.00    -0.264 NA 
HETATM   10  C   UNL     1     -11.405  11.297  67.594  1.00  0.00    -0.282 C  
HETATM   11  C   UNL     1     -10.560  10.019  67.813  1.00  0.00    -0.311 C  
HETATM   12  C   UNL     1     -10.720   9.533  69.218  1.00  0.00    -0.222 A  
HETATM   13  C   UNL     1     -11.355  10.255  70.206  1.00  0.00    -0.398 A  
HETATM   14  C   UNL     1     -11.301   9.568  71.456  1.00  0.00    -0.456 A  
HETATM   15  C   UNL     1     -12.002  11.585  69.929  1.00  0.00    -0.351 C  
HETATM   16  C   UNL     1     -10.616   8.375  71.363  1.00  0.00    -0.234 A  
HETATM   17  S   UNL     1     -10.061   8.071  69.770  1.00  0.00    -0.201 SA 
ENDBRANCH   8   9
ENDBRANCH   7   8
TORSDOF 2
ENDMDL
MODEL       44
REMARK 921   NORMALIZED FREE ENERGY PREDICTED BY IDOCK:   -4.86 KCAL/MOL
REMARK 922        TOTAL FREE ENERGY PREDICTED BY IDOCK:   -5.79 KCAL/MOL
REMARK 923 INTER-LIGAND FREE ENERGY PREDICTED BY IDOCK:   -5.75 KCAL/MOL
REMARK 924 INTRA-LIGAND FREE ENERGY PREDICTED BY IDOCK:   -0.04 KCAL/MOL
REMARK 927      BINDING AFFINITY PREDICTED BY RF-SCORE:    0.00 PKD
ROOT
HETATM    1 CL   UNL     1     -13.492  12.546  72.010  1.00  0.00    -0.564 Cl 
HETATM    2  C   UNL     1     -12.563  13.815  71.293  1.00  0.00    -0.362 A  
HETATM    3  C   UNL     1     -12.684  15.091  71.855  1.00  0.00    -0.407 A  
HETATM    4  C   UNL     1     -11.954  16.162  71.340  1.00  0.00    -0.451 A  
HETATM    5  C   UNL     1     -11.083  15.956  70.275  1.00  0.00    -0.381 A  
HETATM    6  C   UNL     1     -10.966  14.688  69.708  1.00  0.00    -0.232 A  
HETATM    7  C   UNL     1     -11.726  13.602  70.187  1.00  0.00    -0.288 A  
ENDROOT
BRANCH   7   8
HETATM    8  C   UNL     1     -11.632  12.274  69.460  1.00  0.00    -0.298 C  
BRANCH   8   9
HETATM    9  N   UNL     1     -11.340  12.437  68.025  1.00  0.00    -0.265 NA 
HETATM   10  C   UNL     1     -12.401  13.195  67.313  1.00  0.00    -0.008 C  
HETATM   11  C   UNL     1     -11.973  13.573  65.875  1.00  0.00    -0.444 C  
HETATM   12  C   UNL     1     -11.242  12.432  65.242  1.00  0.00    -0.318 A  
HETATM   13  C   UNL     1     -10.837  11.310  65.933  1.00  0.00    -0.264 A  
HETATM   14  C   UNL     1     -10.113  10.421  65.082  1.00  0.00    -0.379 A  
HETATM   15  C   UNL     1     -11.155  11.113  67.389  1.00  0.00    -0.307 C  
HETATM   16  C   UNL     1      -9.987  10.916  63.801  1.00  0.00    -0.351 A  
HETATM   17  S   UNL     1     -10.760  12.434  63.616  1.00  0.00    -0.432 SA 
ENDBRANCH   8   9
ENDBRANCH   7   8
TORSDOF 2
ENDMDL
MODEL       45
REMARK 921   NORMALIZED FREE ENERGY PREDICTED BY IDOCK:   -4.85 KCAL/MOL
REMARK 922        TOTAL FREE ENERGY PREDICTED BY IDOCK:   -5.79 KCAL/MOL
REMARK 923 INTER-LIGAND FREE ENERGY PREDICTED BY IDOCK:   -5.83 KCAL/MOL
REMARK 924 INTRA-LIGAND FREE ENERGY PREDICTED BY IDOCK:    0.04 KCAL/MOL
REMARK 927      BINDING AFFINITY PREDICTED BY RF-SCORE:    0.00 PKD
ROOT
HETATM    1 CL   UNL     1     -12.521  12.040  63.331  1.00  0.00    -0.688 Cl 
HETATM    2  C   UNL     1     -11.158  11.579  64.288  1.00  0.00    -0.315 A  
HETATM    3  C   UNL     1     -10.215  10.735  63.691  1.00  0.00    -0.327 A  
HETATM    4  C   UNL     1      -9.081  10.332  64.397  1.00  0.00    -0.275 A  
HETATM    5  C   UNL     1      -8.875  10.791  65.694  1.00  0.00    -0.202 A  
HETATM    6  C   UNL     1      -9.817  11.626  66.294  1.00  0.00    -0.245 A  
HETATM    7  C   UNL     1     -10.989  12.010  65.613  1.00  0.00    -0.343 A  
ENDROOT
BRANCH   7   8
HETATM    8  C   UNL     1     -12.024  12.832  66.357  1.00  0.00    -0.375 C  
BRANCH   8   9
HETATM    9  N   UNL     1     -11.667  14.261  66.425  1.00  0.00    -0.377 NA 
HETATM   10  C   UNL     1     -10.852  14.696  65.262  1.00  0.00    -0.377 C  
HETATM   11  C   UNL     1     -10.693  16.234  65.214  1.00  0.00    -0.349 C  
HETATM   12  C   UNL     1     -10.470  16.769  66.593  1.00  0.00    -0.258 A  
HETATM   13  C   UNL     1     -10.608  16.010  67.736  1.00  0.00    -0.309 A  
HETATM   14  C   UNL     1     -10.391  16.802  68.904  1.00  0.00    -0.317 A  
HETATM   15  C   UNL     1     -10.940  14.544  67.683  1.00  0.00    -0.288 C  
HETATM   16  C   UNL     1     -10.120  18.119  68.596  1.00  0.00    -0.392 A  
HETATM   17  S   UNL     1     -10.102  18.395  66.905  1.00  0.00    -0.389 SA 
ENDBRANCH   8   9
ENDBRANCH   7   8
TORSDOF 2
ENDMDL
MODEL       46
REMARK 921   NORMALIZED FREE ENERGY PREDICTED BY IDOCK:   -4.82 KCAL/MOL
REMARK 922        TOTAL FREE ENERGY PREDICTED BY IDOCK:   -5.75 KCAL/MOL
REMARK 923 INTER-LIGAND FREE ENERGY PREDICTED BY IDOCK:   -5.39 KCAL/MOL
REMARK 924 INTRA-LIGAND FREE ENERGY PREDICTED BY IDOCK:   -0.36 KCAL/MOL
REMARK 927      BINDING AFFINITY PREDICTED BY RF-SCORE:    0.00 PKD
ROOT
HETATM    1 CL   UNL     1     -13.260  12.021  71.706  1.00  0.00    -0.510 Cl 
HETATM    2  C   UNL     1     -12.786  13.676  71.855  1.00  0.00    -0.287 A  
HETATM    3  C   UNL     1     -12.883  14.257  73.124  1.00  0.00    -0.402 A  
HETATM    4  C   UNL     1     -12.504  15.585  73.324  1.00  0.00    -0.600 A  
HETATM    5  C   UNL     1     -12.005  16.330  72.261  1.00  0.00    -0.605 A  
HETATM    6  C   UNL     1     -11.915  15.756  70.993  1.00  0.00    -0.462 A  
HETATM    7  C   UNL     1     -12.331  14.430  70.761  1.00  0.00    -0.417 A  
ENDROOT
BRANCH   7   8
HETATM    8  C   UNL     1     -12.307  13.899  69.340  1.00  0.00    -0.197 C  
BRANCH   8   9
HETATM    9  N   UNL     1     -11.203  12.950  69.112  1.00  0.00    -0.254 NA 
HETATM   10  C   UNL     1     -10.102  13.543  68.311  1.00  0.00    -0.247 C  
HETATM   11  C   UNL     1      -8.851  12.632  68.287  1.00  0.00    -0.172 C  
HETATM   12  C   UNL     1      -9.263  11.201  68.146  1.00  0.00    -0.166 A  
HETATM   13  C   UNL     1     -10.569  10.771  68.244  1.00  0.00    -0.233 A  
HETATM   14  C   UNL     1     -10.649   9.350  68.127  1.00  0.00    -0.261 A  
HETATM   15  C   UNL     1     -11.710  11.730  68.444  1.00  0.00    -0.325 C  
HETATM   16  C   UNL     1      -9.407   8.772  67.966  1.00  0.00    -0.142 A  
HETATM   17  S   UNL     1      -8.152   9.938  67.931  1.00  0.00    -0.109 SA 
ENDBRANCH   8   9
ENDBRANCH   7   8
TORSDOF 2
ENDMDL
MODEL       47
REMARK 921   NORMALIZED FREE ENERGY PREDICTED BY IDOCK:   -4.81 KCAL/MOL
REMARK 922        TOTAL FREE ENERGY PREDICTED BY IDOCK:   -5.74 KCAL/MOL
REMARK 923 INTER-LIGAND FREE ENERGY PREDICTED BY IDOCK:   -5.50 KCAL/MOL
REMARK 924 INTRA-LIGAND FREE ENERGY PREDICTED BY IDOCK:   -0.24 KCAL/MOL
REMARK 927      BINDING AFFINITY PREDICTED BY RF-SCORE:    0.00 PKD
ROOT
HETATM    1 CL   UNL     1     -12.553  12.160  63.800  1.00  0.00    -0.613 Cl 
HETATM    2  C   UNL     1     -11.471  13.165  64.697  1.00  0.00    -0.333 A  
HETATM    3  C   UNL     1     -11.590  14.549  64.522  1.00  0.00    -0.385 A  
HETATM    4  C   UNL     1     -10.761  15.423  65.224  1.00  0.00    -0.439 A  
HETATM    5  C   UNL     1      -9.826  14.919  66.122  1.00  0.00    -0.332 A  
HETATM    6  C   UNL     1      -9.699  13.541  66.293  1.00  0.00    -0.287 A  
HETATM    7  C   UNL     1     -10.499  12.640  65.562  1.00  0.00    -0.304 A  
ENDROOT
BRANCH   7   8
HETATM    8  C   UNL     1     -10.240  11.152  65.715  1.00  0.00    -0.257 C  
BRANCH   8   9
HETATM    9  N   UNL     1     -10.301  10.711  67.120  1.00  0.00    -0.216 NA 
HETATM   10  C   UNL     1     -10.092   9.248  67.263  1.00  0.00    -0.231 C  
HETATM   11  C   UNL     1      -9.912   8.834  68.743  1.00  0.00    -0.197 C  
HETATM   12  C   UNL     1     -10.865   9.595  69.608  1.00  0.00    -0.244 A  
HETATM   13  C   UNL     1     -11.625  10.654  69.156  1.00  0.00    -0.342 A  
HETATM   14  C   UNL     1     -12.394  11.220  70.217  1.00  0.00    -0.389 A  
HETATM   15  C   UNL     1     -11.598  11.096  67.718  1.00  0.00    -0.223 C  
HETATM   16  C   UNL     1     -12.169  10.582  71.419  1.00  0.00    -0.327 A  
HETATM   17  S   UNL     1     -11.055   9.289  71.265  1.00  0.00    -0.384 SA 
ENDBRANCH   8   9
ENDBRANCH   7   8
TORSDOF 2
ENDMDL
MODEL       48
REMARK 921   NORMALIZED FREE ENERGY PREDICTED BY IDOCK:   -4.81 KCAL/MOL
REMARK 922        TOTAL FREE ENERGY PREDICTED BY IDOCK:   -5.74 KCAL/MOL
REMARK 923 INTER-LIGAND FREE ENERGY PREDICTED BY IDOCK:   -5.42 KCAL/MOL
REMARK 924 INTRA-LIGAND FREE ENERGY PREDICTED BY IDOCK:   -0.32 KCAL/MOL
REMARK 927      BINDING AFFINITY PREDICTED BY RF-SCORE:    0.00 PKD
ROOT
HETATM    1 CL   UNL     1     -10.988  11.750  66.127  1.00  0.00    -0.343 Cl 
HETATM    2  C   UNL     1     -11.464  12.125  67.745  1.00  0.00    -0.332 A  
HETATM    3  C   UNL     1     -11.650  11.050  68.622  1.00  0.00    -0.385 A  
HETATM    4  C   UNL     1     -12.019  11.275  69.947  1.00  0.00    -0.440 A  
HETATM    5  C   UNL     1     -12.181  12.578  70.409  1.00  0.00    -0.368 A  
HETATM    6  C   UNL     1     -12.004  13.651  69.536  1.00  0.00    -0.397 A  
HETATM    7  C   UNL     1     -11.671  13.443  68.183  1.00  0.00    -0.397 A  
ENDROOT
BRANCH   7   8
HETATM    8  C   UNL     1     -11.597  14.645  67.260  1.00  0.00    -0.387 C  
BRANCH   8   9
HETATM    9  N   UNL     1     -10.553  15.604  67.667  1.00  0.00    -0.288 NA 
HETATM   10  C   UNL     1     -11.119  16.909  68.093  1.00  0.00    -0.205 C  
HETATM   11  C   UNL     1     -10.049  17.815  68.747  1.00  0.00    -0.381 C  
HETATM   12  C   UNL     1      -8.759  17.707  67.997  1.00  0.00    -0.253 A  
HETATM   13  C   UNL     1      -8.527  16.771  67.011  1.00  0.00    -0.225 A  
HETATM   14  C   UNL     1      -7.191  16.870  66.518  1.00  0.00    -0.297 A  
HETATM   15  C   UNL     1      -9.591  15.808  66.562  1.00  0.00    -0.265 C  
HETATM   16  C   UNL     1      -6.471  17.855  67.162  1.00  0.00    -0.165 A  
HETATM   17  S   UNL     1      -7.409  18.675  68.338  1.00  0.00    -0.296 SA 
ENDBRANCH   8   9
ENDBRANCH   7   8
TORSDOF 2
ENDMDL
MODEL       49
REMARK 921   NORMALIZED FREE ENERGY PREDICTED BY IDOCK:   -4.79 KCAL/MOL
REMARK 922        TOTAL FREE ENERGY PREDICTED BY IDOCK:   -5.72 KCAL/MOL
REMARK 923 INTER-LIGAND FREE ENERGY PREDICTED BY IDOCK:   -5.34 KCAL/MOL
REMARK 924 INTRA-LIGAND FREE ENERGY PREDICTED BY IDOCK:   -0.38 KCAL/MOL
REMARK 927      BINDING AFFINITY PREDICTED BY RF-SCORE:    0.00 PKD
ROOT
HETATM    1 CL   UNL     1     -12.700  15.615  70.689  1.00  0.00    -0.484 Cl 
HETATM    2  C   UNL     1     -12.326  14.054  70.047  1.00  0.00    -0.337 A  
HETATM    3  C   UNL     1     -12.414  12.966  70.922  1.00  0.00    -0.383 A  
HETATM    4  C   UNL     1     -12.142  11.674  70.473  1.00  0.00    -0.458 A  
HETATM    5  C   UNL     1     -11.804  11.462  69.140  1.00  0.00    -0.413 A  
HETATM    6  C   UNL     1     -11.709  12.546  68.267  1.00  0.00    -0.390 A  
HETATM    7  C   UNL     1     -11.939  13.863  68.712  1.00  0.00    -0.393 A  
ENDROOT
BRANCH   7   8
HETATM    8  C   UNL     1     -11.715  15.006  67.740  1.00  0.00    -0.274 C  
BRANCH   8   9
HETATM    9  N   UNL     1     -10.522  15.805  68.074  1.00  0.00    -0.263 NA 
HETATM   10  C   UNL     1     -10.772  17.265  67.975  1.00  0.00    -0.367 C  
HETATM   11  C   UNL     1      -9.602  18.091  68.561  1.00  0.00    -0.342 C  
HETATM   12  C   UNL     1      -8.296  17.475  68.174  1.00  0.00    -0.249 A  
HETATM   13  C   UNL     1      -8.185  16.239  67.572  1.00  0.00    -0.165 A  
HETATM   14  C   UNL     1      -6.815  15.887  67.376  1.00  0.00    -0.228 A  
HETATM   15  C   UNL     1      -9.394  15.426  67.195  1.00  0.00    -0.214 C  
HETATM   16  C   UNL     1      -5.958  16.856  67.853  1.00  0.00    -0.131 A  
HETATM   17  S   UNL     1      -6.798  18.196  68.512  1.00  0.00    -0.246 SA 
ENDBRANCH   8   9
ENDBRANCH   7   8
TORSDOF 2
ENDMDL
MODEL       50
REMARK 921   NORMALIZED FREE ENERGY PREDICTED BY IDOCK:   -4.78 KCAL/MOL
REMARK 922        TOTAL FREE ENERGY PREDICTED BY IDOCK:   -5.70 KCAL/MOL
REMARK 923 INTER-LIGAND FREE ENERGY PREDICTED BY IDOCK:   -5.41 KCAL/MOL
REMARK 924 INTRA-LIGAND FREE ENERGY PREDICTED BY IDOCK:   -0.29 KCAL/MOL
REMARK 927      BINDING AFFINITY PREDICTED BY RF-SCORE:    0.00 PKD
ROOT
HETATM    1 CL   UNL     1     -10.202   9.356  71.296  1.00  0.00    -0.378 Cl 
HETATM    2  C   UNL     1     -10.480   8.261  69.987  1.00  0.00    -0.231 A  
HETATM    3  C   UNL     1     -11.017   7.009  70.306  1.00  0.00    -0.304 A  
HETATM    4  C   UNL     1     -11.283   6.078  69.301  1.00  0.00    -0.367 A  
HETATM    5  C   UNL     1     -11.035   6.406  67.972  1.00  0.00    -0.400 A  
HETATM    6  C   UNL     1     -10.493   7.650  67.652  1.00  0.00    -0.313 A  
HETATM    7  C   UNL     1     -10.179   8.588  68.656  1.00  0.00    -0.217 A  
ENDROOT
BRANCH   7   8
HETATM    8  C   UNL     1      -9.493   9.880  68.253  1.00  0.00    -0.139 C  
BRANCH   8   9
HETATM    9  N   UNL     1     -10.165  10.544  67.121  1.00  0.00    -0.212 NA 
HETATM   10  C   UNL     1      -9.327  10.558  65.895  1.00  0.00    -0.181 C  
HETATM   11  C   UNL     1     -10.126  11.030  64.657  1.00  0.00    -0.370 C  
HETATM   12  C   UNL     1     -11.020  12.170  65.028  1.00  0.00    -0.309 A  
HETATM   13  C   UNL     1     -11.239  12.574  66.329  1.00  0.00    -0.359 A  
HETATM   14  C   UNL     1     -12.182  13.645  66.378  1.00  0.00    -0.472 A  
HETATM   15  C   UNL     1     -10.537  11.928  67.492  1.00  0.00    -0.219 C  
HETATM   16  C   UNL     1     -12.645  13.987  65.126  1.00  0.00    -0.428 A  
HETATM   17  S   UNL     1     -11.929  13.039  63.891  1.00  0.00    -0.508 SA 
ENDBRANCH   8   9
ENDBRANCH   7   8
TORSDOF 2
ENDMDL
MODEL       51
REMARK 921   NORMALIZED FREE ENERGY PREDICTED BY IDOCK:   -4.76 KCAL/MOL
REMARK 922        TOTAL FREE ENERGY PREDICTED BY IDOCK:   -5.69 KCAL/MOL
REMARK 923 INTER-LIGAND FREE ENERGY PREDICTED BY IDOCK:   -5.56 KCAL/MOL
REMARK 924 INTRA-LIGAND FREE ENERGY PREDICTED BY IDOCK:   -0.13 KCAL/MOL
REMARK 927      BINDING AFFINITY PREDICTED BY RF-SCORE:    0.00 PKD
ROOT
HETATM    1 CL   UNL     1     -12.364  12.365  64.973  1.00  0.00    -0.493 Cl 
HETATM    2  C   UNL     1     -11.303  13.667  65.377  1.00  0.00    -0.301 A  
HETATM    3  C   UNL     1     -11.544  14.902  64.764  1.00  0.00    -0.410 A  
HETATM    4  C   UNL     1     -10.739  16.003  65.052  1.00  0.00    -0.400 A  
HETATM    5  C   UNL     1      -9.704  15.881  65.974  1.00  0.00    -0.375 A  
HETATM    6  C   UNL     1      -9.457  14.651  66.582  1.00  0.00    -0.297 A  
HETATM    7  C   UNL     1     -10.233  13.516  66.272  1.00  0.00    -0.299 A  
ENDROOT
BRANCH   7   8
HETATM    8  C   UNL     1      -9.846  12.183  66.887  1.00  0.00    -0.203 C  
BRANCH   8   9
HETATM    9  N   UNL     1     -10.717  11.810  68.016  1.00  0.00    -0.200 NA 
HETATM   10  C   UNL     1     -10.919  12.930  68.970  1.00  0.00    -0.197 C  
HETATM   11  C   UNL     1     -12.020  12.611  70.008  1.00  0.00    -0.377 C  
HETATM   12  C   UNL     1     -11.906  11.188  70.456  1.00  0.00    -0.351 A  
HETATM   13  C   UNL     1     -11.074  10.266  69.857  1.00  0.00    -0.362 A  
HETATM   14  C   UNL     1     -11.221   8.980  70.459  1.00  0.00    -0.301 A  
HETATM   15  C   UNL     1     -10.156  10.639  68.725  1.00  0.00    -0.191 C  
HETATM   16  C   UNL     1     -12.164   8.982  71.465  1.00  0.00    -0.335 A  
HETATM   17  S   UNL     1     -12.852  10.534  71.702  1.00  0.00    -0.468 SA 
ENDBRANCH   8   9
ENDBRANCH   7   8
TORSDOF 2
ENDMDL
MODEL       52
REMARK 921   NORMALIZED FREE ENERGY PREDICTED BY IDOCK:   -4.75 KCAL/MOL
REMARK 922        TOTAL FREE ENERGY PREDICTED BY IDOCK:   -5.67 KCAL/MOL
REMARK 923 INTER-LIGAND FREE ENERGY PREDICTED BY IDOCK:   -5.30 KCAL/MOL
REMARK 924 INTRA-LIGAND FREE ENERGY PREDICTED BY IDOCK:   -0.37 KCAL/MOL
REMARK 927      BINDING AFFINITY PREDICTED BY RF-SCORE:    0.00 PKD
ROOT
HETATM    1 CL   UNL     1     -10.544  10.118  66.891  1.00  0.00    -0.289 Cl 
HETATM    2  C   UNL     1      -9.923  10.387  65.301  1.00  0.00    -0.309 A  
HETATM    3  C   UNL     1      -8.796   9.649  64.923  1.00  0.00    -0.234 A  
HETATM    4  C   UNL     1      -8.247   9.800  63.649  1.00  0.00    -0.158 A  
HETATM    5  C   UNL     1      -8.838  10.673  62.741  1.00  0.00    -0.275 A  
HETATM    6  C   UNL     1      -9.957  11.415  63.118  1.00  0.00    -0.402 A  
HETATM    7  C   UNL     1     -10.501  11.307  64.413  1.00  0.00    -0.407 A  
ENDROOT
BRANCH   7   8
HETATM    8  C   UNL     1     -11.652  12.219  64.795  1.00  0.00    -0.337 C  
BRANCH   8   9
HETATM    9  N   UNL     1     -11.255  13.248  65.773  1.00  0.00    -0.292 NA 
HETATM   10  C   UNL     1     -12.230  13.375  66.887  1.00  0.00    -0.289 C  
HETATM   11  C   UNL     1     -11.688  14.271  68.026  1.00  0.00    -0.386 C  
HETATM   12  C   UNL     1     -10.969  15.450  67.453  1.00  0.00    -0.312 A  
HETATM   13  C   UNL     1     -10.663  15.578  66.115  1.00  0.00    -0.315 A  
HETATM   14  C   UNL     1      -9.924  16.776  65.873  1.00  0.00    -0.299 A  
HETATM   15  C   UNL     1     -11.089  14.554  65.099  1.00  0.00    -0.370 C  
HETATM   16  C   UNL     1      -9.689  17.484  67.033  1.00  0.00    -0.284 A  
HETATM   17  S   UNL     1     -10.377  16.723  68.405  1.00  0.00    -0.340 SA 
ENDBRANCH   8   9
ENDBRANCH   7   8
TORSDOF 2
ENDMDL
MODEL       53
REMARK 921   NORMALIZED FREE ENERGY PREDICTED BY IDOCK:   -4.74 KCAL/MOL
REMARK 922        TOTAL FREE ENERGY PREDICTED BY IDOCK:   -5.66 KCAL/MOL
REMARK 923 INTER-LIGAND FREE ENERGY PREDICTED BY IDOCK:   -5.29 KCAL/MOL
REMARK 924 INTRA-LIGAND FREE ENERGY PREDICTED BY IDOCK:   -0.37 KCAL/MOL
REMARK 927      BINDING AFFINITY PREDICTED BY RF-SCORE:    0.00 PKD
ROOT
HETATM    1 CL   UNL     1     -11.372  13.998  64.760  1.00  0.00    -0.350 Cl 
HETATM    2  C   UNL     1     -11.401  14.442  66.430  1.00  0.00    -0.350 A  
HETATM    3  C   UNL     1     -11.957  13.521  67.326  1.00  0.00    -0.408 A  
HETATM    4  C   UNL     1     -12.001  13.802  68.691  1.00  0.00    -0.401 A  
HETATM    5  C   UNL     1     -11.469  14.996  69.169  1.00  0.00    -0.320 A  
HETATM    6  C   UNL     1     -10.922  15.919  68.278  1.00  0.00    -0.329 A  
HETATM    7  C   UNL     1     -10.906  15.671  66.891  1.00  0.00    -0.282 A  
ENDROOT
BRANCH   7   8
HETATM    8  C   UNL     1     -10.394  16.760  65.966  1.00  0.00    -0.335 C  
BRANCH   8   9
HETATM    9  N   UNL     1      -9.512  17.718  66.657  1.00  0.00    -0.283 NA 
HETATM   10  C   UNL     1      -9.858  19.129  66.349  1.00  0.00    -0.381 C  
HETATM   11  C   UNL     1      -9.097  20.120  67.261  1.00  0.00    -0.480 C  
HETATM   12  C   UNL     1      -7.685  19.664  67.448  1.00  0.00    -0.264 A  
HETATM   13  C   UNL     1      -7.222  18.432  67.037  1.00  0.00    -0.218 A  
HETATM   14  C   UNL     1      -5.853  18.253  67.402  1.00  0.00    -0.153 A  
HETATM   15  C   UNL     1      -8.100  17.456  66.302  1.00  0.00    -0.263 C  
HETATM   16  C   UNL     1      -5.351  19.342  68.083  1.00  0.00    -0.185 A  
HETATM   17  S   UNL     1      -6.517  20.586  68.262  1.00  0.00    -0.284 SA 
ENDBRANCH   8   9
ENDBRANCH   7   8
TORSDOF 2
ENDMDL
MODEL       54
REMARK 921   NORMALIZED FREE ENERGY PREDICTED BY IDOCK:   -4.73 KCAL/MOL
REMARK 922        TOTAL FREE ENERGY PREDICTED BY IDOCK:   -5.65 KCAL/MOL
REMARK 923 INTER-LIGAND FREE ENERGY PREDICTED BY IDOCK:   -5.27 KCAL/MOL
REMARK 924 INTRA-LIGAND FREE ENERGY PREDICTED BY IDOCK:   -0.38 KCAL/MOL
REMARK 927      BINDING AFFINITY PREDICTED BY RF-SCORE:    0.00 PKD
ROOT
HETATM    1 CL   UNL     1     -10.276   9.545  67.259  1.00  0.00    -0.275 Cl 
HETATM    2  C   UNL     1     -11.031  10.555  68.440  1.00  0.00    -0.261 A  
HETATM    3  C   UNL     1     -11.204  10.020  69.722  1.00  0.00    -0.307 A  
HETATM    4  C   UNL     1     -11.792  10.782  70.732  1.00  0.00    -0.443 A  
HETATM    5  C   UNL     1     -12.188  12.089  70.471  1.00  0.00    -0.414 A  
HETATM    6  C   UNL     1     -12.024  12.623  69.193  1.00  0.00    -0.293 A  
HETATM    7  C   UNL     1     -11.470  11.856  68.148  1.00  0.00    -0.384 A  
ENDROOT
BRANCH   7   8
HETATM    8  C   UNL     1     -11.416  12.458  66.756  1.00  0.00    -0.362 C  
BRANCH   8   9
HETATM    9  N   UNL     1     -10.739  13.766  66.734  1.00  0.00    -0.276 NA 
HETATM   10  C   UNL     1     -11.090  14.565  65.532  1.00  0.00    -0.339 C  
HETATM   11  C   UNL     1     -10.575  16.020  65.637  1.00  0.00    -0.392 C  
HETATM   12  C   UNL     1      -9.206  16.038  66.239  1.00  0.00    -0.333 A  
HETATM   13  C   UNL     1      -8.608  14.931  66.804  1.00  0.00    -0.256 A  
HETATM   14  C   UNL     1      -7.331  15.263  67.348  1.00  0.00    -0.241 A  
HETATM   15  C   UNL     1      -9.273  13.581  66.805  1.00  0.00    -0.240 C  
HETATM   16  C   UNL     1      -7.030  16.599  67.189  1.00  0.00    -0.191 A  
HETATM   17  S   UNL     1      -8.271  17.447  66.365  1.00  0.00    -0.260 SA 
ENDBRANCH   8   9
ENDBRANCH   7   8
TORSDOF 2
ENDMDL
MODEL       55
REMARK 921   NORMALIZED FREE ENERGY PREDICTED BY IDOCK:   -4.73 KCAL/MOL
REMARK 922        TOTAL FREE ENERGY PREDICTED BY IDOCK:   -5.65 KCAL/MOL
REMARK 923 INTER-LIGAND FREE ENERGY PREDICTED BY IDOCK:   -5.29 KCAL/MOL
REMARK 924 INTRA-LIGAND FREE ENERGY PREDICTED BY IDOCK:   -0.35 KCAL/MOL
REMARK 927      BINDING AFFINITY PREDICTED BY RF-SCORE:    0.00 PKD
ROOT
HETATM    1 CL   UNL     1     -10.890  19.291  67.285  1.00  0.00    -0.586 Cl 
HETATM    2  C   UNL     1      -9.384  18.634  66.748  1.00  0.00    -0.308 A  
HETATM    3  C   UNL     1      -8.448  19.531  66.220  1.00  0.00    -0.370 A  
HETATM    4  C   UNL     1      -7.205  19.077  65.780  1.00  0.00    -0.263 A  
HETATM    5  C   UNL     1      -6.884  17.728  65.888  1.00  0.00    -0.290 A  
HETATM    6  C   UNL     1      -7.817  16.830  66.406  1.00  0.00    -0.353 A  
HETATM    7  C   UNL     1      -9.093  17.263  66.817  1.00  0.00    -0.269 A  
ENDROOT
BRANCH   7   8
HETATM    8  C   UNL     1     -10.100  16.223  67.272  1.00  0.00    -0.264 C  
BRANCH   8   9
HETATM    9  N   UNL     1     -10.060  15.001  66.448  1.00  0.00    -0.265 NA 
HETATM   10  C   UNL     1     -11.103  14.998  65.391  1.00  0.00    -0.374 C  
HETATM   11  C   UNL     1     -10.899  13.840  64.384  1.00  0.00    -0.343 C  
HETATM   12  C   UNL     1     -10.488  12.598  65.109  1.00  0.00    -0.296 A  
HETATM   13  C   UNL     1     -10.141  12.574  66.443  1.00  0.00    -0.255 A  
HETATM   14  C   UNL     1      -9.738  11.263  66.842  1.00  0.00    -0.215 A  
HETATM   15  C   UNL     1     -10.208  13.804  67.305  1.00  0.00    -0.253 C  
HETATM   16  C   UNL     1      -9.778  10.367  65.795  1.00  0.00    -0.228 A  
HETATM   17  S   UNL     1     -10.324  11.094  64.342  1.00  0.00    -0.362 SA 
ENDBRANCH   8   9
ENDBRANCH   7   8
TORSDOF 2
ENDMDL
MODEL       56
REMARK 921   NORMALIZED FREE ENERGY PREDICTED BY IDOCK:   -4.69 KCAL/MOL
REMARK 922        TOTAL FREE ENERGY PREDICTED BY IDOCK:   -5.60 KCAL/MOL
REMARK 923 INTER-LIGAND FREE ENERGY PREDICTED BY IDOCK:   -5.68 KCAL/MOL
REMARK 924 INTRA-LIGAND FREE ENERGY PREDICTED BY IDOCK:    0.08 KCAL/MOL
REMARK 927      BINDING AFFINITY PREDICTED BY RF-SCORE:    0.00 PKD
ROOT
HETATM    1 CL   UNL     1     -11.008  11.567  66.696  1.00  0.00    -0.335 Cl 
HETATM    2  C   UNL     1     -11.588  12.171  68.208  1.00  0.00    -0.325 A  
HETATM    3  C   UNL     1     -11.821  11.236  69.223  1.00  0.00    -0.423 A  
HETATM    4  C   UNL     1     -12.274  11.650  70.475  1.00  0.00    -0.451 A  
HETATM    5  C   UNL     1     -12.474  13.004  70.725  1.00  0.00    -0.384 A  
HETATM    6  C   UNL     1     -12.250  13.938  69.714  1.00  0.00    -0.388 A  
HETATM    7  C   UNL     1     -11.832  13.536  68.430  1.00  0.00    -0.408 A  
ENDROOT
BRANCH   7   8
HETATM    8  C   UNL     1     -11.708  14.588  67.344  1.00  0.00    -0.400 C  
BRANCH   8   9
HETATM    9  N   UNL     1     -10.517  15.439  67.517  1.00  0.00    -0.269 NA 
HETATM   10  C   UNL     1      -9.404  14.724  68.194  1.00  0.00    -0.197 C  
HETATM   11  C   UNL     1      -8.088  15.536  68.150  1.00  0.00    -0.132 C  
HETATM   12  C   UNL     1      -8.371  16.985  68.388  1.00  0.00    -0.241 A  
HETATM   13  C   UNL     1      -9.642  17.517  68.422  1.00  0.00    -0.303 A  
HETATM   14  C   UNL     1      -9.599  18.932  68.608  1.00  0.00    -0.443 A  
HETATM   15  C   UNL     1     -10.869  16.658  68.279  1.00  0.00    -0.356 C  
HETATM   16  C   UNL     1      -8.306  19.406  68.686  1.00  0.00    -0.362 A  
HETATM   17  S   UNL     1      -7.149  18.148  68.561  1.00  0.00    -0.264 SA 
ENDBRANCH   8   9
ENDBRANCH   7   8
TORSDOF 2
ENDMDL
MODEL       57
REMARK 921   NORMALIZED FREE ENERGY PREDICTED BY IDOCK:   -4.69 KCAL/MOL
REMARK 922        TOTAL FREE ENERGY PREDICTED BY IDOCK:   -5.60 KCAL/MOL
REMARK 923 INTER-LIGAND FREE ENERGY PREDICTED BY IDOCK:   -5.66 KCAL/MOL
REMARK 924 INTRA-LIGAND FREE ENERGY PREDICTED BY IDOCK:    0.06 KCAL/MOL
REMARK 927      BINDING AFFINITY PREDICTED BY RF-SCORE:    0.00 PKD
ROOT
HETATM    1 CL   UNL     1     -11.360   6.480  69.216  1.00  0.00    -0.385 Cl 
HETATM    2  C   UNL     1     -10.892   6.870  70.834  1.00  0.00    -0.244 A  
HETATM    3  C   UNL     1      -9.721   6.277  71.320  1.00  0.00    -0.193 A  
HETATM    4  C   UNL     1      -9.271   6.556  72.610  1.00  0.00    -0.141 A  
HETATM    5  C   UNL     1      -9.978   7.447  73.412  1.00  0.00    -0.365 A  
HETATM    6  C   UNL     1     -11.149   8.034  72.933  1.00  0.00    -0.399 A  
HETATM    7  C   UNL     1     -11.642   7.733  71.647  1.00  0.00    -0.304 A  
ENDROOT
BRANCH   7   8
HETATM    8  C   UNL     1     -12.976   8.320  71.226  1.00  0.00    -0.150 C  
BRANCH   8   9
HETATM    9  N   UNL     1     -12.877   9.748  70.874  1.00  0.00    -0.278 NA 
HETATM   10  C   UNL     1     -11.556  10.096  70.289  1.00  0.00    -0.302 C  
HETATM   11  C   UNL     1     -11.547  11.526  69.699  1.00  0.00    -0.403 C  
HETATM   12  C   UNL     1     -12.294  12.457  70.600  1.00  0.00    -0.279 A  
HETATM   13  C   UNL     1     -13.050  12.035  71.673  1.00  0.00    -0.422 A  
HETATM   14  C   UNL     1     -13.693  13.139  72.310  1.00  0.00    -0.647 A  
HETATM   15  C   UNL     1     -13.136  10.586  72.066  1.00  0.00    -0.406 C  
HETATM   16  C   UNL     1     -13.413  14.335  71.683  1.00  0.00    -0.376 A  
HETATM   17  S   UNL     1     -12.358  14.133  70.348  1.00  0.00    -0.368 SA 
ENDBRANCH   8   9
ENDBRANCH   7   8
TORSDOF 2
ENDMDL
MODEL       58
REMARK 921   NORMALIZED FREE ENERGY PREDICTED BY IDOCK:   -4.68 KCAL/MOL
REMARK 922        TOTAL FREE ENERGY PREDICTED BY IDOCK:   -5.59 KCAL/MOL
REMARK 923 INTER-LIGAND FREE ENERGY PREDICTED BY IDOCK:   -5.21 KCAL/MOL
REMARK 924 INTRA-LIGAND FREE ENERGY PREDICTED BY IDOCK:   -0.39 KCAL/MOL
REMARK 927      BINDING AFFINITY PREDICTED BY RF-SCORE:    0.00 PKD
ROOT
HETATM    1 CL   UNL     1     -12.144  15.517  69.980  1.00  0.00    -0.378 Cl 
HETATM    2  C   UNL     1     -11.159  16.056  68.666  1.00  0.00    -0.349 A  
HETATM    3  C   UNL     1     -10.387  17.205  68.876  1.00  0.00    -0.348 A  
HETATM    4  C   UNL     1      -9.556  17.692  67.867  1.00  0.00    -0.282 A  
HETATM    5  C   UNL     1      -9.475  17.018  66.653  1.00  0.00    -0.279 A  
HETATM    6  C   UNL     1     -10.248  15.877  66.438  1.00  0.00    -0.311 A  
HETATM    7  C   UNL     1     -11.125  15.394  67.430  1.00  0.00    -0.311 A  
ENDROOT
BRANCH   7   8
HETATM    8  C   UNL     1     -12.016  14.212  67.096  1.00  0.00    -0.426 C  
BRANCH   8   9
HETATM    9  N   UNL     1     -11.334  12.920  67.287  1.00  0.00    -0.292 NA 
HETATM   10  C   UNL     1     -11.442  12.040  66.095  1.00  0.00    -0.339 C  
HETATM   11  C   UNL     1     -10.524  10.800  66.209  1.00  0.00    -0.287 C  
HETATM   12  C   UNL     1     -10.556  10.265  67.605  1.00  0.00    -0.263 A  
HETATM   13  C   UNL     1     -11.151  10.924  68.660  1.00  0.00    -0.305 A  
HETATM   14  C   UNL     1     -10.972  10.202  69.879  1.00  0.00    -0.344 A  
HETATM   15  C   UNL     1     -11.879  12.227  68.475  1.00  0.00    -0.307 C  
HETATM   16  C   UNL     1     -10.239   9.049  69.696  1.00  0.00    -0.206 A  
HETATM   17  S   UNL     1      -9.789   8.822  68.058  1.00  0.00    -0.177 SA 
ENDBRANCH   8   9
ENDBRANCH   7   8
TORSDOF 2
ENDMDL
MODEL       59
REMARK 921   NORMALIZED FREE ENERGY PREDICTED BY IDOCK:   -4.66 KCAL/MOL
REMARK 922        TOTAL FREE ENERGY PREDICTED BY IDOCK:   -5.57 KCAL/MOL
REMARK 923 INTER-LIGAND FREE ENERGY PREDICTED BY IDOCK:   -5.72 KCAL/MOL
REMARK 924 INTRA-LIGAND FREE ENERGY PREDICTED BY IDOCK:    0.14 KCAL/MOL
REMARK 927      BINDING AFFINITY PREDICTED BY RF-SCORE:    0.00 PKD
ROOT
HETATM    1 CL   UNL     1      -7.120  16.751  66.933  1.00  0.00    -0.235 Cl 
HETATM    2  C   UNL     1      -8.313  17.997  66.834  1.00  0.00    -0.247 A  
HETATM    3  C   UNL     1      -7.932  19.280  67.242  1.00  0.00    -0.285 A  
HETATM    4  C   UNL     1      -8.837  20.340  67.177  1.00  0.00    -0.446 A  
HETATM    5  C   UNL     1     -10.119  20.125  66.681  1.00  0.00    -0.584 A  
HETATM    6  C   UNL     1     -10.504  18.846  66.281  1.00  0.00    -0.510 A  
HETATM    7  C   UNL     1      -9.618  17.754  66.378  1.00  0.00    -0.293 A  
ENDROOT
BRANCH   7   8
HETATM    8  C   UNL     1     -10.132  16.370  66.027  1.00  0.00    -0.353 C  
BRANCH   8   9
HETATM    9  N   UNL     1     -10.809  15.716  67.161  1.00  0.00    -0.312 NA 
HETATM   10  C   UNL     1     -10.761  16.536  68.399  1.00  0.00    -0.339 C  
HETATM   11  C   UNL     1     -11.677  15.962  69.505  1.00  0.00    -0.331 C  
HETATM   12  C   UNL     1     -11.580  14.470  69.529  1.00  0.00    -0.307 A  
HETATM   13  C   UNL     1     -10.933  13.734  68.559  1.00  0.00    -0.283 A  
HETATM   14  C   UNL     1     -11.056  12.334  68.815  1.00  0.00    -0.295 A  
HETATM   15  C   UNL     1     -10.209  14.387  67.414  1.00  0.00    -0.247 C  
HETATM   16  C   UNL     1     -11.801  12.077  69.946  1.00  0.00    -0.331 A  
HETATM   17  S   UNL     1     -12.330  13.515  70.713  1.00  0.00    -0.319 SA 
ENDBRANCH   8   9
ENDBRANCH   7   8
TORSDOF 2
ENDMDL
MODEL       60
REMARK 921   NORMALIZED FREE ENERGY PREDICTED BY IDOCK:   -4.64 KCAL/MOL
REMARK 922        TOTAL FREE ENERGY PREDICTED BY IDOCK:   -5.55 KCAL/MOL
REMARK 923 INTER-LIGAND FREE ENERGY PREDICTED BY IDOCK:   -5.25 KCAL/MOL
REMARK 924 INTRA-LIGAND FREE ENERGY PREDICTED BY IDOCK:   -0.30 KCAL/MOL
REMARK 927      BINDING AFFINITY PREDICTED BY RF-SCORE:    0.00 PKD
ROOT
HETATM    1 CL   UNL     1     -12.168  14.024  67.211  1.00  0.00    -0.400 Cl 
HETATM    2  C   UNL     1     -11.682  12.922  65.971  1.00  0.00    -0.404 A  
HETATM    3  C   UNL     1     -12.343  13.014  64.741  1.00  0.00    -0.490 A  
HETATM    4  C   UNL     1     -11.994  12.168  63.688  1.00  0.00    -0.628 A  
HETATM    5  C   UNL     1     -10.968  11.244  63.853  1.00  0.00    -0.382 A  
HETATM    6  C   UNL     1     -10.313  11.145  65.080  1.00  0.00    -0.354 A  
HETATM    7  C   UNL     1     -10.678  11.962  66.169  1.00  0.00    -0.318 A  
ENDROOT
BRANCH   7   8
HETATM    8  C   UNL     1     -10.000  11.733  67.507  1.00  0.00    -0.192 C  
BRANCH   8   9
HETATM    9  N   UNL     1     -10.602  10.619  68.260  1.00  0.00    -0.180 NA 
HETATM   10  C   UNL     1     -10.810  10.951  69.693  1.00  0.00    -0.216 C  
HETATM   11  C   UNL     1     -11.661   9.880  70.415  1.00  0.00    -0.356 C  
HETATM   12  C   UNL     1     -11.257   8.513  69.961  1.00  0.00    -0.086 A  
HETATM   13  C   UNL     1     -10.406   8.284  68.900  1.00  0.00    -0.230 A  
HETATM   14  C   UNL     1     -10.251   6.884  68.663  1.00  0.00    -0.181 A  
HETATM   15  C   UNL     1      -9.758   9.409  68.142  1.00  0.00    -0.145 C  
HETATM   16  C   UNL     1     -11.002   6.124  69.535  1.00  0.00    -0.393 A  
HETATM   17  S   UNL     1     -11.870   7.091  70.653  1.00  0.00    -0.300 SA 
ENDBRANCH   8   9
ENDBRANCH   7   8
TORSDOF 2
ENDMDL
MODEL       61
REMARK 921   NORMALIZED FREE ENERGY PREDICTED BY IDOCK:   -4.64 KCAL/MOL
REMARK 922        TOTAL FREE ENERGY PREDICTED BY IDOCK:   -5.55 KCAL/MOL
REMARK 923 INTER-LIGAND FREE ENERGY PREDICTED BY IDOCK:   -5.20 KCAL/MOL
REMARK 924 INTRA-LIGAND FREE ENERGY PREDICTED BY IDOCK:   -0.34 KCAL/MOL
REMARK 927      BINDING AFFINITY PREDICTED BY RF-SCORE:    0.00 PKD
ROOT
HETATM    1 CL   UNL     1      -8.087   9.385  69.072  1.00  0.00    -0.103 Cl 
HETATM    2  C   UNL     1      -9.229   8.188  68.574  1.00  0.00    -0.136 A  
HETATM    3  C   UNL     1      -9.843   7.433  69.580  1.00  0.00    -0.175 A  
HETATM    4  C   UNL     1     -10.787   6.459  69.256  1.00  0.00    -0.387 A  
HETATM    5  C   UNL     1     -11.139   6.253  67.926  1.00  0.00    -0.360 A  
HETATM    6  C   UNL     1     -10.524   6.999  66.921  1.00  0.00    -0.356 A  
HETATM    7  C   UNL     1      -9.538   7.958  67.225  1.00  0.00    -0.205 A  
ENDROOT
BRANCH   7   8
HETATM    8  C   UNL     1      -8.831   8.660  66.080  1.00  0.00    -0.178 C  
BRANCH   8   9
HETATM    9  N   UNL     1      -9.710   9.609  65.373  1.00  0.00    -0.310 NA 
HETATM   10  C   UNL     1      -9.107  10.105  64.109  1.00  0.00    -0.251 C  
HETATM   11  C   UNL     1     -10.126  10.900  63.258  1.00  0.00    -0.368 C  
HETATM   12  C   UNL     1     -10.963  11.769  64.141  1.00  0.00    -0.374 A  
HETATM   13  C   UNL     1     -10.953  11.691  65.518  1.00  0.00    -0.327 A  
HETATM   14  C   UNL     1     -11.895  12.600  66.088  1.00  0.00    -0.477 A  
HETATM   15  C   UNL     1     -10.039  10.751  66.255  1.00  0.00    -0.232 C  
HETATM   16  C   UNL     1     -12.584  13.305  65.124  1.00  0.00    -0.453 A  
HETATM   17  S   UNL     1     -12.081  12.893  63.538  1.00  0.00    -0.511 SA 
ENDBRANCH   8   9
ENDBRANCH   7   8
TORSDOF 2
ENDMDL
MODEL       62
REMARK 921   NORMALIZED FREE ENERGY PREDICTED BY IDOCK:   -4.63 KCAL/MOL
REMARK 922        TOTAL FREE ENERGY PREDICTED BY IDOCK:   -5.54 KCAL/MOL
REMARK 923 INTER-LIGAND FREE ENERGY PREDICTED BY IDOCK:   -5.27 KCAL/MOL
REMARK 924 INTRA-LIGAND FREE ENERGY PREDICTED BY IDOCK:   -0.26 KCAL/MOL
REMARK 927      BINDING AFFINITY PREDICTED BY RF-SCORE:    0.00 PKD
ROOT
HETATM    1 CL   UNL     1     -10.443  11.146  63.427  1.00  0.00    -0.416 Cl 
HETATM    2  C   UNL     1     -11.142  12.040  64.730  1.00  0.00    -0.317 A  
HETATM    3  C   UNL     1     -12.084  13.021  64.397  1.00  0.00    -0.473 A  
HETATM    4  C   UNL     1     -12.702  13.773  65.396  1.00  0.00    -0.513 A  
HETATM    5  C   UNL     1     -12.400  13.531  66.732  1.00  0.00    -0.326 A  
HETATM    6  C   UNL     1     -11.457  12.559  67.066  1.00  0.00    -0.419 A  
HETATM    7  C   UNL     1     -10.791  11.818  66.070  1.00  0.00    -0.343 A  
ENDROOT
BRANCH   7   8
HETATM    8  C   UNL     1      -9.700  10.852  66.493  1.00  0.00    -0.198 C  
BRANCH   8   9
HETATM    9  N   UNL     1     -10.118   9.984  67.609  1.00  0.00    -0.179 NA 
HETATM   10  C   UNL     1      -9.423  10.321  68.878  1.00  0.00    -0.188 C  
HETATM   11  C   UNL     1     -10.041   9.578  70.087  1.00  0.00    -0.293 C  
HETATM   12  C   UNL     1     -10.378   8.172  69.707  1.00  0.00    -0.216 A  
HETATM   13  C   UNL     1     -10.335   7.702  68.411  1.00  0.00    -0.228 A  
HETATM   14  C   UNL     1     -10.764   6.341  68.347  1.00  0.00    -0.356 A  
HETATM   15  C   UNL     1      -9.879   8.564  67.266  1.00  0.00    -0.199 C  
HETATM   16  C   UNL     1     -11.128   5.853  69.584  1.00  0.00    -0.343 A  
HETATM   17  S   UNL     1     -10.931   7.021  70.823  1.00  0.00    -0.266 SA 
ENDBRANCH   8   9
ENDBRANCH   7   8
TORSDOF 2
ENDMDL
MODEL       63
REMARK 921   NORMALIZED FREE ENERGY PREDICTED BY IDOCK:   -4.62 KCAL/MOL
REMARK 922        TOTAL FREE ENERGY PREDICTED BY IDOCK:   -5.53 KCAL/MOL
REMARK 923 INTER-LIGAND FREE ENERGY PREDICTED BY IDOCK:   -5.58 KCAL/MOL
REMARK 924 INTRA-LIGAND FREE ENERGY PREDICTED BY IDOCK:    0.05 KCAL/MOL
REMARK 927      BINDING AFFINITY PREDICTED BY RF-SCORE:    0.00 PKD
ROOT
HETATM    1 CL   UNL     1      -9.205   9.387  70.480  1.00  0.00    -0.302 Cl 
HETATM    2  C   UNL     1      -9.905   8.340  69.296  1.00  0.00    -0.186 A  
HETATM    3  C   UNL     1     -10.595   7.217  69.766  1.00  0.00    -0.250 A  
HETATM    4  C   UNL     1     -11.199   6.334  68.871  1.00  0.00    -0.387 A  
HETATM    5  C   UNL     1     -11.136   6.584  67.504  1.00  0.00    -0.396 A  
HETATM    6  C   UNL     1     -10.442   7.698  67.032  1.00  0.00    -0.419 A  
HETATM    7  C   UNL     1      -9.789   8.579  67.918  1.00  0.00    -0.208 A  
ENDROOT
BRANCH   7   8
HETATM    8  C   UNL     1      -8.963   9.711  67.338  1.00  0.00    -0.131 C  
BRANCH   8   9
HETATM    9  N   UNL     1      -9.794  10.845  66.896  1.00  0.00    -0.184 NA 
HETATM   10  C   UNL     1     -10.979  11.053  67.767  1.00  0.00    -0.269 C  
HETATM   11  C   UNL     1     -11.703  12.382  67.448  1.00  0.00    -0.417 C  
HETATM   12  C   UNL     1     -11.749  12.598  65.969  1.00  0.00    -0.417 A  
HETATM   13  C   UNL     1     -11.054  11.823  65.064  1.00  0.00    -0.343 A  
HETATM   14  C   UNL     1     -11.244  12.301  63.732  1.00  0.00    -0.510 A  
HETATM   15  C   UNL     1     -10.228  10.643  65.496  1.00  0.00    -0.262 C  
HETATM   16  C   UNL     1     -12.052  13.418  63.691  1.00  0.00    -0.450 A  
HETATM   17  S   UNL     1     -12.601  13.876  65.248  1.00  0.00    -0.446 SA 
ENDBRANCH   8   9
ENDBRANCH   7   8
TORSDOF 2
ENDMDL
MODEL       64
REMARK 921   NORMALIZED FREE ENERGY PREDICTED BY IDOCK:   -4.62 KCAL/MOL
REMARK 922        TOTAL FREE ENERGY PREDICTED BY IDOCK:   -5.53 KCAL/MOL
REMARK 923 INTER-LIGAND FREE ENERGY PREDICTED BY IDOCK:   -5.66 KCAL/MOL
REMARK 924 INTRA-LIGAND FREE ENERGY PREDICTED BY IDOCK:    0.14 KCAL/MOL
REMARK 927      BINDING AFFINITY PREDICTED BY RF-SCORE:    0.00 PKD
ROOT
HETATM    1 CL   UNL     1     -12.368  12.508  65.036  1.00  0.00    -0.540 Cl 
HETATM    2  C   UNL     1     -11.365  13.883  65.334  1.00  0.00    -0.309 A  
HETATM    3  C   UNL     1     -11.665  15.057  64.633  1.00  0.00    -0.383 A  
HETATM    4  C   UNL     1     -10.910  16.212  64.832  1.00  0.00    -0.353 A  
HETATM    5  C   UNL     1      -9.865  16.205  65.752  1.00  0.00    -0.354 A  
HETATM    6  C   UNL     1      -9.559  15.035  66.447  1.00  0.00    -0.314 A  
HETATM    7  C   UNL     1     -10.284  13.847  66.228  1.00  0.00    -0.299 A  
ENDROOT
BRANCH   7   8
HETATM    8  C   UNL     1      -9.834  12.582  66.936  1.00  0.00    -0.227 C  
BRANCH   8   9
HETATM    9  N   UNL     1     -10.524  12.381  68.223  1.00  0.00    -0.219 NA 
HETATM   10  C   UNL     1     -11.302  11.116  68.256  1.00  0.00    -0.297 C  
HETATM   11  C   UNL     1     -11.816  10.793  69.679  1.00  0.00    -0.392 C  
HETATM   12  C   UNL     1     -12.292  12.044  70.348  1.00  0.00    -0.233 A  
HETATM   13  C   UNL     1     -12.089  13.307  69.834  1.00  0.00    -0.377 A  
HETATM   14  C   UNL     1     -12.599  14.306  70.717  1.00  0.00    -0.427 A  
HETATM   15  C   UNL     1     -11.416  13.527  68.507  1.00  0.00    -0.310 C  
HETATM   16  C   UNL     1     -13.143  13.758  71.861  1.00  0.00    -0.388 A  
HETATM   17  S   UNL     1     -13.062  12.047  71.859  1.00  0.00    -0.242 SA 
ENDBRANCH   8   9
ENDBRANCH   7   8
TORSDOF 2
ENDMDL
MODEL       65
REMARK 921   NORMALIZED FREE ENERGY PREDICTED BY IDOCK:   -4.57 KCAL/MOL
REMARK 922        TOTAL FREE ENERGY PREDICTED BY IDOCK:   -5.47 KCAL/MOL
REMARK 923 INTER-LIGAND FREE ENERGY PREDICTED BY IDOCK:   -5.15 KCAL/MOL
REMARK 924 INTRA-LIGAND FREE ENERGY PREDICTED BY IDOCK:   -0.32 KCAL/MOL
REMARK 927      BINDING AFFINITY PREDICTED BY RF-SCORE:    0.00 PKD
ROOT
HETATM    1 CL   UNL     1     -12.057  12.023  70.486  1.00  0.00    -0.451 Cl 
HETATM    2  C   UNL     1     -12.002  10.319  70.768  1.00  0.00    -0.360 A  
HETATM    3  C   UNL     1     -13.052   9.760  71.506  1.00  0.00    -0.506 A  
HETATM    4  C   UNL     1     -13.084   8.389  71.761  1.00  0.00    -0.373 A  
HETATM    5  C   UNL     1     -12.080   7.568  71.260  1.00  0.00    -0.351 A  
HETATM    6  C   UNL     1     -11.028   8.123  70.530  1.00  0.00    -0.248 A  
HETATM    7  C   UNL     1     -10.956   9.511  70.297  1.00  0.00    -0.317 A  
ENDROOT
BRANCH   7   8
HETATM    8  C   UNL     1      -9.733  10.065  69.590  1.00  0.00    -0.229 C  
BRANCH   8   9
HETATM    9  N   UNL     1     -10.046  10.579  68.244  1.00  0.00    -0.156 NA 
HETATM   10  C   UNL     1      -9.640   9.636  67.170  1.00  0.00    -0.166 C  
HETATM   11  C   UNL     1     -10.190  10.066  65.789  1.00  0.00    -0.270 C  
HETATM   12  C   UNL     1     -10.084  11.550  65.635  1.00  0.00    -0.237 A  
HETATM   13  C   UNL     1      -9.747  12.401  66.666  1.00  0.00    -0.229 A  
HETATM   14  C   UNL     1      -9.783  13.762  66.237  1.00  0.00    -0.297 A  
HETATM   15  C   UNL     1      -9.393  11.890  68.036  1.00  0.00    -0.193 C  
HETATM   16  C   UNL     1     -10.163  13.880  64.917  1.00  0.00    -0.351 A  
HETATM   17  S   UNL     1     -10.450  12.356  64.188  1.00  0.00    -0.413 SA 
ENDBRANCH   8   9
ENDBRANCH   7   8
TORSDOF 2
ENDMDL
MODEL       66
REMARK 921   NORMALIZED FREE ENERGY PREDICTED BY IDOCK:   -4.56 KCAL/MOL
REMARK 922        TOTAL FREE ENERGY PREDICTED BY IDOCK:   -5.46 KCAL/MOL
REMARK 923 INTER-LIGAND FREE ENERGY PREDICTED BY IDOCK:   -5.13 KCAL/MOL
REMARK 924 INTRA-LIGAND FREE ENERGY PREDICTED BY IDOCK:   -0.33 KCAL/MOL
REMARK 927      BINDING AFFINITY PREDICTED BY RF-SCORE:    0.00 PKD
ROOT
HETATM    1 CL   UNL     1      -7.737  13.195  68.468  1.00  0.00    -0.132 Cl 
HETATM    2  C   UNL     1      -7.398  14.879  68.654  1.00  0.00    -0.120 A  
HETATM    3  C   UNL     1      -6.109  15.229  69.075  1.00  0.00    -0.099 A  
HETATM    4  C   UNL     1      -5.757  16.569  69.233  1.00  0.00    -0.147 A  
HETATM    5  C   UNL     1      -6.684  17.566  68.947  1.00  0.00    -0.239 A  
HETATM    6  C   UNL     1      -7.971  17.221  68.534  1.00  0.00    -0.261 A  
HETATM    7  C   UNL     1      -8.359  15.872  68.409  1.00  0.00    -0.174 A  
ENDROOT
BRANCH   7   8
HETATM    8  C   UNL     1      -9.802  15.562  68.059  1.00  0.00    -0.212 C  
BRANCH   8   9
HETATM    9  N   UNL     1     -10.570  15.070  69.218  1.00  0.00    -0.240 NA 
HETATM   10  C   UNL     1     -11.713  14.212  68.816  1.00  0.00    -0.345 C  
HETATM   11  C   UNL     1     -12.358  13.505  70.032  1.00  0.00    -0.315 C  
HETATM   12  C   UNL     1     -12.432  14.446  71.192  1.00  0.00    -0.359 A  
HETATM   13  C   UNL     1     -11.814  15.679  71.213  1.00  0.00    -0.473 A  
HETATM   14  C   UNL     1     -12.010  16.326  72.470  1.00  0.00    -0.648 A  
HETATM   15  C   UNL     1     -11.055  16.209  70.027  1.00  0.00    -0.363 C  
HETATM   16  C   UNL     1     -12.744  15.552  73.344  1.00  0.00    -0.532 A  
HETATM   17  S   UNL     1     -13.218  14.061  72.644  1.00  0.00    -0.468 SA 
ENDBRANCH   8   9
ENDBRANCH   7   8
TORSDOF 2
ENDMDL
MODEL       67
REMARK 921   NORMALIZED FREE ENERGY PREDICTED BY IDOCK:   -4.56 KCAL/MOL
REMARK 922        TOTAL FREE ENERGY PREDICTED BY IDOCK:   -5.46 KCAL/MOL
REMARK 923 INTER-LIGAND FREE ENERGY PREDICTED BY IDOCK:   -5.12 KCAL/MOL
REMARK 924 INTRA-LIGAND FREE ENERGY PREDICTED BY IDOCK:   -0.33 KCAL/MOL
REMARK 927      BINDING AFFINITY PREDICTED BY RF-SCORE:    0.00 PKD
ROOT
HETATM    1 CL   UNL     1     -11.439  14.301  70.174  1.00  0.00    -0.287 Cl 
HETATM    2  C   UNL     1     -10.964  13.805  68.588  1.00  0.00    -0.266 A  
HETATM    3  C   UNL     1     -11.881  13.042  67.856  1.00  0.00    -0.389 A  
HETATM    4  C   UNL     1     -11.574  12.618  66.563  1.00  0.00    -0.441 A  
HETATM    5  C   UNL     1     -10.359  12.975  65.988  1.00  0.00    -0.293 A  
HETATM    6  C   UNL     1      -9.440  13.728  66.718  1.00  0.00    -0.281 A  
HETATM    7  C   UNL     1      -9.714  14.131  68.040  1.00  0.00    -0.226 A  
ENDROOT
BRANCH   7   8
HETATM    8  C   UNL     1      -8.631  14.857  68.817  1.00  0.00    -0.177 C  
BRANCH   8   9
HETATM    9  N   UNL     1      -8.419  16.234  68.335  1.00  0.00    -0.187 NA 
HETATM   10  C   UNL     1      -7.207  16.859  68.924  1.00  0.00    -0.231 C  
HETATM   11  C   UNL     1      -6.857  18.199  68.234  1.00  0.00    -0.229 C  
HETATM   12  C   UNL     1      -8.105  18.975  67.957  1.00  0.00    -0.295 A  
HETATM   13  C   UNL     1      -9.374  18.456  68.108  1.00  0.00    -0.331 A  
HETATM   14  C   UNL     1     -10.364  19.406  67.715  1.00  0.00    -0.547 A  
HETATM   15  C   UNL     1      -9.608  17.064  68.629  1.00  0.00    -0.275 C  
HETATM   16  C   UNL     1      -9.804  20.584  67.269  1.00  0.00    -0.441 A  
HETATM   17  S   UNL     1      -8.093  20.557  67.347  1.00  0.00    -0.229 SA 
ENDBRANCH   8   9
ENDBRANCH   7   8
TORSDOF 2
ENDMDL
MODEL       68
REMARK 921   NORMALIZED FREE ENERGY PREDICTED BY IDOCK:   -4.50 KCAL/MOL
REMARK 922        TOTAL FREE ENERGY PREDICTED BY IDOCK:   -5.40 KCAL/MOL
REMARK 923 INTER-LIGAND FREE ENERGY PREDICTED BY IDOCK:   -5.64 KCAL/MOL
REMARK 924 INTRA-LIGAND FREE ENERGY PREDICTED BY IDOCK:    0.24 KCAL/MOL
REMARK 927      BINDING AFFINITY PREDICTED BY RF-SCORE:    0.00 PKD
ROOT
HETATM    1 CL   UNL     1     -12.513  14.061  66.719  1.00  0.00    -0.355 Cl 
HETATM    2  C   UNL     1     -11.565  12.936  65.813  1.00  0.00    -0.368 A  
HETATM    3  C   UNL     1     -12.040  12.575  64.547  1.00  0.00    -0.496 A  
HETATM    4  C   UNL     1     -11.321  11.684  63.751  1.00  0.00    -0.482 A  
HETATM    5  C   UNL     1     -10.112  11.168  64.208  1.00  0.00    -0.382 A  
HETATM    6  C   UNL     1      -9.641  11.519  65.472  1.00  0.00    -0.252 A  
HETATM    7  C   UNL     1     -10.373  12.386  66.308  1.00  0.00    -0.267 A  
ENDROOT
BRANCH   7   8
HETATM    8  C   UNL     1      -9.859  12.645  67.712  1.00  0.00    -0.212 C  
BRANCH   8   9
HETATM    9  N   UNL     1     -10.264  11.595  68.663  1.00  0.00    -0.213 NA 
HETATM   10  C   UNL     1     -10.291  10.247  68.040  1.00  0.00    -0.181 C  
HETATM   11  C   UNL     1     -10.474   9.129  69.094  1.00  0.00    -0.230 C  
HETATM   12  C   UNL     1     -11.470   9.555  70.125  1.00  0.00    -0.162 A  
HETATM   13  C   UNL     1     -11.969  10.837  70.218  1.00  0.00    -0.438 A  
HETATM   14  C   UNL     1     -12.854  10.961  71.332  1.00  0.00    -0.554 A  
HETATM   15  C   UNL     1     -11.591  11.911  69.236  1.00  0.00    -0.315 C  
HETATM   16  C   UNL     1     -12.967   9.781  72.038  1.00  0.00    -0.423 A  
HETATM   17  S   UNL     1     -12.033   8.522  71.348  1.00  0.00    -0.309 SA 
ENDBRANCH   8   9
ENDBRANCH   7   8
TORSDOF 2
ENDMDL
MODEL       69
REMARK 921   NORMALIZED FREE ENERGY PREDICTED BY IDOCK:   -4.45 KCAL/MOL
REMARK 922        TOTAL FREE ENERGY PREDICTED BY IDOCK:   -5.34 KCAL/MOL
REMARK 923 INTER-LIGAND FREE ENERGY PREDICTED BY IDOCK:   -5.40 KCAL/MOL
REMARK 924 INTRA-LIGAND FREE ENERGY PREDICTED BY IDOCK:    0.06 KCAL/MOL
REMARK 927      BINDING AFFINITY PREDICTED BY RF-SCORE:    0.00 PKD
ROOT
HETATM    1 CL   UNL     1      -8.886   8.553  72.542  1.00  0.00    -0.282 Cl 
HETATM    2  C   UNL     1      -9.718   7.571  71.388  1.00  0.00    -0.166 A  
HETATM    3  C   UNL     1      -8.934   6.791  70.530  1.00  0.00    -0.152 A  
HETATM    4  C   UNL     1      -9.535   5.962  69.584  1.00  0.00    -0.172 A  
HETATM    5  C   UNL     1     -10.922   5.892  69.506  1.00  0.00    -0.438 A  
HETATM    6  C   UNL     1     -11.706   6.673  70.355  1.00  0.00    -0.446 A  
HETATM    7  C   UNL     1     -11.118   7.548  71.290  1.00  0.00    -0.267 A  
ENDROOT
BRANCH   7   8
HETATM    8  C   UNL     1     -12.023   8.449  72.109  1.00  0.00    -0.374 C  
BRANCH   8   9
HETATM    9  N   UNL     1     -11.966   9.855  71.669  1.00  0.00    -0.388 NA 
HETATM   10  C   UNL     1     -13.228  10.587  71.949  1.00  0.00    -0.420 C  
HETATM   11  C   UNL     1     -13.076  12.108  71.714  1.00  0.00    -0.457 C  
HETATM   12  C   UNL     1     -12.261  12.358  70.484  1.00  0.00    -0.295 A  
HETATM   13  C   UNL     1     -11.581  11.367  69.807  1.00  0.00    -0.407 A  
HETATM   14  C   UNL     1     -10.846  11.911  68.711  1.00  0.00    -0.270 A  
HETATM   15  C   UNL     1     -11.655   9.924  70.224  1.00  0.00    -0.250 C  
HETATM   16  C   UNL     1     -10.986  13.280  68.620  1.00  0.00    -0.264 A  
HETATM   17  S   UNL     1     -12.019  13.906  69.835  1.00  0.00    -0.354 SA 
ENDBRANCH   8   9
ENDBRANCH   7   8
TORSDOF 2
ENDMDL
MODEL       70
REMARK 921   NORMALIZED FREE ENERGY PREDICTED BY IDOCK:   -4.44 KCAL/MOL
REMARK 922        TOTAL FREE ENERGY PREDICTED BY IDOCK:   -5.33 KCAL/MOL
REMARK 923 INTER-LIGAND FREE ENERGY PREDICTED BY IDOCK:   -4.99 KCAL/MOL
REMARK 924 INTRA-LIGAND FREE ENERGY PREDICTED BY IDOCK:   -0.34 KCAL/MOL
REMARK 927      BINDING AFFINITY PREDICTED BY RF-SCORE:    0.00 PKD
ROOT
HETATM    1 CL   UNL     1     -11.407  16.152  69.558  1.00  0.00    -0.332 Cl 
HETATM    2  C   UNL     1     -10.281  16.564  68.313  1.00  0.00    -0.268 A  
HETATM    3  C   UNL     1      -9.348  17.566  68.602  1.00  0.00    -0.277 A  
HETATM    4  C   UNL     1      -8.398  17.941  67.652  1.00  0.00    -0.234 A  
HETATM    5  C   UNL     1      -8.362  17.299  66.418  1.00  0.00    -0.315 A  
HETATM    6  C   UNL     1      -9.295  16.305  66.125  1.00  0.00    -0.374 A  
HETATM    7  C   UNL     1     -10.289  15.941  67.055  1.00  0.00    -0.297 A  
ENDROOT
BRANCH   7   8
HETATM    8  C   UNL     1     -11.339  14.929  66.636  1.00  0.00    -0.326 C  
BRANCH   8   9
HETATM    9  N   UNL     1     -10.747  13.716  66.043  1.00  0.00    -0.278 NA 
HETATM   10  C   UNL     1     -11.221  13.476  64.656  1.00  0.00    -0.363 C  
HETATM   11  C   UNL     1     -10.416  12.354  63.958  1.00  0.00    -0.443 C  
HETATM   12  C   UNL     1     -10.154  11.238  64.919  1.00  0.00    -0.281 A  
HETATM   13  C   UNL     1     -10.413  11.321  66.271  1.00  0.00    -0.308 A  
HETATM   14  C   UNL     1     -10.008  10.128  66.943  1.00  0.00    -0.259 A  
HETATM   15  C   UNL     1     -11.046  12.539  66.887  1.00  0.00    -0.278 C  
HETATM   16  C   UNL     1      -9.446   9.212  66.078  1.00  0.00    -0.255 A  
HETATM   17  S   UNL     1      -9.431   9.775  64.460  1.00  0.00    -0.107 SA 
ENDBRANCH   8   9
ENDBRANCH   7   8
TORSDOF 2
ENDMDL
MODEL       71
REMARK 921   NORMALIZED FREE ENERGY PREDICTED BY IDOCK:   -4.43 KCAL/MOL
REMARK 922        TOTAL FREE ENERGY PREDICTED BY IDOCK:   -5.31 KCAL/MOL
REMARK 923 INTER-LIGAND FREE ENERGY PREDICTED BY IDOCK:   -5.62 KCAL/MOL
REMARK 924 INTRA-LIGAND FREE ENERGY PREDICTED BY IDOCK:    0.31 KCAL/MOL
REMARK 927      BINDING AFFINITY PREDICTED BY RF-SCORE:    0.00 PKD
ROOT
HETATM    1 CL   UNL     1      -8.266   9.756  70.220  1.00  0.00    -0.208 Cl 
HETATM    2  C   UNL     1      -9.558   9.043  71.120  1.00  0.00    -0.286 A  
HETATM    3  C   UNL     1      -9.213   8.312  72.262  1.00  0.00    -0.297 A  
HETATM    4  C   UNL     1     -10.202   7.720  73.047  1.00  0.00    -0.393 A  
HETATM    5  C   UNL     1     -11.542   7.877  72.707  1.00  0.00    -0.387 A  
HETATM    6  C   UNL     1     -11.888   8.598  71.565  1.00  0.00    -0.366 A  
HETATM    7  C   UNL     1     -10.902   9.169  70.736  1.00  0.00    -0.331 A  
ENDROOT
BRANCH   7   8
HETATM    8  C   UNL     1     -11.338   9.850  69.452  1.00  0.00    -0.095 C  
BRANCH   8   9
HETATM    9  N   UNL     1     -11.850  11.213  69.684  1.00  0.00    -0.318 NA 
HETATM   10  C   UNL     1     -10.916  12.259  69.195  1.00  0.00    -0.162 C  
HETATM   11  C   UNL     1     -11.563  13.664  69.216  1.00  0.00    -0.363 C  
HETATM   12  C   UNL     1     -12.377  13.835  70.459  1.00  0.00    -0.359 A  
HETATM   13  C   UNL     1     -12.665  12.804  71.328  1.00  0.00    -0.364 A  
HETATM   14  C   UNL     1     -13.508  13.252  72.390  1.00  0.00    -0.670 A  
HETATM   15  C   UNL     1     -12.124  11.416  71.124  1.00  0.00    -0.092 C  
HETATM   16  C   UNL     1     -13.833  14.587  72.266  1.00  0.00    -0.486 A  
HETATM   17  S   UNL     1     -13.105  15.304  70.891  1.00  0.00    -0.443 SA 
ENDBRANCH   8   9
ENDBRANCH   7   8
TORSDOF 2
ENDMDL
MODEL       72
REMARK 921   NORMALIZED FREE ENERGY PREDICTED BY IDOCK:   -4.42 KCAL/MOL
REMARK 922        TOTAL FREE ENERGY PREDICTED BY IDOCK:   -5.31 KCAL/MOL
REMARK 923 INTER-LIGAND FREE ENERGY PREDICTED BY IDOCK:   -5.00 KCAL/MOL
REMARK 924 INTRA-LIGAND FREE ENERGY PREDICTED BY IDOCK:   -0.31 KCAL/MOL
REMARK 927      BINDING AFFINITY PREDICTED BY RF-SCORE:    0.00 PKD
ROOT
HETATM    1 CL   UNL     1     -12.112  12.743  65.776  1.00  0.00    -0.504 Cl 
HETATM    2  C   UNL     1     -11.181  13.714  66.860  1.00  0.00    -0.312 A  
HETATM    3  C   UNL     1     -11.451  15.087  66.881  1.00  0.00    -0.266 A  
HETATM    4  C   UNL     1     -10.751  15.932  67.742  1.00  0.00    -0.320 A  
HETATM    5  C   UNL     1      -9.793  15.404  68.601  1.00  0.00    -0.208 A  
HETATM    6  C   UNL     1      -9.515  14.037  68.577  1.00  0.00    -0.191 A  
HETATM    7  C   UNL     1     -10.183  13.174  67.686  1.00  0.00    -0.224 A  
ENDROOT
BRANCH   7   8
HETATM    8  C   UNL     1      -9.761  11.717  67.634  1.00  0.00    -0.180 C  
BRANCH   8   9
HETATM    9  N   UNL     1     -10.114  10.984  68.863  1.00  0.00    -0.203 NA 
HETATM   10  C   UNL     1      -9.669   9.568  68.825  1.00  0.00    -0.159 C  
HETATM   11  C   UNL     1      -9.822   8.879  70.203  1.00  0.00    -0.199 C  
HETATM   12  C   UNL     1     -11.105   9.298  70.846  1.00  0.00    -0.306 A  
HETATM   13  C   UNL     1     -11.905  10.311  70.360  1.00  0.00    -0.396 A  
HETATM   14  C   UNL     1     -13.031  10.525  71.212  1.00  0.00    -0.532 A  
HETATM   15  C   UNL     1     -11.575  11.046  69.090  1.00  0.00    -0.319 C  
HETATM   16  C   UNL     1     -13.021   9.685  72.306  1.00  0.00    -0.356 A  
HETATM   17  S   UNL     1     -11.675   8.624  72.294  1.00  0.00    -0.322 SA 
ENDBRANCH   8   9
ENDBRANCH   7   8
TORSDOF 2
ENDMDL
MODEL       73
REMARK 921   NORMALIZED FREE ENERGY PREDICTED BY IDOCK:   -4.41 KCAL/MOL
REMARK 922        TOTAL FREE ENERGY PREDICTED BY IDOCK:   -5.29 KCAL/MOL
REMARK 923 INTER-LIGAND FREE ENERGY PREDICTED BY IDOCK:   -4.91 KCAL/MOL
REMARK 924 INTRA-LIGAND FREE ENERGY PREDICTED BY IDOCK:   -0.38 KCAL/MOL
REMARK 927      BINDING AFFINITY PREDICTED BY RF-SCORE:    0.00 PKD
ROOT
HETATM    1 CL   UNL     1     -13.357  12.481  72.147  1.00  0.00    -0.612 Cl 
HETATM    2  C   UNL     1     -12.465  13.675  71.273  1.00  0.00    -0.326 A  
HETATM    3  C   UNL     1     -12.277  14.915  71.895  1.00  0.00    -0.424 A  
HETATM    4  C   UNL     1     -11.555  15.923  71.258  1.00  0.00    -0.509 A  
HETATM    5  C   UNL     1     -10.997  15.688  70.005  1.00  0.00    -0.336 A  
HETATM    6  C   UNL     1     -11.189  14.457  69.379  1.00  0.00    -0.317 A  
HETATM    7  C   UNL     1     -11.951  13.440  69.988  1.00  0.00    -0.407 A  
ENDROOT
BRANCH   7   8
HETATM    8  C   UNL     1     -12.211  12.164  69.210  1.00  0.00    -0.051 C  
BRANCH   8   9
HETATM    9  N   UNL     1     -11.006  11.324  69.087  1.00  0.00    -0.227 NA 
HETATM   10  C   UNL     1     -10.946  10.608  67.787  1.00  0.00    -0.306 C  
HETATM   11  C   UNL     1      -9.573   9.931  67.566  1.00  0.00    -0.183 C  
HETATM   12  C   UNL     1      -9.094   9.315  68.842  1.00  0.00    -0.139 A  
HETATM   13  C   UNL     1      -9.701   9.522  70.062  1.00  0.00    -0.271 A  
HETATM   14  C   UNL     1      -8.990   8.856  71.106  1.00  0.00    -0.305 A  
HETATM   15  C   UNL     1     -10.949  10.350  70.200  1.00  0.00    -0.300 C  
HETATM   16  C   UNL     1      -7.875   8.196  70.634  1.00  0.00    -0.091 A  
HETATM   17  S   UNL     1      -7.698   8.356  68.937  1.00  0.00    -0.106 SA 
ENDBRANCH   8   9
ENDBRANCH   7   8
TORSDOF 2
ENDMDL
MODEL       74
REMARK 921   NORMALIZED FREE ENERGY PREDICTED BY IDOCK:   -4.39 KCAL/MOL
REMARK 922        TOTAL FREE ENERGY PREDICTED BY IDOCK:   -5.27 KCAL/MOL
REMARK 923 INTER-LIGAND FREE ENERGY PREDICTED BY IDOCK:   -5.13 KCAL/MOL
REMARK 924 INTRA-LIGAND FREE ENERGY PREDICTED BY IDOCK:   -0.14 KCAL/MOL
REMARK 927      BINDING AFFINITY PREDICTED BY RF-SCORE:    0.00 PKD
ROOT
HETATM    1 CL   UNL     1     -12.303  12.600  64.050  1.00  0.00    -0.515 Cl 
HETATM    2  C   UNL     1     -10.834  11.698  64.177  1.00  0.00    -0.372 A  
HETATM    3  C   UNL     1     -10.081  11.537  63.008  1.00  0.00    -0.330 A  
HETATM    4  C   UNL     1      -8.877  10.834  63.035  1.00  0.00    -0.233 A  
HETATM    5  C   UNL     1      -8.409  10.310  64.236  1.00  0.00    -0.165 A  
HETATM    6  C   UNL     1      -9.160  10.462  65.401  1.00  0.00    -0.221 A  
HETATM    7  C   UNL     1     -10.400  11.133  65.386  1.00  0.00    -0.331 A  
ENDROOT
BRANCH   7   8
HETATM    8  C   UNL     1     -11.218  11.173  66.662  1.00  0.00    -0.114 C  
BRANCH   8   9
HETATM    9  N   UNL     1     -11.179  12.494  67.316  1.00  0.00    -0.278 NA 
HETATM   10  C   UNL     1      -9.803  13.049  67.387  1.00  0.00    -0.215 C  
HETATM   11  C   UNL     1      -9.802  14.527  67.845  1.00  0.00    -0.222 C  
HETATM   12  C   UNL     1     -10.803  14.726  68.938  1.00  0.00    -0.254 A  
HETATM   13  C   UNL     1     -11.725  13.770  69.309  1.00  0.00    -0.376 A  
HETATM   14  C   UNL     1     -12.585  14.262  70.337  1.00  0.00    -0.405 A  
HETATM   15  C   UNL     1     -11.757  12.406  68.675  1.00  0.00    -0.326 C  
HETATM   16  C   UNL     1     -12.291  15.565  70.680  1.00  0.00    -0.416 A  
HETATM   17  S   UNL     1     -10.967  16.185  69.786  1.00  0.00    -0.359 SA 
ENDBRANCH   8   9
ENDBRANCH   7   8
TORSDOF 2
ENDMDL
MODEL       75
REMARK 921   NORMALIZED FREE ENERGY PREDICTED BY IDOCK:   -4.37 KCAL/MOL
REMARK 922        TOTAL FREE ENERGY PREDICTED BY IDOCK:   -5.25 KCAL/MOL
REMARK 923 INTER-LIGAND FREE ENERGY PREDICTED BY IDOCK:   -5.39 KCAL/MOL
REMARK 924 INTRA-LIGAND FREE ENERGY PREDICTED BY IDOCK:    0.13 KCAL/MOL
REMARK 927      BINDING AFFINITY PREDICTED BY RF-SCORE:    0.00 PKD
ROOT
HETATM    1 CL   UNL     1     -12.739  13.358  65.868  1.00  0.00    -0.410 Cl 
HETATM    2  C   UNL     1     -11.500  12.693  66.872  1.00  0.00    -0.343 A  
HETATM    3  C   UNL     1     -11.881  11.702  67.785  1.00  0.00    -0.247 A  
HETATM    4  C   UNL     1     -10.934  11.108  68.618  1.00  0.00    -0.268 A  
HETATM    5  C   UNL     1      -9.598  11.485  68.526  1.00  0.00    -0.180 A  
HETATM    6  C   UNL     1      -9.216  12.477  67.624  1.00  0.00    -0.190 A  
HETATM    7  C   UNL     1     -10.165  13.119  66.802  1.00  0.00    -0.252 A  
ENDROOT
BRANCH   7   8
HETATM    8  C   UNL     1      -9.703  14.262  65.918  1.00  0.00    -0.262 C  
BRANCH   8   9
HETATM    9  N   UNL     1      -9.679  15.552  66.632  1.00  0.00    -0.236 NA 
HETATM   10  C   UNL     1     -10.288  15.462  67.984  1.00  0.00    -0.249 C  
HETATM   11  C   UNL     1     -10.039  16.743  68.814  1.00  0.00    -0.286 C  
HETATM   12  C   UNL     1     -10.187  17.953  67.947  1.00  0.00    -0.371 A  
HETATM   13  C   UNL     1     -10.312  17.896  66.575  1.00  0.00    -0.362 A  
HETATM   14  C   UNL     1     -10.377  19.207  66.014  1.00  0.00    -0.538 A  
HETATM   15  C   UNL     1     -10.372  16.588  65.835  1.00  0.00    -0.350 C  
HETATM   16  C   UNL     1     -10.278  20.189  66.977  1.00  0.00    -0.419 A  
HETATM   17  S   UNL     1     -10.134  19.536  68.554  1.00  0.00    -0.423 SA 
ENDBRANCH   8   9
ENDBRANCH   7   8
TORSDOF 2
ENDMDL
MODEL       76
REMARK 921   NORMALIZED FREE ENERGY PREDICTED BY IDOCK:   -4.34 KCAL/MOL
REMARK 922        TOTAL FREE ENERGY PREDICTED BY IDOCK:   -5.22 KCAL/MOL
REMARK 923 INTER-LIGAND FREE ENERGY PREDICTED BY IDOCK:   -4.83 KCAL/MOL
REMARK 924 INTRA-LIGAND FREE ENERGY PREDICTED BY IDOCK:   -0.39 KCAL/MOL
REMARK 927      BINDING AFFINITY PREDICTED BY RF-SCORE:    0.00 PKD
ROOT
HETATM    1 CL   UNL     1     -10.824  13.840  67.061  1.00  0.00    -0.283 Cl 
HETATM    2  C   UNL     1     -11.249  12.983  65.622  1.00  0.00    -0.283 A  
HETATM    3  C   UNL     1     -12.368  13.437  64.915  1.00  0.00    -0.457 A  
HETATM    4  C   UNL     1     -12.763  12.805  63.736  1.00  0.00    -0.277 A  
HETATM    5  C   UNL     1     -12.026  11.731  63.247  1.00  0.00    -0.354 A  
HETATM    6  C   UNL     1     -10.915  11.271  63.953  1.00  0.00    -0.382 A  
HETATM    7  C   UNL     1     -10.525  11.870  65.167  1.00  0.00    -0.330 A  
ENDROOT
BRANCH   7   8
HETATM    8  C   UNL     1      -9.372  11.257  65.941  1.00  0.00    -0.219 C  
BRANCH   8   9
HETATM    9  N   UNL     1      -9.830  10.355  67.013  1.00  0.00    -0.184 NA 
HETATM   10  C   UNL     1      -9.098  10.574  68.287  1.00  0.00    -0.146 C  
HETATM   11  C   UNL     1      -9.747   9.804  69.463  1.00  0.00    -0.228 C  
HETATM   12  C   UNL     1     -10.178   8.446  69.010  1.00  0.00    -0.207 A  
HETATM   13  C   UNL     1     -10.182   8.049  67.689  1.00  0.00    -0.291 A  
HETATM   14  C   UNL     1     -10.698   6.724  67.556  1.00  0.00    -0.381 A  
HETATM   15  C   UNL     1      -9.688   8.945  66.587  1.00  0.00    -0.237 C  
HETATM   16  C   UNL     1     -11.077   6.190  68.770  1.00  0.00    -0.319 A  
HETATM   17  S   UNL     1     -10.788   7.270  70.069  1.00  0.00    -0.250 SA 
ENDBRANCH   8   9
ENDBRANCH   7   8
TORSDOF 2
ENDMDL
MODEL       77
REMARK 921   NORMALIZED FREE ENERGY PREDICTED BY IDOCK:   -4.34 KCAL/MOL
REMARK 922        TOTAL FREE ENERGY PREDICTED BY IDOCK:   -5.22 KCAL/MOL
REMARK 923 INTER-LIGAND FREE ENERGY PREDICTED BY IDOCK:   -4.87 KCAL/MOL
REMARK 924 INTRA-LIGAND FREE ENERGY PREDICTED BY IDOCK:   -0.34 KCAL/MOL
REMARK 927      BINDING AFFINITY PREDICTED BY RF-SCORE:    0.00 PKD
ROOT
HETATM    1 CL   UNL     1     -11.080  10.903  69.327  1.00  0.00    -0.275 Cl 
HETATM    2  C   UNL     1     -10.771  11.135  67.642  1.00  0.00    -0.230 A  
HETATM    3  C   UNL     1     -10.232  10.053  66.937  1.00  0.00    -0.299 A  
HETATM    4  C   UNL     1      -9.970  10.160  65.571  1.00  0.00    -0.363 A  
HETATM    5  C   UNL     1     -10.268  11.341  64.900  1.00  0.00    -0.341 A  
HETATM    6  C   UNL     1     -10.799  12.424  65.602  1.00  0.00    -0.312 A  
HETATM    7  C   UNL     1     -11.032  12.349  66.989  1.00  0.00    -0.303 A  
ENDROOT
BRANCH   7   8
HETATM    8  C   UNL     1     -11.510  13.595  67.712  1.00  0.00    -0.318 C  
BRANCH   8   9
HETATM    9  N   UNL     1     -10.545  14.705  67.620  1.00  0.00    -0.254 NA 
HETATM   10  C   UNL     1      -9.269  14.406  68.320  1.00  0.00    -0.201 C  
HETATM   11  C   UNL     1      -8.182  15.463  68.012  1.00  0.00    -0.146 C  
HETATM   12  C   UNL     1      -8.786  16.831  67.998  1.00  0.00    -0.212 A  
HETATM   13  C   UNL     1     -10.144  17.064  68.041  1.00  0.00    -0.305 A  
HETATM   14  C   UNL     1     -10.425  18.461  67.954  1.00  0.00    -0.416 A  
HETATM   15  C   UNL     1     -11.140  15.944  68.168  1.00  0.00    -0.338 C  
HETATM   16  C   UNL     1      -9.277  19.215  67.830  1.00  0.00    -0.308 A  
HETATM   17  S   UNL     1      -7.864  18.246  67.844  1.00  0.00    -0.254 SA 
ENDBRANCH   8   9
ENDBRANCH   7   8
TORSDOF 2
ENDMDL
MODEL       78
REMARK 921   NORMALIZED FREE ENERGY PREDICTED BY IDOCK:   -4.33 KCAL/MOL
REMARK 922        TOTAL FREE ENERGY PREDICTED BY IDOCK:   -5.21 KCAL/MOL
REMARK 923 INTER-LIGAND FREE ENERGY PREDICTED BY IDOCK:   -4.87 KCAL/MOL
REMARK 924 INTRA-LIGAND FREE ENERGY PREDICTED BY IDOCK:   -0.33 KCAL/MOL
REMARK 927      BINDING AFFINITY PREDICTED BY RF-SCORE:    0.00 PKD
ROOT
HETATM    1 CL   UNL     1     -11.840  13.167  68.612  1.00  0.00    -0.360 Cl 
HETATM    2  C   UNL     1     -11.187  11.681  68.018  1.00  0.00    -0.263 A  
HETATM    3  C   UNL     1     -10.792  11.648  66.676  1.00  0.00    -0.327 A  
HETATM    4  C   UNL     1     -10.241  10.489  66.130  1.00  0.00    -0.299 A  
HETATM    5  C   UNL     1     -10.062   9.365  66.931  1.00  0.00    -0.314 A  
HETATM    6  C   UNL     1     -10.461   9.393  68.266  1.00  0.00    -0.260 A  
HETATM    7  C   UNL     1     -11.057  10.541  68.825  1.00  0.00    -0.315 A  
ENDROOT
BRANCH   7   8
HETATM    8  C   UNL     1     -11.566  10.472  70.253  1.00  0.00    -0.332 C  
BRANCH   8   9
HETATM    9  N   UNL     1     -11.495   9.109  70.811  1.00  0.00    -0.275 NA 
HETATM   10  C   UNL     1     -12.799   8.651  71.354  1.00  0.00    -0.264 C  
HETATM   11  C   UNL     1     -12.778   7.145  71.709  1.00  0.00    -0.374 C  
HETATM   12  C   UNL     1     -11.474   6.788  72.349  1.00  0.00    -0.264 A  
HETATM   13  C   UNL     1     -10.393   7.642  72.403  1.00  0.00    -0.292 A  
HETATM   14  C   UNL     1      -9.272   7.008  73.019  1.00  0.00    -0.163 A  
HETATM   15  C   UNL     1     -10.460   9.046  71.867  1.00  0.00    -0.303 C  
HETATM   16  C   UNL     1      -9.547   5.706  73.383  1.00  0.00    -0.143 A  
HETATM   17  S   UNL     1     -11.157   5.257  73.007  1.00  0.00    -0.326 SA 
ENDBRANCH   8   9
ENDBRANCH   7   8
TORSDOF 2
ENDMDL
MODEL       79
REMARK 921   NORMALIZED FREE ENERGY PREDICTED BY IDOCK:   -4.33 KCAL/MOL
REMARK 922        TOTAL FREE ENERGY PREDICTED BY IDOCK:   -5.20 KCAL/MOL
REMARK 923 INTER-LIGAND FREE ENERGY PREDICTED BY IDOCK:   -4.88 KCAL/MOL
REMARK 924 INTRA-LIGAND FREE ENERGY PREDICTED BY IDOCK:   -0.32 KCAL/MOL
REMARK 927      BINDING AFFINITY PREDICTED BY RF-SCORE:    0.00 PKD
ROOT
HETATM    1 CL   UNL     1      -9.004  10.937  65.398  1.00  0.00    -0.208 Cl 
HETATM    2  C   UNL     1     -10.473  11.804  65.120  1.00  0.00    -0.283 A  
HETATM    3  C   UNL     1     -11.147  11.550  63.920  1.00  0.00    -0.458 A  
HETATM    4  C   UNL     1     -12.347  12.200  63.633  1.00  0.00    -0.673 A  
HETATM    5  C   UNL     1     -12.891  13.089  64.556  1.00  0.00    -0.225 A  
HETATM    6  C   UNL     1     -12.218  13.349  65.749  1.00  0.00    -0.507 A  
HETATM    7  C   UNL     1     -10.983  12.734  66.039  1.00  0.00    -0.306 A  
ENDROOT
BRANCH   7   8
HETATM    8  C   UNL     1     -10.250  13.139  67.304  1.00  0.00    -0.243 C  
BRANCH   8   9
HETATM    9  N   UNL     1      -9.180  14.119  67.046  1.00  0.00    -0.230 NA 
HETATM   10  C   UNL     1      -8.053  13.993  68.005  1.00  0.00    -0.152 C  
HETATM   11  C   UNL     1      -6.836  14.849  67.580  1.00  0.00    -0.204 C  
HETATM   12  C   UNL     1      -7.298  16.172  67.057  1.00  0.00    -0.231 A  
HETATM   13  C   UNL     1      -8.620  16.470  66.801  1.00  0.00    -0.263 A  
HETATM   14  C   UNL     1      -8.751  17.783  66.255  1.00  0.00    -0.206 A  
HETATM   15  C   UNL     1      -9.727  15.494  67.090  1.00  0.00    -0.222 C  
HETATM   16  C   UNL     1      -7.530  18.406  66.104  1.00  0.00    -0.245 A  
HETATM   17  S   UNL     1      -6.232  17.425  66.643  1.00  0.00    -0.220 SA 
ENDBRANCH   8   9
ENDBRANCH   7   8
TORSDOF 2
ENDMDL
MODEL       80
REMARK 921   NORMALIZED FREE ENERGY PREDICTED BY IDOCK:   -4.31 KCAL/MOL
REMARK 922        TOTAL FREE ENERGY PREDICTED BY IDOCK:   -5.19 KCAL/MOL
REMARK 923 INTER-LIGAND FREE ENERGY PREDICTED BY IDOCK:   -4.85 KCAL/MOL
REMARK 924 INTRA-LIGAND FREE ENERGY PREDICTED BY IDOCK:   -0.34 KCAL/MOL
REMARK 927      BINDING AFFINITY PREDICTED BY RF-SCORE:    0.00 PKD
ROOT
HETATM    1 CL   UNL     1     -12.685  15.710  70.104  1.00  0.00    -0.285 Cl 
HETATM    2  C   UNL     1     -12.594  14.027  70.484  1.00  0.00    -0.329 A  
HETATM    3  C   UNL     1     -13.221  13.603  71.661  1.00  0.00    -0.447 A  
HETATM    4  C   UNL     1     -13.202  12.257  72.026  1.00  0.00    -0.508 A  
HETATM    5  C   UNL     1     -12.576  11.326  71.203  1.00  0.00    -0.501 A  
HETATM    6  C   UNL     1     -11.944  11.746  70.034  1.00  0.00    -0.421 A  
HETATM    7  C   UNL     1     -11.916  13.107  69.669  1.00  0.00    -0.370 A  
ENDROOT
BRANCH   7   8
HETATM    8  C   UNL     1     -11.121  13.513  68.442  1.00  0.00    -0.271 C  
BRANCH   8   9
HETATM    9  N   UNL     1     -10.130  12.495  68.051  1.00  0.00    -0.214 NA 
HETATM   10  C   UNL     1      -8.740  13.021  68.072  1.00  0.00    -0.187 C  
HETATM   11  C   UNL     1      -7.695  11.892  67.903  1.00  0.00    -0.131 C  
HETATM   12  C   UNL     1      -8.164  10.909  66.878  1.00  0.00    -0.135 A  
HETATM   13  C   UNL     1      -9.434  10.916  66.341  1.00  0.00    -0.214 A  
HETATM   14  C   UNL     1      -9.611   9.827  65.435  1.00  0.00    -0.359 A  
HETATM   15  C   UNL     1     -10.447  11.967  66.706  1.00  0.00    -0.221 C  
HETATM   16  C   UNL     1      -8.482   9.040  65.343  1.00  0.00    -0.160 A  
HETATM   17  S   UNL     1      -7.205   9.625  66.324  1.00  0.00    -0.096 SA 
ENDBRANCH   8   9
ENDBRANCH   7   8
TORSDOF 2
ENDMDL
MODEL       81
REMARK 921   NORMALIZED FREE ENERGY PREDICTED BY IDOCK:   -4.31 KCAL/MOL
REMARK 922        TOTAL FREE ENERGY PREDICTED BY IDOCK:   -5.18 KCAL/MOL
REMARK 923 INTER-LIGAND FREE ENERGY PREDICTED BY IDOCK:   -5.35 KCAL/MOL
REMARK 924 INTRA-LIGAND FREE ENERGY PREDICTED BY IDOCK:    0.17 KCAL/MOL
REMARK 927      BINDING AFFINITY PREDICTED BY RF-SCORE:    0.00 PKD
ROOT
HETATM    1 CL   UNL     1     -12.133  12.927  70.562  1.00  0.00    -0.418 Cl 
HETATM    2  C   UNL     1     -11.902  13.099  68.858  1.00  0.00    -0.320 A  
HETATM    3  C   UNL     1     -11.693  11.928  68.120  1.00  0.00    -0.388 A  
HETATM    4  C   UNL     1     -11.514  11.986  66.738  1.00  0.00    -0.410 A  
HETATM    5  C   UNL     1     -11.568  13.213  66.085  1.00  0.00    -0.396 A  
HETATM    6  C   UNL     1     -11.769  14.382  66.818  1.00  0.00    -0.415 A  
HETATM    7  C   UNL     1     -11.910  14.349  68.220  1.00  0.00    -0.361 A  
ENDROOT
BRANCH   7   8
HETATM    8  C   UNL     1     -12.019  15.663  68.970  1.00  0.00    -0.304 C  
BRANCH   8   9
HETATM    9  N   UNL     1     -10.728  16.366  69.067  1.00  0.00    -0.300 NA 
HETATM   10  C   UNL     1     -10.593  17.446  68.056  1.00  0.00    -0.389 C  
HETATM   11  C   UNL     1      -9.353  18.332  68.320  1.00  0.00    -0.320 C  
HETATM   12  C   UNL     1      -8.197  17.482  68.742  1.00  0.00    -0.222 A  
HETATM   13  C   UNL     1      -8.309  16.142  69.050  1.00  0.00    -0.247 A  
HETATM   14  C   UNL     1      -7.054  15.610  69.476  1.00  0.00    -0.195 A  
HETATM   15  C   UNL     1      -9.613  15.403  68.925  1.00  0.00    -0.220 C  
HETATM   16  C   UNL     1      -6.062  16.567  69.490  1.00  0.00    -0.199 A  
HETATM   17  S   UNL     1      -6.633  18.097  68.968  1.00  0.00    -0.249 SA 
ENDBRANCH   8   9
ENDBRANCH   7   8
TORSDOF 2
ENDMDL
MODEL       82
REMARK 921   NORMALIZED FREE ENERGY PREDICTED BY IDOCK:   -4.28 KCAL/MOL
REMARK 922        TOTAL FREE ENERGY PREDICTED BY IDOCK:   -5.15 KCAL/MOL
REMARK 923 INTER-LIGAND FREE ENERGY PREDICTED BY IDOCK:   -5.40 KCAL/MOL
REMARK 924 INTRA-LIGAND FREE ENERGY PREDICTED BY IDOCK:    0.24 KCAL/MOL
REMARK 927      BINDING AFFINITY PREDICTED BY RF-SCORE:    0.00 PKD
ROOT
HETATM    1 CL   UNL     1     -10.676  19.447  67.137  1.00  0.00    -0.582 Cl 
HETATM    2  C   UNL     1      -9.137  18.723  66.829  1.00  0.00    -0.312 A  
HETATM    3  C   UNL     1      -8.230  19.456  66.055  1.00  0.00    -0.245 A  
HETATM    4  C   UNL     1      -6.963  18.943  65.778  1.00  0.00    -0.296 A  
HETATM    5  C   UNL     1      -6.589  17.707  66.294  1.00  0.00    -0.301 A  
HETATM    6  C   UNL     1      -7.493  16.971  67.059  1.00  0.00    -0.227 A  
HETATM    7  C   UNL     1      -8.793  17.453  67.316  1.00  0.00    -0.238 A  
ENDROOT
BRANCH   7   8
HETATM    8  C   UNL     1      -9.763  16.559  68.065  1.00  0.00    -0.236 C  
BRANCH   8   9
HETATM    9  N   UNL     1     -10.145  15.366  67.288  1.00  0.00    -0.236 NA 
HETATM   10  C   UNL     1      -9.031  14.392  67.162  1.00  0.00    -0.232 C  
HETATM   11  C   UNL     1      -9.507  13.047  66.564  1.00  0.00    -0.246 C  
HETATM   12  C   UNL     1     -10.483  13.294  65.459  1.00  0.00    -0.288 A  
HETATM   13  C   UNL     1     -11.023  14.533  65.182  1.00  0.00    -0.387 A  
HETATM   14  C   UNL     1     -11.966  14.451  64.113  1.00  0.00    -0.373 A  
HETATM   15  C   UNL     1     -10.619  15.765  65.944  1.00  0.00    -0.339 C  
HETATM   16  C   UNL     1     -12.112  13.162  63.647  1.00  0.00    -0.513 A  
HETATM   17  S   UNL     1     -11.097  12.056  64.475  1.00  0.00    -0.346 SA 
ENDBRANCH   8   9
ENDBRANCH   7   8
TORSDOF 2
ENDMDL
MODEL       83
REMARK 921   NORMALIZED FREE ENERGY PREDICTED BY IDOCK:   -4.28 KCAL/MOL
REMARK 922        TOTAL FREE ENERGY PREDICTED BY IDOCK:   -5.15 KCAL/MOL
REMARK 923 INTER-LIGAND FREE ENERGY PREDICTED BY IDOCK:   -5.31 KCAL/MOL
REMARK 924 INTRA-LIGAND FREE ENERGY PREDICTED BY IDOCK:    0.16 KCAL/MOL
REMARK 927      BINDING AFFINITY PREDICTED BY RF-SCORE:    0.00 PKD
ROOT
HETATM    1 CL   UNL     1      -8.251  10.006  65.865  1.00  0.00    -0.124 Cl 
HETATM    2  C   UNL     1      -9.675  10.986  65.837  1.00  0.00    -0.224 A  
HETATM    3  C   UNL     1     -10.315  11.146  64.603  1.00  0.00    -0.393 A  
HETATM    4  C   UNL     1     -11.478  11.910  64.505  1.00  0.00    -0.363 A  
HETATM    5  C   UNL     1     -12.018  12.497  65.645  1.00  0.00    -0.492 A  
HETATM    6  C   UNL     1     -11.378  12.345  66.874  1.00  0.00    -0.392 A  
HETATM    7  C   UNL     1     -10.180  11.612  66.986  1.00  0.00    -0.240 A  
ENDROOT
BRANCH   7   8
HETATM    8  C   UNL     1      -9.476  11.573  68.330  1.00  0.00    -0.195 C  
BRANCH   8   9
HETATM    9  N   UNL     1     -10.103  10.623  69.267  1.00  0.00    -0.221 NA 
HETATM   10  C   UNL     1     -10.255   9.267  68.680  1.00  0.00    -0.199 C  
HETATM   11  C   UNL     1     -10.681   8.225  69.742  1.00  0.00    -0.221 C  
HETATM   12  C   UNL     1     -11.699   8.818  70.663  1.00  0.00    -0.166 A  
HETATM   13  C   UNL     1     -12.028  10.157  70.673  1.00  0.00    -0.423 A  
HETATM   14  C   UNL     1     -12.984  10.440  71.696  1.00  0.00    -0.581 A  
HETATM   15  C   UNL     1     -11.422  11.134  69.703  1.00  0.00    -0.310 C  
HETATM   16  C   UNL     1     -13.318   9.314  72.419  1.00  0.00    -0.449 A  
HETATM   17  S   UNL     1     -12.503   7.917  71.853  1.00  0.00    -0.316 SA 
ENDBRANCH   8   9
ENDBRANCH   7   8
TORSDOF 2
ENDMDL
MODEL       84
REMARK 921   NORMALIZED FREE ENERGY PREDICTED BY IDOCK:   -4.28 KCAL/MOL
REMARK 922        TOTAL FREE ENERGY PREDICTED BY IDOCK:   -5.15 KCAL/MOL
REMARK 923 INTER-LIGAND FREE ENERGY PREDICTED BY IDOCK:   -4.84 KCAL/MOL
REMARK 924 INTRA-LIGAND FREE ENERGY PREDICTED BY IDOCK:   -0.30 KCAL/MOL
REMARK 927      BINDING AFFINITY PREDICTED BY RF-SCORE:    0.00 PKD
ROOT
HETATM    1 CL   UNL     1     -12.239  14.754  64.233  1.00  0.00    -0.489 Cl 
HETATM    2  C   UNL     1     -11.285  15.329  65.554  1.00  0.00    -0.277 A  
HETATM    3  C   UNL     1     -10.516  16.477  65.335  1.00  0.00    -0.291 A  
HETATM    4  C   UNL     1      -9.732  17.009  66.359  1.00  0.00    -0.310 A  
HETATM    5  C   UNL     1      -9.733  16.408  67.613  1.00  0.00    -0.238 A  
HETATM    6  C   UNL     1     -10.493  15.259  67.833  1.00  0.00    -0.253 A  
HETATM    7  C   UNL     1     -11.259  14.683  66.800  1.00  0.00    -0.344 A  
ENDROOT
BRANCH   7   8
HETATM    8  C   UNL     1     -11.978  13.375  67.073  1.00  0.00    -0.379 C  
BRANCH   8   9
HETATM    9  N   UNL     1     -11.105  12.203  66.887  1.00  0.00    -0.280 NA 
HETATM   10  C   UNL     1     -11.132  11.692  65.493  1.00  0.00    -0.237 C  
HETATM   11  C   UNL     1     -10.036  10.627  65.248  1.00  0.00    -0.363 C  
HETATM   12  C   UNL     1      -9.931   9.719  66.432  1.00  0.00    -0.247 A  
HETATM   13  C   UNL     1     -10.573   9.952  67.630  1.00  0.00    -0.325 A  
HETATM   14  C   UNL     1     -10.240   8.949  68.591  1.00  0.00    -0.221 A  
HETATM   15  C   UNL     1     -11.493  11.126  67.825  1.00  0.00    -0.272 C  
HETATM   16  C   UNL     1      -9.353   8.022  68.087  1.00  0.00    -0.139 A  
HETATM   17  S   UNL     1      -8.942   8.341  66.454  1.00  0.00    -0.176 SA 
ENDBRANCH   8   9
ENDBRANCH   7   8
TORSDOF 2
ENDMDL
MODEL       85
REMARK 921   NORMALIZED FREE ENERGY PREDICTED BY IDOCK:   -4.26 KCAL/MOL
REMARK 922        TOTAL FREE ENERGY PREDICTED BY IDOCK:   -5.13 KCAL/MOL
REMARK 923 INTER-LIGAND FREE ENERGY PREDICTED BY IDOCK:   -5.23 KCAL/MOL
REMARK 924 INTRA-LIGAND FREE ENERGY PREDICTED BY IDOCK:    0.11 KCAL/MOL
REMARK 927      BINDING AFFINITY PREDICTED BY RF-SCORE:    0.00 PKD
ROOT
HETATM    1 CL   UNL     1     -11.419  13.169  67.647  1.00  0.00    -0.340 Cl 
HETATM    2  C   UNL     1     -11.888  13.878  69.152  1.00  0.00    -0.358 A  
HETATM    3  C   UNL     1     -12.293  13.006  70.169  1.00  0.00    -0.270 A  
HETATM    4  C   UNL     1     -12.671  13.503  71.416  1.00  0.00    -0.423 A  
HETATM    5  C   UNL     1     -12.623  14.873  71.658  1.00  0.00    -0.396 A  
HETATM    6  C   UNL     1     -12.227  15.744  70.644  1.00  0.00    -0.422 A  
HETATM    7  C   UNL     1     -11.881  15.265  69.365  1.00  0.00    -0.367 A  
ENDROOT
BRANCH   7   8
HETATM    8  C   UNL     1     -11.562  16.271  68.275  1.00  0.00    -0.118 C  
BRANCH   8   9
HETATM    9  N   UNL     1     -10.137  16.648  68.256  1.00  0.00    -0.257 NA 
HETATM   10  C   UNL     1      -9.342  15.905  69.267  1.00  0.00    -0.259 C  
HETATM   11  C   UNL     1      -7.822  16.121  69.076  1.00  0.00    -0.227 C  
HETATM   12  C   UNL     1      -7.546  17.551  68.734  1.00  0.00    -0.258 A  
HETATM   13  C   UNL     1      -8.533  18.464  68.428  1.00  0.00    -0.345 A  
HETATM   14  C   UNL     1      -7.969  19.730  68.087  1.00  0.00    -0.334 A  
HETATM   15  C   UNL     1      -9.993  18.104  68.475  1.00  0.00    -0.395 C  
HETATM   16  C   UNL     1      -6.591  19.712  68.129  1.00  0.00    -0.260 A  
HETATM   17  S   UNL     1      -5.979  18.184  68.604  1.00  0.00    -0.201 SA 
ENDBRANCH   8   9
ENDBRANCH   7   8
TORSDOF 2
ENDMDL
MODEL       86
REMARK 921   NORMALIZED FREE ENERGY PREDICTED BY IDOCK:   -4.23 KCAL/MOL
REMARK 922        TOTAL FREE ENERGY PREDICTED BY IDOCK:   -5.10 KCAL/MOL
REMARK 923 INTER-LIGAND FREE ENERGY PREDICTED BY IDOCK:   -4.90 KCAL/MOL
REMARK 924 INTRA-LIGAND FREE ENERGY PREDICTED BY IDOCK:   -0.20 KCAL/MOL
REMARK 927      BINDING AFFINITY PREDICTED BY RF-SCORE:    0.00 PKD
ROOT
HETATM    1 CL   UNL     1     -10.993   7.190  73.073  1.00  0.00    -0.344 Cl 
HETATM    2  C   UNL     1     -11.620   8.550  72.211  1.00  0.00    -0.374 A  
HETATM    3  C   UNL     1     -12.963   8.879  72.427  1.00  0.00    -0.467 A  
HETATM    4  C   UNL     1     -13.536   9.972  71.778  1.00  0.00    -0.422 A  
HETATM    5  C   UNL     1     -12.761  10.757  70.929  1.00  0.00    -0.478 A  
HETATM    6  C   UNL     1     -11.424  10.428  70.707  1.00  0.00    -0.422 A  
HETATM    7  C   UNL     1     -10.839   9.302  71.321  1.00  0.00    -0.417 A  
ENDROOT
BRANCH   7   8
HETATM    8  C   UNL     1      -9.412   8.937  70.956  1.00  0.00    -0.252 C  
BRANCH   8   9
HETATM    9  N   UNL     1      -9.340   7.755  70.078  1.00  0.00    -0.157 NA 
HETATM   10  C   UNL     1      -7.941   7.375  69.755  1.00  0.00    -0.125 C  
HETATM   11  C   UNL     1      -7.867   6.002  69.045  1.00  0.00    -0.096 C  
HETATM   12  C   UNL     1      -8.980   5.877  68.054  1.00  0.00    -0.118 A  
HETATM   13  C   UNL     1     -10.024   6.774  67.964  1.00  0.00    -0.162 A  
HETATM   14  C   UNL     1     -10.963   6.365  66.969  1.00  0.00    -0.463 A  
HETATM   15  C   UNL     1     -10.095   8.002  68.830  1.00  0.00    -0.195 C  
HETATM   16  C   UNL     1     -10.601   5.178  66.370  1.00  0.00    -0.276 A  
HETATM   17  S   UNL     1      -9.122   4.569  66.984  1.00  0.00    -0.134 SA 
ENDBRANCH   8   9
ENDBRANCH   7   8
TORSDOF 2
ENDMDL
MODEL       87
REMARK 921   NORMALIZED FREE ENERGY PREDICTED BY IDOCK:   -4.23 KCAL/MOL
REMARK 922        TOTAL FREE ENERGY PREDICTED BY IDOCK:   -5.09 KCAL/MOL
REMARK 923 INTER-LIGAND FREE ENERGY PREDICTED BY IDOCK:   -4.72 KCAL/MOL
REMARK 924 INTRA-LIGAND FREE ENERGY PREDICTED BY IDOCK:   -0.37 KCAL/MOL
REMARK 927      BINDING AFFINITY PREDICTED BY RF-SCORE:    0.00 PKD
ROOT
HETATM    1 CL   UNL     1      -9.445  17.031  66.710  1.00  0.00    -0.257 Cl 
HETATM    2  C   UNL     1      -8.302  15.838  67.216  1.00  0.00    -0.188 A  
HETATM    3  C   UNL     1      -6.951  16.204  67.208  1.00  0.00    -0.234 A  
HETATM    4  C   UNL     1      -5.972  15.299  67.617  1.00  0.00    -0.119 A  
HETATM    5  C   UNL     1      -6.342  14.032  68.058  1.00  0.00    -0.146 A  
HETATM    6  C   UNL     1      -7.686  13.662  68.060  1.00  0.00    -0.143 A  
HETATM    7  C   UNL     1      -8.687  14.548  67.612  1.00  0.00    -0.186 A  
ENDROOT
BRANCH   7   8
HETATM    8  C   UNL     1     -10.118  14.048  67.539  1.00  0.00    -0.237 C  
BRANCH   8   9
HETATM    9  N   UNL     1     -10.742  13.931  68.869  1.00  0.00    -0.249 NA 
HETATM   10  C   UNL     1     -11.804  12.894  68.906  1.00  0.00    -0.309 C  
HETATM   11  C   UNL     1     -12.278  12.606  70.351  1.00  0.00    -0.368 C  
HETATM   12  C   UNL     1     -12.380  13.885  71.120  1.00  0.00    -0.359 A  
HETATM   13  C   UNL     1     -11.908  15.094  70.654  1.00  0.00    -0.371 A  
HETATM   14  C   UNL     1     -12.090  16.122  71.628  1.00  0.00    -0.479 A  
HETATM   15  C   UNL     1     -11.298  15.237  69.287  1.00  0.00    -0.298 C  
HETATM   16  C   UNL     1     -12.668  15.644  72.785  1.00  0.00    -0.436 A  
HETATM   17  S   UNL     1     -13.015  13.969  72.691  1.00  0.00    -0.340 SA 
ENDBRANCH   8   9
ENDBRANCH   7   8
TORSDOF 2
ENDMDL
MODEL       88
REMARK 921   NORMALIZED FREE ENERGY PREDICTED BY IDOCK:   -4.22 KCAL/MOL
REMARK 922        TOTAL FREE ENERGY PREDICTED BY IDOCK:   -5.08 KCAL/MOL
REMARK 923 INTER-LIGAND FREE ENERGY PREDICTED BY IDOCK:   -5.23 KCAL/MOL
REMARK 924 INTRA-LIGAND FREE ENERGY PREDICTED BY IDOCK:    0.15 KCAL/MOL
REMARK 927      BINDING AFFINITY PREDICTED BY RF-SCORE:    0.00 PKD
ROOT
HETATM    1 CL   UNL     1     -11.139  11.090  68.950  1.00  0.00    -0.263 Cl 
HETATM    2  C   UNL     1     -10.700  10.828  67.299  1.00  0.00    -0.274 A  
HETATM    3  C   UNL     1      -9.934   9.692  67.014  1.00  0.00    -0.263 A  
HETATM    4  C   UNL     1      -9.554   9.406  65.703  1.00  0.00    -0.345 A  
HETATM    5  C   UNL     1      -9.958  10.244  64.668  1.00  0.00    -0.377 A  
HETATM    6  C   UNL     1     -10.714  11.381  64.949  1.00  0.00    -0.350 A  
HETATM    7  C   UNL     1     -11.073  11.709  66.272  1.00  0.00    -0.345 A  
ENDROOT
BRANCH   7   8
HETATM    8  C   UNL     1     -11.804  13.015  66.523  1.00  0.00    -0.403 C  
BRANCH   8   9
HETATM    9  N   UNL     1     -10.894  14.173  66.559  1.00  0.00    -0.295 NA 
HETATM   10  C   UNL     1     -10.967  14.989  65.320  1.00  0.00    -0.382 C  
HETATM   11  C   UNL     1     -10.201  16.325  65.464  1.00  0.00    -0.326 C  
HETATM   12  C   UNL     1      -8.919  16.104  66.203  1.00  0.00    -0.337 A  
HETATM   13  C   UNL     1      -8.599  14.921  66.835  1.00  0.00    -0.269 A  
HETATM   14  C   UNL     1      -7.342  15.024  67.504  1.00  0.00    -0.228 A  
HETATM   15  C   UNL     1      -9.503  13.720  66.781  1.00  0.00    -0.275 C  
HETATM   16  C   UNL     1      -6.781  16.276  67.365  1.00  0.00    -0.177 A  
HETATM   17  S   UNL     1      -7.752  17.317  66.412  1.00  0.00    -0.325 SA 
ENDBRANCH   8   9
ENDBRANCH   7   8
TORSDOF 2
ENDMDL
MODEL       89
REMARK 921   NORMALIZED FREE ENERGY PREDICTED BY IDOCK:   -4.20 KCAL/MOL
REMARK 922        TOTAL FREE ENERGY PREDICTED BY IDOCK:   -5.06 KCAL/MOL
REMARK 923 INTER-LIGAND FREE ENERGY PREDICTED BY IDOCK:   -4.70 KCAL/MOL
REMARK 924 INTRA-LIGAND FREE ENERGY PREDICTED BY IDOCK:   -0.35 KCAL/MOL
REMARK 927      BINDING AFFINITY PREDICTED BY RF-SCORE:    0.00 PKD
ROOT
HETATM    1 CL   UNL     1     -10.536   8.373  66.915  1.00  0.00    -0.386 Cl 
HETATM    2  C   UNL     1      -9.830   8.689  68.461  1.00  0.00    -0.169 A  
HETATM    3  C   UNL     1      -8.699   7.942  68.811  1.00  0.00    -0.128 A  
HETATM    4  C   UNL     1      -8.065   8.152  70.035  1.00  0.00    -0.114 A  
HETATM    5  C   UNL     1      -8.546   9.125  70.905  1.00  0.00    -0.259 A  
HETATM    6  C   UNL     1      -9.677   9.866  70.562  1.00  0.00    -0.077 A  
HETATM    7  C   UNL     1     -10.356   9.640  69.348  1.00  0.00    -0.226 A  
ENDROOT
BRANCH   7   8
HETATM    8  C   UNL     1     -11.640  10.403  69.082  1.00  0.00    -0.164 C  
BRANCH   8   9
HETATM    9  N   UNL     1     -11.897  11.444  70.094  1.00  0.00    -0.337 NA 
HETATM   10  C   UNL     1     -13.130  11.179  70.878  1.00  0.00    -0.061 C  
HETATM   11  C   UNL     1     -13.258  12.132  72.090  1.00  0.00    -0.438 C  
HETATM   12  C   UNL     1     -12.837  13.513  71.703  1.00  0.00    -0.329 A  
HETATM   13  C   UNL     1     -12.227  13.815  70.503  1.00  0.00    -0.440 A  
HETATM   14  C   UNL     1     -11.887  15.200  70.438  1.00  0.00    -0.349 A  
HETATM   15  C   UNL     1     -11.987  12.771  69.447  1.00  0.00    -0.263 C  
HETATM   16  C   UNL     1     -12.235  15.875  71.589  1.00  0.00    -0.479 A  
HETATM   17  S   UNL     1     -12.991  14.850  72.735  1.00  0.00    -0.486 SA 
ENDBRANCH   8   9
ENDBRANCH   7   8
TORSDOF 2
ENDMDL
MODEL       90
REMARK 921   NORMALIZED FREE ENERGY PREDICTED BY IDOCK:   -4.20 KCAL/MOL
REMARK 922        TOTAL FREE ENERGY PREDICTED BY IDOCK:   -5.06 KCAL/MOL
REMARK 923 INTER-LIGAND FREE ENERGY PREDICTED BY IDOCK:   -4.78 KCAL/MOL
REMARK 924 INTRA-LIGAND FREE ENERGY PREDICTED BY IDOCK:   -0.28 KCAL/MOL
REMARK 927      BINDING AFFINITY PREDICTED BY RF-SCORE:    0.00 PKD
ROOT
HETATM    1 CL   UNL     1      -9.496   8.912  65.591  1.00  0.00    -0.274 Cl 
HETATM    2  C   UNL     1     -10.078   9.230  67.187  1.00  0.00    -0.236 A  
HETATM    3  C   UNL     1      -9.900   8.224  68.144  1.00  0.00    -0.198 A  
HETATM    4  C   UNL     1     -10.330   8.415  69.457  1.00  0.00    -0.219 A  
HETATM    5  C   UNL     1     -10.918   9.621  69.824  1.00  0.00    -0.266 A  
HETATM    6  C   UNL     1     -11.104  10.622  68.871  1.00  0.00    -0.314 A  
HETATM    7  C   UNL     1     -10.715  10.433  67.530  1.00  0.00    -0.339 A  
ENDROOT
BRANCH   7   8
HETATM    8  C   UNL     1     -11.040  11.517  66.520  1.00  0.00    -0.282 C  
BRANCH   8   9
HETATM    9  N   UNL     1     -10.827  12.872  67.060  1.00  0.00    -0.257 NA 
HETATM   10  C   UNL     1     -12.101  13.613  67.248  1.00  0.00    -0.345 C  
HETATM   11  C   UNL     1     -11.891  14.927  68.038  1.00  0.00    -0.296 C  
HETATM   12  C   UNL     1     -10.632  15.599  67.591  1.00  0.00    -0.294 A  
HETATM   13  C   UNL     1      -9.708  15.006  66.756  1.00  0.00    -0.253 A  
HETATM   14  C   UNL     1      -8.583  15.862  66.553  1.00  0.00    -0.345 A  
HETATM   15  C   UNL     1      -9.925  13.638  66.171  1.00  0.00    -0.306 C  
HETATM   16  C   UNL     1      -8.696  17.044  67.252  1.00  0.00    -0.199 A  
HETATM   17  S   UNL     1     -10.164  17.137  68.131  1.00  0.00    -0.353 SA 
ENDBRANCH   8   9
ENDBRANCH   7   8
TORSDOF 2
ENDMDL
MODEL       91
REMARK 921   NORMALIZED FREE ENERGY PREDICTED BY IDOCK:   -4.19 KCAL/MOL
REMARK 922        TOTAL FREE ENERGY PREDICTED BY IDOCK:   -5.05 KCAL/MOL
REMARK 923 INTER-LIGAND FREE ENERGY PREDICTED BY IDOCK:   -4.96 KCAL/MOL
REMARK 924 INTRA-LIGAND FREE ENERGY PREDICTED BY IDOCK:   -0.09 KCAL/MOL
REMARK 927      BINDING AFFINITY PREDICTED BY RF-SCORE:    0.00 PKD
ROOT
HETATM    1 CL   UNL     1      -8.606  13.023  68.180  1.00  0.00    -0.183 Cl 
HETATM    2  C   UNL     1      -9.953  13.402  67.165  1.00  0.00    -0.242 A  
HETATM    3  C   UNL     1      -9.672  13.949  65.908  1.00  0.00    -0.237 A  
HETATM    4  C   UNL     1     -10.706  14.266  65.028  1.00  0.00    -0.435 A  
HETATM    5  C   UNL     1     -12.025  14.017  65.393  1.00  0.00    -0.386 A  
HETATM    6  C   UNL     1     -12.310  13.479  66.648  1.00  0.00    -0.351 A  
HETATM    7  C   UNL     1     -11.281  13.191  67.567  1.00  0.00    -0.314 A  
ENDROOT
BRANCH   7   8
HETATM    8  C   UNL     1     -11.662  12.708  68.954  1.00  0.00    -0.325 C  
BRANCH   8   9
HETATM    9  N   UNL     1     -11.128  11.367  69.250  1.00  0.00    -0.247 NA 
HETATM   10  C   UNL     1     -11.330  10.416  68.127  1.00  0.00    -0.213 C  
HETATM   11  C   UNL     1     -10.555   9.094  68.345  1.00  0.00    -0.217 C  
HETATM   12  C   UNL     1     -10.650   8.674  69.777  1.00  0.00    -0.224 A  
HETATM   13  C   UNL     1     -11.171   9.474  70.772  1.00  0.00    -0.383 A  
HETATM   14  C   UNL     1     -11.077   8.832  72.044  1.00  0.00    -0.441 A  
HETATM   15  C   UNL     1     -11.750  10.832  70.481  1.00  0.00    -0.351 C  
HETATM   16  C   UNL     1     -10.476   7.594  71.958  1.00  0.00    -0.213 A  
HETATM   17  S   UNL     1     -10.049   7.194  70.347  1.00  0.00    -0.192 SA 
ENDBRANCH   8   9
ENDBRANCH   7   8
TORSDOF 2
ENDMDL
MODEL       92
REMARK 921   NORMALIZED FREE ENERGY PREDICTED BY IDOCK:   -4.18 KCAL/MOL
REMARK 922        TOTAL FREE ENERGY PREDICTED BY IDOCK:   -5.04 KCAL/MOL
REMARK 923 INTER-LIGAND FREE ENERGY PREDICTED BY IDOCK:   -4.65 KCAL/MOL
REMARK 924 INTRA-LIGAND FREE ENERGY PREDICTED BY IDOCK:   -0.39 KCAL/MOL
REMARK 927      BINDING AFFINITY PREDICTED BY RF-SCORE:    0.00 PKD
ROOT
HETATM    1 CL   UNL     1     -12.696  15.257  70.596  1.00  0.00    -0.449 Cl 
HETATM    2  C   UNL     1     -12.525  13.539  70.507  1.00  0.00    -0.302 A  
HETATM    3  C   UNL     1     -13.054  12.789  71.563  1.00  0.00    -0.380 A  
HETATM    4  C   UNL     1     -12.967  11.397  71.554  1.00  0.00    -0.505 A  
HETATM    5  C   UNL     1     -12.373  10.748  70.476  1.00  0.00    -0.458 A  
HETATM    6  C   UNL     1     -11.838  11.493  69.425  1.00  0.00    -0.417 A  
HETATM    7  C   UNL     1     -11.878  12.902  69.436  1.00  0.00    -0.371 A  
ENDROOT
BRANCH   7   8
HETATM    8  C   UNL     1     -11.186  13.656  68.317  1.00  0.00    -0.273 C  
BRANCH   8   9
HETATM    9  N   UNL     1      -9.769  13.933  68.615  1.00  0.00    -0.199 NA 
HETATM   10  C   UNL     1      -9.494  15.385  68.759  1.00  0.00    -0.211 C  
HETATM   11  C   UNL     1      -8.073  15.650  69.311  1.00  0.00    -0.244 C  
HETATM   12  C   UNL     1      -7.096  14.708  68.684  1.00  0.00    -0.115 A  
HETATM   13  C   UNL     1      -7.467  13.635  67.901  1.00  0.00    -0.158 A  
HETATM   14  C   UNL     1      -6.324  12.882  67.492  1.00  0.00    -0.161 A  
HETATM   15  C   UNL     1      -8.905  13.358  67.560  1.00  0.00    -0.210 C  
HETATM   16  C   UNL     1      -5.152  13.404  67.996  1.00  0.00    -0.108 A  
HETATM   17  S   UNL     1      -5.422  14.810  68.938  1.00  0.00    -0.090 SA 
ENDBRANCH   8   9
ENDBRANCH   7   8
TORSDOF 2
ENDMDL
MODEL       93
REMARK 921   NORMALIZED FREE ENERGY PREDICTED BY IDOCK:   -4.18 KCAL/MOL
REMARK 922        TOTAL FREE ENERGY PREDICTED BY IDOCK:   -5.03 KCAL/MOL
REMARK 923 INTER-LIGAND FREE ENERGY PREDICTED BY IDOCK:   -4.82 KCAL/MOL
REMARK 924 INTRA-LIGAND FREE ENERGY PREDICTED BY IDOCK:   -0.21 KCAL/MOL
REMARK 927      BINDING AFFINITY PREDICTED BY RF-SCORE:    0.00 PKD
ROOT
HETATM    1 CL   UNL     1     -12.394  14.227  66.748  1.00  0.00    -0.396 Cl 
HETATM    2  C   UNL     1     -11.775  13.179  65.522  1.00  0.00    -0.357 A  
HETATM    3  C   UNL     1     -12.591  12.947  64.408  1.00  0.00    -0.392 A  
HETATM    4  C   UNL     1     -12.153  12.124  63.371  1.00  0.00    -0.608 A  
HETATM    5  C   UNL     1     -10.888  11.549  63.431  1.00  0.00    -0.423 A  
HETATM    6  C   UNL     1     -10.075  11.773  64.542  1.00  0.00    -0.312 A  
HETATM    7  C   UNL     1     -10.516  12.567  65.620  1.00  0.00    -0.299 A  
ENDROOT
BRANCH   7   8
HETATM    8  C   UNL     1      -9.629  12.684  66.845  1.00  0.00    -0.232 C  
BRANCH   8   9
HETATM    9  N   UNL     1      -9.848  11.589  67.806  1.00  0.00    -0.174 NA 
HETATM   10  C   UNL     1     -11.004  11.845  68.703  1.00  0.00    -0.228 C  
HETATM   11  C   UNL     1     -11.376  10.594  69.534  1.00  0.00    -0.342 C  
HETATM   12  C   UNL     1     -10.135   9.904  70.004  1.00  0.00    -0.260 A  
HETATM   13  C   UNL     1      -8.869  10.231  69.567  1.00  0.00    -0.166 A  
HETATM   14  C   UNL     1      -7.891   9.365  70.142  1.00  0.00    -0.148 A  
HETATM   15  C   UNL     1      -8.626  11.367  68.611  1.00  0.00    -0.126 C  
HETATM   16  C   UNL     1      -8.458   8.417  70.967  1.00  0.00    -0.143 A  
HETATM   17  S   UNL     1     -10.160   8.584  71.069  1.00  0.00    -0.220 SA 
ENDBRANCH   8   9
ENDBRANCH   7   8
TORSDOF 2
ENDMDL
MODEL       94
REMARK 921   NORMALIZED FREE ENERGY PREDICTED BY IDOCK:   -4.17 KCAL/MOL
REMARK 922        TOTAL FREE ENERGY PREDICTED BY IDOCK:   -5.02 KCAL/MOL
REMARK 923 INTER-LIGAND FREE ENERGY PREDICTED BY IDOCK:   -4.97 KCAL/MOL
REMARK 924 INTRA-LIGAND FREE ENERGY PREDICTED BY IDOCK:   -0.06 KCAL/MOL
REMARK 927      BINDING AFFINITY PREDICTED BY RF-SCORE:    0.00 PKD
ROOT
HETATM    1 CL   UNL     1      -8.107  10.051  70.119  1.00  0.00    -0.165 Cl 
HETATM    2  C   UNL     1      -9.066   9.291  68.899  1.00  0.00    -0.139 A  
HETATM    3  C   UNL     1      -8.912   7.910  68.733  1.00  0.00    -0.141 A  
HETATM    4  C   UNL     1      -9.663   7.225  67.778  1.00  0.00    -0.167 A  
HETATM    5  C   UNL     1     -10.589   7.915  67.001  1.00  0.00    -0.381 A  
HETATM    6  C   UNL     1     -10.739   9.292  67.159  1.00  0.00    -0.222 A  
HETATM    7  C   UNL     1      -9.960  10.009  68.089  1.00  0.00    -0.176 A  
ENDROOT
BRANCH   7   8
HETATM    8  C   UNL     1     -10.096  11.519  68.138  1.00  0.00    -0.193 C  
BRANCH   8   9
HETATM    9  N   UNL     1     -10.887  11.977  69.294  1.00  0.00    -0.138 NA 
HETATM   10  C   UNL     1     -11.985  11.036  69.636  1.00  0.00    -0.353 C  
HETATM   11  C   UNL     1     -12.649  11.393  70.987  1.00  0.00    -0.487 C  
HETATM   12  C   UNL     1     -12.798  12.876  71.109  1.00  0.00    -0.238 A  
HETATM   13  C   UNL     1     -12.225  13.774  70.233  1.00  0.00    -0.429 A  
HETATM   14  C   UNL     1     -12.489  15.118  70.634  1.00  0.00    -0.442 A  
HETATM   15  C   UNL     1     -11.442  13.323  69.030  1.00  0.00    -0.302 C  
HETATM   16  C   UNL     1     -13.227  15.177  71.797  1.00  0.00    -0.395 A  
HETATM   17  S   UNL     1     -13.623  13.619  72.391  1.00  0.00    -0.597 SA 
ENDBRANCH   8   9
ENDBRANCH   7   8
TORSDOF 2
ENDMDL
MODEL       95
REMARK 921   NORMALIZED FREE ENERGY PREDICTED BY IDOCK:   -4.15 KCAL/MOL
REMARK 922        TOTAL FREE ENERGY PREDICTED BY IDOCK:   -5.00 KCAL/MOL
REMARK 923 INTER-LIGAND FREE ENERGY PREDICTED BY IDOCK:   -5.29 KCAL/MOL
REMARK 924 INTRA-LIGAND FREE ENERGY PREDICTED BY IDOCK:    0.29 KCAL/MOL
REMARK 927      BINDING AFFINITY PREDICTED BY RF-SCORE:    0.00 PKD
ROOT
HETATM    1 CL   UNL     1      -8.680  12.694  66.866  1.00  0.00    -0.199 Cl 
HETATM    2  C   UNL     1      -9.403  11.429  67.795  1.00  0.00    -0.162 A  
HETATM    3  C   UNL     1      -8.605  10.317  68.090  1.00  0.00    -0.119 A  
HETATM    4  C   UNL     1      -9.114   9.264  68.849  1.00  0.00    -0.139 A  
HETATM    5  C   UNL     1     -10.416   9.328  69.335  1.00  0.00    -0.229 A  
HETATM    6  C   UNL     1     -11.216  10.430  69.036  1.00  0.00    -0.289 A  
HETATM    7  C   UNL     1     -10.734  11.486  68.236  1.00  0.00    -0.247 A  
ENDROOT
BRANCH   7   8
HETATM    8  C   UNL     1     -11.687  12.604  67.859  1.00  0.00    -0.358 C  
BRANCH   8   9
HETATM    9  N   UNL     1     -11.815  13.617  68.922  1.00  0.00    -0.346 NA 
HETATM   10  C   UNL     1     -10.550  14.362  69.151  1.00  0.00    -0.218 C  
HETATM   11  C   UNL     1     -10.758  15.578  70.084  1.00  0.00    -0.345 C  
HETATM   12  C   UNL     1     -11.687  15.215  71.199  1.00  0.00    -0.353 A  
HETATM   13  C   UNL     1     -12.403  14.037  71.241  1.00  0.00    -0.436 A  
HETATM   14  C   UNL     1     -13.247  13.994  72.392  1.00  0.00    -0.585 A  
HETATM   15  C   UNL     1     -12.258  12.980  70.182  1.00  0.00    -0.272 C  
HETATM   16  C   UNL     1     -13.147  15.141  73.152  1.00  0.00    -0.516 A  
HETATM   17  S   UNL     1     -12.022  16.255  72.496  1.00  0.00    -0.477 SA 
ENDBRANCH   8   9
ENDBRANCH   7   8
TORSDOF 2
ENDMDL
MODEL       96
REMARK 921   NORMALIZED FREE ENERGY PREDICTED BY IDOCK:   -4.12 KCAL/MOL
REMARK 922        TOTAL FREE ENERGY PREDICTED BY IDOCK:   -4.97 KCAL/MOL
REMARK 923 INTER-LIGAND FREE ENERGY PREDICTED BY IDOCK:   -4.68 KCAL/MOL
REMARK 924 INTRA-LIGAND FREE ENERGY PREDICTED BY IDOCK:   -0.29 KCAL/MOL
REMARK 927      BINDING AFFINITY PREDICTED BY RF-SCORE:    0.00 PKD
ROOT
HETATM    1 CL   UNL     1      -8.960  12.841  67.339  1.00  0.00    -0.186 Cl 
HETATM    2  C   UNL     1      -9.871  13.851  68.405  1.00  0.00    -0.229 A  
HETATM    3  C   UNL     1      -9.299  15.075  68.768  1.00  0.00    -0.200 A  
HETATM    4  C   UNL     1      -9.981  15.951  69.613  1.00  0.00    -0.255 A  
HETATM    5  C   UNL     1     -11.248  15.616  70.079  1.00  0.00    -0.332 A  
HETATM    6  C   UNL     1     -11.818  14.393  69.724  1.00  0.00    -0.375 A  
HETATM    7  C   UNL     1     -11.127  13.477  68.906  1.00  0.00    -0.305 A  
ENDROOT
BRANCH   7   8
HETATM    8  C   UNL     1     -11.756  12.121  68.644  1.00  0.00    -0.330 C  
BRANCH   8   9
HETATM    9  N   UNL     1     -11.133  11.048  69.439  1.00  0.00    -0.244 NA 
HETATM   10  C   UNL     1     -10.394  10.075  68.595  1.00  0.00    -0.190 C  
HETATM   11  C   UNL     1      -9.545   9.102  69.447  1.00  0.00    -0.165 C  
HETATM   12  C   UNL     1     -10.307   8.689  70.666  1.00  0.00    -0.202 A  
HETATM   13  C   UNL     1     -11.496   9.271  71.054  1.00  0.00    -0.387 A  
HETATM   14  C   UNL     1     -11.959   8.713  72.284  1.00  0.00    -0.438 A  
HETATM   15  C   UNL     1     -12.161  10.344  70.237  1.00  0.00    -0.286 C  
HETATM   16  C   UNL     1     -11.097   7.756  72.777  1.00  0.00    -0.398 A  
HETATM   17  S   UNL     1      -9.748   7.511  71.750  1.00  0.00    -0.161 SA 
ENDBRANCH   8   9
ENDBRANCH   7   8
TORSDOF 2
ENDMDL
MODEL       97
REMARK 921   NORMALIZED FREE ENERGY PREDICTED BY IDOCK:   -4.11 KCAL/MOL
REMARK 922        TOTAL FREE ENERGY PREDICTED BY IDOCK:   -4.96 KCAL/MOL
REMARK 923 INTER-LIGAND FREE ENERGY PREDICTED BY IDOCK:   -4.58 KCAL/MOL
REMARK 924 INTRA-LIGAND FREE ENERGY PREDICTED BY IDOCK:   -0.38 KCAL/MOL
REMARK 927      BINDING AFFINITY PREDICTED BY RF-SCORE:    0.00 PKD
ROOT
HETATM    1 CL   UNL     1     -11.181   6.451  68.902  1.00  0.00    -0.410 Cl 
HETATM    2  C   UNL     1      -9.834   7.297  69.577  1.00  0.00    -0.163 A  
HETATM    3  C   UNL     1      -8.581   6.680  69.484  1.00  0.00    -0.132 A  
HETATM    4  C   UNL     1      -7.444   7.309  69.992  1.00  0.00    -0.085 A  
HETATM    5  C   UNL     1      -7.552   8.568  70.574  1.00  0.00    -0.074 A  
HETATM    6  C   UNL     1      -8.800   9.182  70.674  1.00  0.00    -0.278 A  
HETATM    7  C   UNL     1      -9.966   8.545  70.205  1.00  0.00    -0.187 A  
ENDROOT
BRANCH   7   8
HETATM    8  C   UNL     1     -11.305   9.218  70.439  1.00  0.00    -0.242 C  
BRANCH   8   9
HETATM    9  N   UNL     1     -11.328  10.611  69.956  1.00  0.00    -0.302 NA 
HETATM   10  C   UNL     1     -12.289  11.456  70.710  1.00  0.00    -0.386 C  
HETATM   11  C   UNL     1     -12.130  12.956  70.367  1.00  0.00    -0.385 C  
HETATM   12  C   UNL     1     -11.896  13.123  68.899  1.00  0.00    -0.320 A  
HETATM   13  C   UNL     1     -11.648  12.072  68.042  1.00  0.00    -0.407 A  
HETATM   14  C   UNL     1     -11.406  12.540  66.715  1.00  0.00    -0.390 A  
HETATM   15  C   UNL     1     -11.654  10.643  68.513  1.00  0.00    -0.207 C  
HETATM   16  C   UNL     1     -11.460  13.916  66.633  1.00  0.00    -0.355 A  
HETATM   17  S   UNL     1     -11.828  14.640  68.142  1.00  0.00    -0.258 SA 
ENDBRANCH   8   9
ENDBRANCH   7   8
TORSDOF 2
ENDMDL
MODEL       98
REMARK 921   NORMALIZED FREE ENERGY PREDICTED BY IDOCK:   -4.10 KCAL/MOL
REMARK 922        TOTAL FREE ENERGY PREDICTED BY IDOCK:   -4.95 KCAL/MOL
REMARK 923 INTER-LIGAND FREE ENERGY PREDICTED BY IDOCK:   -4.57 KCAL/MOL
REMARK 924 INTRA-LIGAND FREE ENERGY PREDICTED BY IDOCK:   -0.38 KCAL/MOL
REMARK 927      BINDING AFFINITY PREDICTED BY RF-SCORE:    0.00 PKD
ROOT
HETATM    1 CL   UNL     1     -10.088  11.642  63.520  1.00  0.00    -0.409 Cl 
HETATM    2  C   UNL     1     -10.178  10.763  65.006  1.00  0.00    -0.306 A  
HETATM    3  C   UNL     1      -9.540   9.519  65.052  1.00  0.00    -0.218 A  
HETATM    4  C   UNL     1      -9.556   8.759  66.221  1.00  0.00    -0.328 A  
HETATM    5  C   UNL     1     -10.191   9.251  67.357  1.00  0.00    -0.304 A  
HETATM    6  C   UNL     1     -10.835  10.488  67.312  1.00  0.00    -0.338 A  
HETATM    7  C   UNL     1     -10.865  11.251  66.128  1.00  0.00    -0.281 A  
ENDROOT
BRANCH   7   8
HETATM    8  C   UNL     1     -11.671  12.537  66.114  1.00  0.00    -0.409 C  
BRANCH   8   9
HETATM    9  N   UNL     1     -11.090  13.575  66.984  1.00  0.00    -0.291 NA 
HETATM   10  C   UNL     1     -12.062  14.650  67.310  1.00  0.00    -0.185 C  
HETATM   11  C   UNL     1     -11.528  15.596  68.412  1.00  0.00    -0.374 C  
HETATM   12  C   UNL     1     -10.075  15.871  68.190  1.00  0.00    -0.229 A  
HETATM   13  C   UNL     1      -9.305  15.198  67.265  1.00  0.00    -0.210 A  
HETATM   14  C   UNL     1      -7.946  15.633  67.320  1.00  0.00    -0.227 A  
HETATM   15  C   UNL     1      -9.889  14.160  66.347  1.00  0.00    -0.296 C  
HETATM   16  C   UNL     1      -7.746  16.592  68.290  1.00  0.00    -0.183 A  
HETATM   17  S   UNL     1      -9.195  16.988  69.115  1.00  0.00     0.018 SA 
ENDBRANCH   8   9
ENDBRANCH   7   8
TORSDOF 2
ENDMDL
MODEL       99
REMARK 921   NORMALIZED FREE ENERGY PREDICTED BY IDOCK:   -4.10 KCAL/MOL
REMARK 922        TOTAL FREE ENERGY PREDICTED BY IDOCK:   -4.95 KCAL/MOL
REMARK 923 INTER-LIGAND FREE ENERGY PREDICTED BY IDOCK:   -4.76 KCAL/MOL
REMARK 924 INTRA-LIGAND FREE ENERGY PREDICTED BY IDOCK:   -0.19 KCAL/MOL
REMARK 927      BINDING AFFINITY PREDICTED BY RF-SCORE:    0.00 PKD
ROOT
HETATM    1 CL   UNL     1      -9.639   5.969  66.457  1.00  0.00    -0.176 Cl 
HETATM    2  C   UNL     1     -10.230   6.752  67.880  1.00  0.00    -0.171 A  
HETATM    3  C   UNL     1     -10.977   5.975  68.773  1.00  0.00    -0.384 A  
HETATM    4  C   UNL     1     -11.474   6.534  69.950  1.00  0.00    -0.467 A  
HETATM    5  C   UNL     1     -11.206   7.866  70.251  1.00  0.00    -0.206 A  
HETATM    6  C   UNL     1     -10.468   8.644  69.360  1.00  0.00    -0.224 A  
HETATM    7  C   UNL     1      -9.993   8.110  68.146  1.00  0.00    -0.219 A  
ENDROOT
BRANCH   7   8
HETATM    8  C   UNL     1      -9.289   9.036  67.172  1.00  0.00    -0.147 C  
BRANCH   8   9
HETATM    9  N   UNL     1     -10.176  10.096  66.661  1.00  0.00    -0.224 NA 
HETATM   10  C   UNL     1     -10.030  10.300  65.197  1.00  0.00    -0.325 C  
HETATM   11  C   UNL     1     -11.129  11.232  64.633  1.00  0.00    -0.223 C  
HETATM   12  C   UNL     1     -11.377  12.364  65.579  1.00  0.00    -0.346 A  
HETATM   13  C   UNL     1     -10.847  12.423  66.851  1.00  0.00    -0.286 A  
HETATM   14  C   UNL     1     -11.303  13.587  67.540  1.00  0.00    -0.335 A  
HETATM   15  C   UNL     1      -9.915  11.366  67.375  1.00  0.00    -0.186 C  
HETATM   16  C   UNL     1     -12.166  14.341  66.771  1.00  0.00    -0.352 A  
HETATM   17  S   UNL     1     -12.406  13.662  65.216  1.00  0.00    -0.484 SA 
ENDBRANCH   8   9
ENDBRANCH   7   8
TORSDOF 2
ENDMDL
MODEL      100
REMARK 921   NORMALIZED FREE ENERGY PREDICTED BY IDOCK:   -4.09 KCAL/MOL
REMARK 922        TOTAL FREE ENERGY PREDICTED BY IDOCK:   -4.94 KCAL/MOL
REMARK 923 INTER-LIGAND FREE ENERGY PREDICTED BY IDOCK:   -4.58 KCAL/MOL
REMARK 924 INTRA-LIGAND FREE ENERGY PREDICTED BY IDOCK:   -0.36 KCAL/MOL
REMARK 927      BINDING AFFINITY PREDICTED BY RF-SCORE:    0.00 PKD
ROOT
HETATM    1 CL   UNL     1     -10.077  10.691  62.805  1.00  0.00    -0.133 Cl 
HETATM    2  C   UNL     1     -10.963  11.569  64.000  1.00  0.00    -0.383 A  
HETATM    3  C   UNL     1     -12.011  12.381  63.551  1.00  0.00    -0.627 A  
HETATM    4  C   UNL     1     -12.781  13.108  64.458  1.00  0.00    -0.270 A  
HETATM    5  C   UNL     1     -12.521  13.007  65.822  1.00  0.00    -0.394 A  
HETATM    6  C   UNL     1     -11.473  12.205  66.272  1.00  0.00    -0.433 A  
HETATM    7  C   UNL     1     -10.657  11.496  65.368  1.00  0.00    -0.336 A  
ENDROOT
BRANCH   7   8
HETATM    8  C   UNL     1      -9.469  10.726  65.914  1.00  0.00    -0.197 C  
BRANCH   8   9
HETATM    9  N   UNL     1      -9.750   9.287  66.064  1.00  0.00    -0.275 NA 
HETATM   10  C   UNL     1     -10.229   8.944  67.428  1.00  0.00    -0.249 C  
HETATM   11  C   UNL     1     -10.753   7.490  67.505  1.00  0.00    -0.296 C  
HETATM   12  C   UNL     1      -9.864   6.582  66.716  1.00  0.00    -0.162 A  
HETATM   13  C   UNL     1      -8.864   7.033  65.880  1.00  0.00    -0.126 A  
HETATM   14  C   UNL     1      -8.224   5.943  65.216  1.00  0.00    -0.141 A  
HETATM   15  C   UNL     1      -8.543   8.496  65.740  1.00  0.00    -0.168 C  
HETATM   16  C   UNL     1      -8.777   4.728  65.562  1.00  0.00    -0.135 A  
HETATM   17  S   UNL     1     -10.046   4.896  66.701  1.00  0.00    -0.256 SA 
ENDBRANCH   8   9
ENDBRANCH   7   8
TORSDOF 2
ENDMDL
MODEL      101
REMARK 921   NORMALIZED FREE ENERGY PREDICTED BY IDOCK:   -4.06 KCAL/MOL
REMARK 922        TOTAL FREE ENERGY PREDICTED BY IDOCK:   -4.91 KCAL/MOL
REMARK 923 INTER-LIGAND FREE ENERGY PREDICTED BY IDOCK:   -5.13 KCAL/MOL
REMARK 924 INTRA-LIGAND FREE ENERGY PREDICTED BY IDOCK:    0.23 KCAL/MOL
REMARK 927      BINDING AFFINITY PREDICTED BY RF-SCORE:    0.00 PKD
ROOT
HETATM    1 CL   UNL     1      -8.040  14.239  68.732  1.00  0.00    -0.134 Cl 
HETATM    2  C   UNL     1      -8.682  13.209  67.500  1.00  0.00    -0.201 A  
HETATM    3  C   UNL     1      -7.884  12.137  67.085  1.00  0.00    -0.160 A  
HETATM    4  C   UNL     1      -8.341  11.254  66.106  1.00  0.00    -0.111 A  
HETATM    5  C   UNL     1      -9.607  11.427  65.556  1.00  0.00    -0.256 A  
HETATM    6  C   UNL     1     -10.401  12.499  65.962  1.00  0.00    -0.277 A  
HETATM    7  C   UNL     1      -9.941  13.425  66.919  1.00  0.00    -0.252 A  
ENDROOT
BRANCH   7   8
HETATM    8  C   UNL     1     -10.808  14.628  67.240  1.00  0.00    -0.305 C  
BRANCH   8   9
HETATM    9  N   UNL     1     -11.653  14.412  68.429  1.00  0.00    -0.301 NA 
HETATM   10  C   UNL     1     -11.575  15.541  69.391  1.00  0.00    -0.355 C  
HETATM   11  C   UNL     1     -12.641  15.423  70.506  1.00  0.00    -0.471 C  
HETATM   12  C   UNL     1     -12.764  13.999  70.949  1.00  0.00    -0.350 A  
HETATM   13  C   UNL     1     -12.163  12.944  70.295  1.00  0.00    -0.362 A  
HETATM   14  C   UNL     1     -12.506  11.702  70.910  1.00  0.00    -0.440 A  
HETATM   15  C   UNL     1     -11.272  13.150  69.101  1.00  0.00    -0.247 C  
HETATM   16  C   UNL     1     -13.360  11.870  71.980  1.00  0.00    -0.320 A  
HETATM   17  S   UNL     1     -13.727  13.520  72.260  1.00  0.00    -0.592 SA 
ENDBRANCH   8   9
ENDBRANCH   7   8
TORSDOF 2
ENDMDL
MODEL      102
REMARK 921   NORMALIZED FREE ENERGY PREDICTED BY IDOCK:   -4.06 KCAL/MOL
REMARK 922        TOTAL FREE ENERGY PREDICTED BY IDOCK:   -4.90 KCAL/MOL
REMARK 923 INTER-LIGAND FREE ENERGY PREDICTED BY IDOCK:   -4.65 KCAL/MOL
REMARK 924 INTRA-LIGAND FREE ENERGY PREDICTED BY IDOCK:   -0.25 KCAL/MOL
REMARK 927      BINDING AFFINITY PREDICTED BY RF-SCORE:    0.00 PKD
ROOT
HETATM    1 CL   UNL     1     -12.127  13.827  68.269  1.00  0.00    -0.378 Cl 
HETATM    2  C   UNL     1     -11.911  13.252  66.654  1.00  0.00    -0.395 A  
HETATM    3  C   UNL     1     -12.531  13.976  65.629  1.00  0.00    -0.531 A  
HETATM    4  C   UNL     1     -12.389  13.581  64.299  1.00  0.00    -0.392 A  
HETATM    5  C   UNL     1     -11.607  12.473  63.986  1.00  0.00    -0.485 A  
HETATM    6  C   UNL     1     -10.994  11.745  65.005  1.00  0.00    -0.357 A  
HETATM    7  C   UNL     1     -11.159  12.104  66.358  1.00  0.00    -0.358 A  
ENDROOT
BRANCH   7   8
HETATM    8  C   UNL     1     -10.555  11.210  67.425  1.00  0.00    -0.234 C  
BRANCH   8   9
HETATM    9  N   UNL     1     -10.188   9.880  66.904  1.00  0.00    -0.230 NA 
HETATM   10  C   UNL     1     -10.656   8.779  67.784  1.00  0.00    -0.191 C  
HETATM   11  C   UNL     1     -10.487   7.395  67.114  1.00  0.00    -0.403 C  
HETATM   12  C   UNL     1      -9.184   7.336  66.381  1.00  0.00    -0.159 A  
HETATM   13  C   UNL     1      -8.379   8.435  66.171  1.00  0.00    -0.127 A  
HETATM   14  C   UNL     1      -7.233   8.087  65.393  1.00  0.00    -0.064 A  
HETATM   15  C   UNL     1      -8.722   9.792  66.723  1.00  0.00    -0.131 C  
HETATM   16  C   UNL     1      -7.234   6.755  65.036  1.00  0.00    -0.074 A  
HETATM   17  S   UNL     1      -8.596   5.921  65.656  1.00  0.00    -0.145 SA 
ENDBRANCH   8   9
ENDBRANCH   7   8
TORSDOF 2
ENDMDL
MODEL      103
REMARK 921   NORMALIZED FREE ENERGY PREDICTED BY IDOCK:   -4.06 KCAL/MOL
REMARK 922        TOTAL FREE ENERGY PREDICTED BY IDOCK:   -4.90 KCAL/MOL
REMARK 923 INTER-LIGAND FREE ENERGY PREDICTED BY IDOCK:   -4.56 KCAL/MOL
REMARK 924 INTRA-LIGAND FREE ENERGY PREDICTED BY IDOCK:   -0.33 KCAL/MOL
REMARK 927      BINDING AFFINITY PREDICTED BY RF-SCORE:    0.00 PKD
ROOT
HETATM    1 CL   UNL     1      -9.115   9.816  64.959  1.00  0.00    -0.256 Cl 
HETATM    2  C   UNL     1     -10.066  10.695  66.104  1.00  0.00    -0.249 A  
HETATM    3  C   UNL     1     -10.263  12.058  65.859  1.00  0.00    -0.263 A  
HETATM    4  C   UNL     1     -11.032  12.829  66.731  1.00  0.00    -0.301 A  
HETATM    5  C   UNL     1     -11.626  12.234  67.839  1.00  0.00    -0.416 A  
HETATM    6  C   UNL     1     -11.425  10.877  68.090  1.00  0.00    -0.368 A  
HETATM    7  C   UNL     1     -10.618  10.091  67.245  1.00  0.00    -0.319 A  
ENDROOT
BRANCH   7   8
HETATM    8  C   UNL     1     -10.353   8.648  67.631  1.00  0.00    -0.254 C  
BRANCH   8   9
HETATM    9  N   UNL     1     -10.255   8.464  69.090  1.00  0.00    -0.207 NA 
HETATM   10  C   UNL     1      -8.886   8.728  69.603  1.00  0.00    -0.141 C  
HETATM   11  C   UNL     1      -8.850   8.775  71.149  1.00  0.00    -0.275 C  
HETATM   12  C   UNL     1      -9.725   7.701  71.715  1.00  0.00    -0.161 A  
HETATM   13  C   UNL     1     -10.588   6.942  70.954  1.00  0.00    -0.243 A  
HETATM   14  C   UNL     1     -11.333   6.041  71.773  1.00  0.00    -0.324 A  
HETATM   15  C   UNL     1     -10.676   7.095  69.460  1.00  0.00    -0.239 C  
HETATM   16  C   UNL     1     -11.017   6.171  73.109  1.00  0.00    -0.231 A  
HETATM   17  S   UNL     1      -9.809   7.357  73.374  1.00  0.00    -0.318 SA 
ENDBRANCH   8   9
ENDBRANCH   7   8
TORSDOF 2
ENDMDL
MODEL      104
REMARK 921   NORMALIZED FREE ENERGY PREDICTED BY IDOCK:   -4.05 KCAL/MOL
REMARK 922        TOTAL FREE ENERGY PREDICTED BY IDOCK:   -4.89 KCAL/MOL
REMARK 923 INTER-LIGAND FREE ENERGY PREDICTED BY IDOCK:   -4.51 KCAL/MOL
REMARK 924 INTRA-LIGAND FREE ENERGY PREDICTED BY IDOCK:   -0.38 KCAL/MOL
REMARK 927      BINDING AFFINITY PREDICTED BY RF-SCORE:    0.00 PKD
ROOT
HETATM    1 CL   UNL     1     -10.646  17.534  69.067  1.00  0.00    -0.244 Cl 
HETATM    2  C   UNL     1      -9.035  16.913  68.995  1.00  0.00    -0.167 A  
HETATM    3  C   UNL     1      -7.994  17.846  68.917  1.00  0.00    -0.175 A  
HETATM    4  C   UNL     1      -6.667  17.420  68.871  1.00  0.00    -0.226 A  
HETATM    5  C   UNL     1      -6.374  16.062  68.926  1.00  0.00    -0.129 A  
HETATM    6  C   UNL     1      -7.409  15.130  68.996  1.00  0.00    -0.155 A  
HETATM    7  C   UNL     1      -8.758  15.538  69.001  1.00  0.00    -0.235 A  
ENDROOT
BRANCH   7   8
HETATM    8  C   UNL     1      -9.838  14.472  68.971  1.00  0.00    -0.138 C  
BRANCH   8   9
HETATM    9  N   UNL     1     -10.275  14.151  67.601  1.00  0.00    -0.239 NA 
HETATM   10  C   UNL     1     -11.671  14.583  67.336  1.00  0.00    -0.400 C  
HETATM   11  C   UNL     1     -12.034  14.468  65.836  1.00  0.00    -0.315 C  
HETATM   12  C   UNL     1     -11.464  13.209  65.266  1.00  0.00    -0.301 A  
HETATM   13  C   UNL     1     -10.572  12.403  65.941  1.00  0.00    -0.289 A  
HETATM   14  C   UNL     1     -10.156  11.307  65.126  1.00  0.00    -0.326 A  
HETATM   15  C   UNL     1     -10.141  12.699  67.351  1.00  0.00    -0.218 C  
HETATM   16  C   UNL     1     -10.733  11.344  63.873  1.00  0.00    -0.397 A  
HETATM   17  S   UNL     1     -11.791  12.679  63.688  1.00  0.00    -0.560 SA 
ENDBRANCH   8   9
ENDBRANCH   7   8
TORSDOF 2
ENDMDL
MODEL      105
REMARK 921   NORMALIZED FREE ENERGY PREDICTED BY IDOCK:   -4.03 KCAL/MOL
REMARK 922        TOTAL FREE ENERGY PREDICTED BY IDOCK:   -4.87 KCAL/MOL
REMARK 923 INTER-LIGAND FREE ENERGY PREDICTED BY IDOCK:   -4.52 KCAL/MOL
REMARK 924 INTRA-LIGAND FREE ENERGY PREDICTED BY IDOCK:   -0.35 KCAL/MOL
REMARK 927      BINDING AFFINITY PREDICTED BY RF-SCORE:    0.00 PKD
ROOT
HETATM    1 CL   UNL     1      -6.728  17.559  69.396  1.00  0.00    -0.223 Cl 
HETATM    2  C   UNL     1      -7.902  18.423  68.467  1.00  0.00    -0.306 A  
HETATM    3  C   UNL     1      -7.455  19.542  67.755  1.00  0.00    -0.304 A  
HETATM    4  C   UNL     1      -8.342  20.280  66.971  1.00  0.00    -0.373 A  
HETATM    5  C   UNL     1      -9.673  19.889  66.877  1.00  0.00    -0.532 A  
HETATM    6  C   UNL     1     -10.123  18.779  67.592  1.00  0.00    -0.415 A  
HETATM    7  C   UNL     1      -9.253  18.045  68.422  1.00  0.00    -0.301 A  
ENDROOT
BRANCH   7   8
HETATM    8  C   UNL     1      -9.827  16.913  69.254  1.00  0.00    -0.152 C  
BRANCH   8   9
HETATM    9  N   UNL     1      -9.915  15.649  68.502  1.00  0.00    -0.208 NA 
HETATM   10  C   UNL     1     -11.205  14.947  68.726  1.00  0.00    -0.275 C  
HETATM   11  C   UNL     1     -11.390  13.759  67.751  1.00  0.00    -0.331 C  
HETATM   12  C   UNL     1     -10.097  13.026  67.585  1.00  0.00    -0.217 A  
HETATM   13  C   UNL     1      -8.891  13.490  68.068  1.00  0.00    -0.181 A  
HETATM   14  C   UNL     1      -7.826  12.610  67.707  1.00  0.00    -0.154 A  
HETATM   15  C   UNL     1      -8.789  14.761  68.865  1.00  0.00    -0.164 C  
HETATM   16  C   UNL     1      -8.267  11.540  66.958  1.00  0.00    -0.167 A  
HETATM   17  S   UNL     1      -9.962  11.580  66.710  1.00  0.00    -0.212 SA 
ENDBRANCH   8   9
ENDBRANCH   7   8
TORSDOF 2
ENDMDL
MODEL      106
REMARK 921   NORMALIZED FREE ENERGY PREDICTED BY IDOCK:   -4.02 KCAL/MOL
REMARK 922        TOTAL FREE ENERGY PREDICTED BY IDOCK:   -4.85 KCAL/MOL
REMARK 923 INTER-LIGAND FREE ENERGY PREDICTED BY IDOCK:   -4.53 KCAL/MOL
REMARK 924 INTRA-LIGAND FREE ENERGY PREDICTED BY IDOCK:   -0.32 KCAL/MOL
REMARK 927      BINDING AFFINITY PREDICTED BY RF-SCORE:    0.00 PKD
ROOT
HETATM    1 CL   UNL     1      -9.318  13.628  68.542  1.00  0.00    -0.170 Cl 
HETATM    2  C   UNL     1      -9.984  14.170  67.042  1.00  0.00    -0.260 A  
HETATM    3  C   UNL     1      -9.970  13.266  65.973  1.00  0.00    -0.297 A  
HETATM    4  C   UNL     1     -10.504  13.627  64.736  1.00  0.00    -0.436 A  
HETATM    5  C   UNL     1     -11.075  14.885  64.570  1.00  0.00    -0.249 A  
HETATM    6  C   UNL     1     -11.084  15.790  65.630  1.00  0.00    -0.155 A  
HETATM    7  C   UNL     1     -10.513  15.459  66.875  1.00  0.00    -0.295 A  
ENDROOT
BRANCH   7   8
HETATM    8  C   UNL     1     -10.459  16.524  67.955  1.00  0.00    -0.313 C  
BRANCH   8   9
HETATM    9  N   UNL     1      -9.169  17.237  67.980  1.00  0.00    -0.250 NA 
HETATM   10  C   UNL     1      -8.336  16.857  69.149  1.00  0.00    -0.056 C  
HETATM   11  C   UNL     1      -6.897  17.416  69.037  1.00  0.00    -0.244 C  
HETATM   12  C   UNL     1      -6.930  18.810  68.496  1.00  0.00    -0.265 A  
HETATM   13  C   UNL     1      -8.065  19.400  67.980  1.00  0.00    -0.345 A  
HETATM   14  C   UNL     1      -7.780  20.709  67.486  1.00  0.00    -0.319 A  
HETATM   15  C   UNL     1      -9.396  18.699  67.977  1.00  0.00    -0.312 C  
HETATM   16  C   UNL     1      -6.449  21.039  67.631  1.00  0.00    -0.358 A  
HETATM   17  S   UNL     1      -5.550  19.789  68.382  1.00  0.00    -0.206 SA 
ENDBRANCH   8   9
ENDBRANCH   7   8
TORSDOF 2
ENDMDL
MODEL      107
REMARK 921   NORMALIZED FREE ENERGY PREDICTED BY IDOCK:   -4.00 KCAL/MOL
REMARK 922        TOTAL FREE ENERGY PREDICTED BY IDOCK:   -4.83 KCAL/MOL
REMARK 923 INTER-LIGAND FREE ENERGY PREDICTED BY IDOCK:   -4.50 KCAL/MOL
REMARK 924 INTRA-LIGAND FREE ENERGY PREDICTED BY IDOCK:   -0.33 KCAL/MOL
REMARK 927      BINDING AFFINITY PREDICTED BY RF-SCORE:    0.00 PKD
ROOT
HETATM    1 CL   UNL     1      -8.111   8.924  70.622  1.00  0.00    -0.137 Cl 
HETATM    2  C   UNL     1      -9.024   7.952  71.720  1.00  0.00    -0.132 A  
HETATM    3  C   UNL     1      -8.306   7.208  72.664  1.00  0.00    -0.122 A  
HETATM    4  C   UNL     1      -8.975   6.412  73.593  1.00  0.00    -0.134 A  
HETATM    5  C   UNL     1     -10.366   6.374  73.598  1.00  0.00    -0.301 A  
HETATM    6  C   UNL     1     -11.084   7.107  72.654  1.00  0.00    -0.330 A  
HETATM    7  C   UNL     1     -10.426   7.885  71.681  1.00  0.00    -0.255 A  
ENDROOT
BRANCH   7   8
HETATM    8  C   UNL     1     -11.260   8.575  70.617  1.00  0.00    -0.252 C  
BRANCH   8   9
HETATM    9  N   UNL     1     -11.570   9.973  70.963  1.00  0.00    -0.372 NA 
HETATM   10  C   UNL     1     -12.853  10.102  71.701  1.00  0.00    -0.454 C  
HETATM   11  C   UNL     1     -13.048  11.527  72.272  1.00  0.00    -0.048 C  
HETATM   12  C   UNL     1     -12.591  12.545  71.276  1.00  0.00    -0.231 A  
HETATM   13  C   UNL     1     -11.904  12.228  70.123  1.00  0.00    -0.352 A  
HETATM   14  C   UNL     1     -11.549  13.406  69.400  1.00  0.00    -0.365 A  
HETATM   15  C   UNL     1     -11.608  10.804  69.739  1.00  0.00    -0.317 C  
HETATM   16  C   UNL     1     -11.963  14.554  70.043  1.00  0.00    -0.330 A  
HETATM   17  S   UNL     1     -12.798  14.213  71.500  1.00  0.00    -0.372 SA 
ENDBRANCH   8   9
ENDBRANCH   7   8
TORSDOF 2
ENDMDL
MODEL      108
REMARK 921   NORMALIZED FREE ENERGY PREDICTED BY IDOCK:   -4.00 KCAL/MOL
REMARK 922        TOTAL FREE ENERGY PREDICTED BY IDOCK:   -4.83 KCAL/MOL
REMARK 923 INTER-LIGAND FREE ENERGY PREDICTED BY IDOCK:   -4.52 KCAL/MOL
REMARK 924 INTRA-LIGAND FREE ENERGY PREDICTED BY IDOCK:   -0.31 KCAL/MOL
REMARK 927      BINDING AFFINITY PREDICTED BY RF-SCORE:    0.00 PKD
ROOT
HETATM    1 CL   UNL     1     -10.841  18.626  67.491  1.00  0.00    -0.444 Cl 
HETATM    2  C   UNL     1     -10.285  17.028  67.138  1.00  0.00    -0.306 A  
HETATM    3  C   UNL     1     -11.136  15.968  67.469  1.00  0.00    -0.207 A  
HETATM    4  C   UNL     1     -10.762  14.652  67.200  1.00  0.00    -0.292 A  
HETATM    5  C   UNL     1      -9.546  14.392  66.576  1.00  0.00    -0.310 A  
HETATM    6  C   UNL     1      -8.692  15.446  66.252  1.00  0.00    -0.240 A  
HETATM    7  C   UNL     1      -9.033  16.779  66.553  1.00  0.00    -0.304 A  
ENDROOT
BRANCH   7   8
HETATM    8  C   UNL     1      -8.016  17.870  66.271  1.00  0.00    -0.244 C  
BRANCH   8   9
HETATM    9  N   UNL     1      -7.503  18.493  67.504  1.00  0.00    -0.219 NA 
HETATM   10  C   UNL     1      -6.892  19.824  67.253  1.00  0.00    -0.210 C  
HETATM   11  C   UNL     1      -6.582  20.573  68.571  1.00  0.00    -0.269 C  
HETATM   12  C   UNL     1      -6.036  19.619  69.586  1.00  0.00    -0.304 A  
HETATM   13  C   UNL     1      -6.026  18.251  69.417  1.00  0.00    -0.247 A  
HETATM   14  C   UNL     1      -5.500  17.598  70.573  1.00  0.00    -0.242 A  
HETATM   15  C   UNL     1      -6.517  17.601  68.153  1.00  0.00    -0.177 C  
HETATM   16  C   UNL     1      -5.157  18.494  71.564  1.00  0.00    -0.188 A  
HETATM   17  S   UNL     1      -5.443  20.117  71.095  1.00  0.00    -0.319 SA 
ENDBRANCH   8   9
ENDBRANCH   7   8
TORSDOF 2
ENDMDL
MODEL      109
REMARK 921   NORMALIZED FREE ENERGY PREDICTED BY IDOCK:   -4.00 KCAL/MOL
REMARK 922        TOTAL FREE ENERGY PREDICTED BY IDOCK:   -4.83 KCAL/MOL
REMARK 923 INTER-LIGAND FREE ENERGY PREDICTED BY IDOCK:   -4.64 KCAL/MOL
REMARK 924 INTRA-LIGAND FREE ENERGY PREDICTED BY IDOCK:   -0.19 KCAL/MOL
REMARK 927      BINDING AFFINITY PREDICTED BY RF-SCORE:    0.00 PKD
ROOT
HETATM    1 CL   UNL     1      -6.869   6.104  66.168  1.00  0.00    -0.059 Cl 
HETATM    2  C   UNL     1      -8.494   6.301  66.721  1.00  0.00    -0.111 A  
HETATM    3  C   UNL     1      -9.050   5.250  67.459  1.00  0.00    -0.110 A  
HETATM    4  C   UNL     1     -10.351   5.344  67.952  1.00  0.00    -0.222 A  
HETATM    5  C   UNL     1     -11.094   6.498  67.728  1.00  0.00    -0.366 A  
HETATM    6  C   UNL     1     -10.546   7.544  66.986  1.00  0.00    -0.409 A  
HETATM    7  C   UNL     1      -9.248   7.452  66.445  1.00  0.00    -0.203 A  
ENDROOT
BRANCH   7   8
HETATM    8  C   UNL     1      -8.750   8.579  65.559  1.00  0.00    -0.174 C  
BRANCH   8   9
HETATM    9  N   UNL     1      -9.747   9.653  65.399  1.00  0.00    -0.310 NA 
HETATM   10  C   UNL     1      -9.702  10.271  64.050  1.00  0.00    -0.278 C  
HETATM   11  C   UNL     1     -10.902  11.217  63.809  1.00  0.00    -0.424 C  
HETATM   12  C   UNL     1     -11.184  12.011  65.045  1.00  0.00    -0.320 A  
HETATM   13  C   UNL     1     -10.588  11.761  66.263  1.00  0.00    -0.292 A  
HETATM   14  C   UNL     1     -11.095  12.639  67.269  1.00  0.00    -0.320 A  
HETATM   15  C   UNL     1      -9.546  10.691  66.435  1.00  0.00    -0.190 C  
HETATM   16  C   UNL     1     -12.057  13.494  66.774  1.00  0.00    -0.375 A  
HETATM   17  S   UNL     1     -12.332  13.258  65.100  1.00  0.00    -0.477 SA 
ENDBRANCH   8   9
ENDBRANCH   7   8
TORSDOF 2
ENDMDL
MODEL      110
REMARK 921   NORMALIZED FREE ENERGY PREDICTED BY IDOCK:   -3.97 KCAL/MOL
REMARK 922        TOTAL FREE ENERGY PREDICTED BY IDOCK:   -4.81 KCAL/MOL
REMARK 923 INTER-LIGAND FREE ENERGY PREDICTED BY IDOCK:   -4.47 KCAL/MOL
REMARK 924 INTRA-LIGAND FREE ENERGY PREDICTED BY IDOCK:   -0.33 KCAL/MOL
REMARK 927      BINDING AFFINITY PREDICTED BY RF-SCORE:    0.00 PKD
ROOT
HETATM    1 CL   UNL     1      -6.297  17.698  67.478  1.00  0.00    -0.169 Cl 
HETATM    2  C   UNL     1      -7.940  18.231  67.527  1.00  0.00    -0.231 A  
HETATM    3  C   UNL     1      -8.240  19.299  68.382  1.00  0.00    -0.383 A  
HETATM    4  C   UNL     1      -9.541  19.794  68.463  1.00  0.00    -0.434 A  
HETATM    5  C   UNL     1     -10.543  19.240  67.673  1.00  0.00    -0.553 A  
HETATM    6  C   UNL     1     -10.249  18.171  66.826  1.00  0.00    -0.379 A  
HETATM    7  C   UNL     1      -8.950  17.629  66.761  1.00  0.00    -0.272 A  
ENDROOT
BRANCH   7   8
HETATM    8  C   UNL     1      -8.719  16.401  65.900  1.00  0.00    -0.099 C  
BRANCH   8   9
HETATM    9  N   UNL     1      -8.947  15.146  66.638  1.00  0.00    -0.270 NA 
HETATM   10  C   UNL     1      -7.679  14.517  67.090  1.00  0.00    -0.062 C  
HETATM   11  C   UNL     1      -7.935  13.344  68.067  1.00  0.00    -0.148 C  
HETATM   12  C   UNL     1      -9.108  12.539  67.606  1.00  0.00    -0.187 A  
HETATM   13  C   UNL     1      -9.947  12.933  66.585  1.00  0.00    -0.251 A  
HETATM   14  C   UNL     1     -11.010  11.996  66.408  1.00  0.00    -0.337 A  
HETATM   15  C   UNL     1      -9.710  14.194  65.801  1.00  0.00    -0.217 C  
HETATM   16  C   UNL     1     -10.938  10.954  67.308  1.00  0.00    -0.294 A  
HETATM   17  S   UNL     1      -9.582  11.090  68.347  1.00  0.00    -0.187 SA 
ENDBRANCH   8   9
ENDBRANCH   7   8
TORSDOF 2
ENDMDL
MODEL      111
REMARK 921   NORMALIZED FREE ENERGY PREDICTED BY IDOCK:   -3.97 KCAL/MOL
REMARK 922        TOTAL FREE ENERGY PREDICTED BY IDOCK:   -4.80 KCAL/MOL
REMARK 923 INTER-LIGAND FREE ENERGY PREDICTED BY IDOCK:   -4.88 KCAL/MOL
REMARK 924 INTRA-LIGAND FREE ENERGY PREDICTED BY IDOCK:    0.09 KCAL/MOL
REMARK 927      BINDING AFFINITY PREDICTED BY RF-SCORE:    0.00 PKD
ROOT
HETATM    1 CL   UNL     1     -10.427  17.691  69.185  1.00  0.00    -0.256 Cl 
HETATM    2  C   UNL     1      -9.081  17.855  68.114  1.00  0.00    -0.278 A  
HETATM    3  C   UNL     1      -7.919  18.438  68.632  1.00  0.00    -0.317 A  
HETATM    4  C   UNL     1      -6.787  18.590  67.831  1.00  0.00    -0.224 A  
HETATM    5  C   UNL     1      -6.805  18.139  66.516  1.00  0.00    -0.255 A  
HETATM    6  C   UNL     1      -7.964  17.564  65.994  1.00  0.00    -0.192 A  
HETATM    7  C   UNL     1      -9.130  17.440  66.774  1.00  0.00    -0.276 A  
ENDROOT
BRANCH   7   8
HETATM    8  C   UNL     1     -10.389  16.904  66.117  1.00  0.00    -0.320 C  
BRANCH   8   9
HETATM    9  N   UNL     1     -10.439  15.431  66.113  1.00  0.00    -0.303 NA 
HETATM   10  C   UNL     1      -9.351  14.825  66.923  1.00  0.00    -0.240 C  
HETATM   11  C   UNL     1      -9.555  13.304  67.115  1.00  0.00    -0.240 C  
HETATM   12  C   UNL     1     -10.045  12.687  65.844  1.00  0.00    -0.264 A  
HETATM   13  C   UNL     1     -10.452  13.421  64.749  1.00  0.00    -0.419 A  
HETATM   14  C   UNL     1     -10.923  12.565  63.707  1.00  0.00    -0.496 A  
HETATM   15  C   UNL     1     -10.376  14.923  64.725  1.00  0.00    -0.198 C  
HETATM   16  C   UNL     1     -10.870  11.235  64.065  1.00  0.00    -0.344 A  
HETATM   17  S   UNL     1     -10.232  11.014  65.641  1.00  0.00    -0.262 SA 
ENDBRANCH   8   9
ENDBRANCH   7   8
TORSDOF 2
ENDMDL
MODEL      112
REMARK 921   NORMALIZED FREE ENERGY PREDICTED BY IDOCK:   -3.96 KCAL/MOL
REMARK 922        TOTAL FREE ENERGY PREDICTED BY IDOCK:   -4.79 KCAL/MOL
REMARK 923 INTER-LIGAND FREE ENERGY PREDICTED BY IDOCK:   -4.63 KCAL/MOL
REMARK 924 INTRA-LIGAND FREE ENERGY PREDICTED BY IDOCK:   -0.16 KCAL/MOL
REMARK 927      BINDING AFFINITY PREDICTED BY RF-SCORE:    0.00 PKD
ROOT
HETATM    1 CL   UNL     1      -9.810  13.631  66.854  1.00  0.00    -0.254 Cl 
HETATM    2  C   UNL     1     -10.710  13.472  68.321  1.00  0.00    -0.258 A  
HETATM    3  C   UNL     1     -10.886  14.627  69.092  1.00  0.00    -0.269 A  
HETATM    4  C   UNL     1     -11.613  14.579  70.280  1.00  0.00    -0.328 A  
HETATM    5  C   UNL     1     -12.189  13.381  70.692  1.00  0.00    -0.427 A  
HETATM    6  C   UNL     1     -12.009  12.227  69.930  1.00  0.00    -0.377 A  
HETATM    7  C   UNL     1     -11.243  12.245  68.748  1.00  0.00    -0.312 A  
ENDROOT
BRANCH   7   8
HETATM    8  C   UNL     1     -10.997  10.936  68.022  1.00  0.00    -0.265 C  
BRANCH   8   9
HETATM    9  N   UNL     1     -10.763   9.814  68.948  1.00  0.00    -0.220 NA 
HETATM   10  C   UNL     1      -9.563  10.023  69.799  1.00  0.00    -0.216 C  
HETATM   11  C   UNL     1      -9.466   8.969  70.928  1.00  0.00    -0.331 C  
HETATM   12  C   UNL     1      -9.853   7.621  70.405  1.00  0.00    -0.183 A  
HETATM   13  C   UNL     1     -10.413   7.419  69.161  1.00  0.00    -0.217 A  
HETATM   14  C   UNL     1     -10.730   6.041  68.963  1.00  0.00    -0.393 A  
HETATM   15  C   UNL     1     -10.629   8.549  68.192  1.00  0.00    -0.124 C  
HETATM   16  C   UNL     1     -10.416   5.272  70.063  1.00  0.00    -0.281 A  
HETATM   17  S   UNL     1      -9.718   6.202  71.323  1.00  0.00    -0.176 SA 
ENDBRANCH   8   9
ENDBRANCH   7   8
TORSDOF 2
ENDMDL
MODEL      113
REMARK 921   NORMALIZED FREE ENERGY PREDICTED BY IDOCK:   -3.95 KCAL/MOL
REMARK 922        TOTAL FREE ENERGY PREDICTED BY IDOCK:   -4.78 KCAL/MOL
REMARK 923 INTER-LIGAND FREE ENERGY PREDICTED BY IDOCK:   -4.48 KCAL/MOL
REMARK 924 INTRA-LIGAND FREE ENERGY PREDICTED BY IDOCK:   -0.30 KCAL/MOL
REMARK 927      BINDING AFFINITY PREDICTED BY RF-SCORE:    0.00 PKD
ROOT
HETATM    1 CL   UNL     1     -11.148  16.352  69.900  1.00  0.00    -0.347 Cl 
HETATM    2  C   UNL     1     -10.986  16.241  68.183  1.00  0.00    -0.343 A  
HETATM    3  C   UNL     1     -10.527  17.380  67.510  1.00  0.00    -0.354 A  
HETATM    4  C   UNL     1     -10.357  17.361  66.126  1.00  0.00    -0.329 A  
HETATM    5  C   UNL     1     -10.622  16.197  65.412  1.00  0.00    -0.399 A  
HETATM    6  C   UNL     1     -11.086  15.064  66.078  1.00  0.00    -0.329 A  
HETATM    7  C   UNL     1     -11.305  15.075  67.470  1.00  0.00    -0.340 A  
ENDROOT
BRANCH   7   8
HETATM    8  C   UNL     1     -11.911  13.845  68.120  1.00  0.00    -0.372 C  
BRANCH   8   9
HETATM    9  N   UNL     1     -11.118  12.628  67.870  1.00  0.00    -0.234 NA 
HETATM   10  C   UNL     1     -11.739  11.416  68.465  1.00  0.00    -0.318 C  
HETATM   11  C   UNL     1     -11.039  10.120  67.993  1.00  0.00    -0.302 C  
HETATM   12  C   UNL     1      -9.558  10.323  67.952  1.00  0.00    -0.145 A  
HETATM   13  C   UNL     1      -8.953  11.552  68.107  1.00  0.00    -0.172 A  
HETATM   14  C   UNL     1      -7.537  11.446  67.961  1.00  0.00    -0.110 A  
HETATM   15  C   UNL     1      -9.745  12.798  68.394  1.00  0.00    -0.186 C  
HETATM   16  C   UNL     1      -7.138  10.155  67.685  1.00  0.00    -0.086 A  
HETATM   17  S   UNL     1      -8.463   9.069  67.627  1.00  0.00    -0.116 SA 
ENDBRANCH   8   9
ENDBRANCH   7   8
TORSDOF 2
ENDMDL
MODEL      114
REMARK 921   NORMALIZED FREE ENERGY PREDICTED BY IDOCK:   -3.95 KCAL/MOL
REMARK 922        TOTAL FREE ENERGY PREDICTED BY IDOCK:   -4.78 KCAL/MOL
REMARK 923 INTER-LIGAND FREE ENERGY PREDICTED BY IDOCK:   -4.60 KCAL/MOL
REMARK 924 INTRA-LIGAND FREE ENERGY PREDICTED BY IDOCK:   -0.18 KCAL/MOL
REMARK 927      BINDING AFFINITY PREDICTED BY RF-SCORE:    0.00 PKD
ROOT
HETATM    1 CL   UNL     1     -12.614  12.551  65.173  1.00  0.00    -0.481 Cl 
HETATM    2  C   UNL     1     -11.799  13.957  65.761  1.00  0.00    -0.378 A  
HETATM    3  C   UNL     1     -11.256  14.826  64.807  1.00  0.00    -0.392 A  
HETATM    4  C   UNL     1     -10.596  15.988  65.205  1.00  0.00    -0.424 A  
HETATM    5  C   UNL     1     -10.498  16.299  66.558  1.00  0.00    -0.290 A  
HETATM    6  C   UNL     1     -11.031  15.432  67.511  1.00  0.00    -0.315 A  
HETATM    7  C   UNL     1     -11.664  14.232  67.130  1.00  0.00    -0.430 A  
ENDROOT
BRANCH   7   8
HETATM    8  C   UNL     1     -12.128  13.280  68.218  1.00  0.00    -0.211 C  
BRANCH   8   9
HETATM    9  N   UNL     1     -11.308  12.058  68.284  1.00  0.00    -0.262 NA 
HETATM   10  C   UNL     1     -11.720  11.159  69.393  1.00  0.00    -0.332 C  
HETATM   11  C   UNL     1     -11.026   9.780  69.305  1.00  0.00    -0.222 C  
HETATM   12  C   UNL     1      -9.596   9.950  68.902  1.00  0.00    -0.172 A  
HETATM   13  C   UNL     1      -9.064  11.147  68.471  1.00  0.00    -0.175 A  
HETATM   14  C   UNL     1      -7.694  10.993  68.100  1.00  0.00    -0.105 A  
HETATM   15  C   UNL     1      -9.879  12.411  68.428  1.00  0.00    -0.198 C  
HETATM   16  C   UNL     1      -7.260   9.692  68.247  1.00  0.00    -0.079 A  
HETATM   17  S   UNL     1      -8.490   8.665  68.854  1.00  0.00    -0.130 SA 
ENDBRANCH   8   9
ENDBRANCH   7   8
TORSDOF 2
ENDMDL
MODEL      115
REMARK 921   NORMALIZED FREE ENERGY PREDICTED BY IDOCK:   -3.92 KCAL/MOL
REMARK 922        TOTAL FREE ENERGY PREDICTED BY IDOCK:   -4.75 KCAL/MOL
REMARK 923 INTER-LIGAND FREE ENERGY PREDICTED BY IDOCK:   -4.71 KCAL/MOL
REMARK 924 INTRA-LIGAND FREE ENERGY PREDICTED BY IDOCK:   -0.05 KCAL/MOL
REMARK 927      BINDING AFFINITY PREDICTED BY RF-SCORE:    0.00 PKD
ROOT
HETATM    1 CL   UNL     1     -12.318  14.316  69.425  1.00  0.00    -0.307 Cl 
HETATM    2  C   UNL     1     -11.783  12.676  69.313  1.00  0.00    -0.322 A  
HETATM    3  C   UNL     1     -11.968  11.866  70.439  1.00  0.00    -0.400 A  
HETATM    4  C   UNL     1     -11.575  10.528  70.418  1.00  0.00    -0.430 A  
HETATM    5  C   UNL     1     -11.018   9.988  69.263  1.00  0.00    -0.264 A  
HETATM    6  C   UNL     1     -10.826  10.795  68.142  1.00  0.00    -0.284 A  
HETATM    7  C   UNL     1     -11.177  12.160  68.157  1.00  0.00    -0.320 A  
ENDROOT
BRANCH   7   8
HETATM    8  C   UNL     1     -10.845  13.008  66.944  1.00  0.00    -0.264 C  
BRANCH   8   9
HETATM    9  N   UNL     1     -10.363  14.352  67.310  1.00  0.00    -0.259 NA 
HETATM   10  C   UNL     1     -10.658  15.364  66.264  1.00  0.00    -0.308 C  
HETATM   11  C   UNL     1     -10.374  16.802  66.758  1.00  0.00    -0.293 C  
HETATM   12  C   UNL     1      -9.115  16.828  67.565  1.00  0.00    -0.210 A  
HETATM   13  C   UNL     1      -8.448  15.691  67.972  1.00  0.00    -0.146 A  
HETATM   14  C   UNL     1      -7.315  16.024  68.775  1.00  0.00    -0.165 A  
HETATM   15  C   UNL     1      -8.908  14.315  67.579  1.00  0.00    -0.199 C  
HETATM   16  C   UNL     1      -7.189  17.386  68.954  1.00  0.00    -0.250 A  
HETATM   17  S   UNL     1      -8.414  18.262  68.138  1.00  0.00    -0.283 SA 
ENDBRANCH   8   9
ENDBRANCH   7   8
TORSDOF 2
ENDMDL
MODEL      116
REMARK 921   NORMALIZED FREE ENERGY PREDICTED BY IDOCK:   -3.92 KCAL/MOL
REMARK 922        TOTAL FREE ENERGY PREDICTED BY IDOCK:   -4.75 KCAL/MOL
REMARK 923 INTER-LIGAND FREE ENERGY PREDICTED BY IDOCK:   -4.46 KCAL/MOL
REMARK 924 INTRA-LIGAND FREE ENERGY PREDICTED BY IDOCK:   -0.29 KCAL/MOL
REMARK 927      BINDING AFFINITY PREDICTED BY RF-SCORE:    0.00 PKD
ROOT
HETATM    1 CL   UNL     1     -10.865   7.369  73.202  1.00  0.00    -0.421 Cl 
HETATM    2  C   UNL     1     -11.594   8.585  72.214  1.00  0.00    -0.374 A  
HETATM    3  C   UNL     1     -12.874   9.020  72.577  1.00  0.00    -0.408 A  
HETATM    4  C   UNL     1     -13.521  10.009  71.836  1.00  0.00    -0.449 A  
HETATM    5  C   UNL     1     -12.880  10.584  70.743  1.00  0.00    -0.454 A  
HETATM    6  C   UNL     1     -11.608  10.148  70.375  1.00  0.00    -0.396 A  
HETATM    7  C   UNL     1     -10.955   9.121  71.085  1.00  0.00    -0.390 A  
ENDROOT
BRANCH   7   8
HETATM    8  C   UNL     1      -9.619   8.619  70.571  1.00  0.00    -0.181 C  
BRANCH   8   9
HETATM    9  N   UNL     1      -9.756   7.802  69.351  1.00  0.00    -0.167 NA 
HETATM   10  C   UNL     1     -10.529   6.556  69.588  1.00  0.00    -0.216 C  
HETATM   11  C   UNL     1     -10.877   5.834  68.265  1.00  0.00    -0.249 C  
HETATM   12  C   UNL     1      -9.711   5.888  67.330  1.00  0.00    -0.127 A  
HETATM   13  C   UNL     1      -8.589   6.657  67.555  1.00  0.00    -0.120 A  
HETATM   14  C   UNL     1      -7.672   6.553  66.466  1.00  0.00    -0.099 A  
HETATM   15  C   UNL     1      -8.420   7.470  68.809  1.00  0.00    -0.129 C  
HETATM   16  C   UNL     1      -8.146   5.732  65.465  1.00  0.00    -0.128 A  
HETATM   17  S   UNL     1      -9.679   5.068  65.845  1.00  0.00    -0.149 SA 
ENDBRANCH   8   9
ENDBRANCH   7   8
TORSDOF 2
ENDMDL
MODEL      117
REMARK 921   NORMALIZED FREE ENERGY PREDICTED BY IDOCK:   -3.90 KCAL/MOL
REMARK 922        TOTAL FREE ENERGY PREDICTED BY IDOCK:   -4.72 KCAL/MOL
REMARK 923 INTER-LIGAND FREE ENERGY PREDICTED BY IDOCK:   -4.63 KCAL/MOL
REMARK 924 INTRA-LIGAND FREE ENERGY PREDICTED BY IDOCK:   -0.10 KCAL/MOL
REMARK 927      BINDING AFFINITY PREDICTED BY RF-SCORE:    0.00 PKD
ROOT
HETATM    1 CL   UNL     1     -11.842  10.725  69.246  1.00  0.00    -0.367 Cl 
HETATM    2  C   UNL     1     -11.123  10.764  67.675  1.00  0.00    -0.319 A  
HETATM    3  C   UNL     1     -11.191  11.972  66.971  1.00  0.00    -0.377 A  
HETATM    4  C   UNL     1     -10.620  12.084  65.704  1.00  0.00    -0.303 A  
HETATM    5  C   UNL     1      -9.958  10.996  65.144  1.00  0.00    -0.333 A  
HETATM    6  C   UNL     1      -9.895   9.789  65.839  1.00  0.00    -0.352 A  
HETATM    7  C   UNL     1     -10.502   9.643  67.103  1.00  0.00    -0.317 A  
ENDROOT
BRANCH   7   8
HETATM    8  C   UNL     1     -10.490   8.275  67.760  1.00  0.00    -0.215 C  
BRANCH   8   9
HETATM    9  N   UNL     1     -10.098   8.335  69.179  1.00  0.00    -0.197 NA 
HETATM   10  C   UNL     1      -8.624   8.304  69.361  1.00  0.00    -0.134 C  
HETATM   11  C   UNL     1      -8.217   8.614  70.821  1.00  0.00    -0.158 C  
HETATM   12  C   UNL     1      -9.156   7.938  71.769  1.00  0.00    -0.147 A  
HETATM   13  C   UNL     1     -10.322   7.319  71.374  1.00  0.00    -0.212 A  
HETATM   14  C   UNL     1     -11.040   6.815  72.501  1.00  0.00    -0.299 A  
HETATM   15  C   UNL     1     -10.721   7.220  69.927  1.00  0.00    -0.242 C  
HETATM   16  C   UNL     1     -10.399   7.091  73.690  1.00  0.00    -0.373 A  
HETATM   17  S   UNL     1      -8.925   7.931  73.450  1.00  0.00    -0.282 SA 
ENDBRANCH   8   9
ENDBRANCH   7   8
TORSDOF 2
ENDMDL
MODEL      118
REMARK 921   NORMALIZED FREE ENERGY PREDICTED BY IDOCK:   -3.88 KCAL/MOL
REMARK 922        TOTAL FREE ENERGY PREDICTED BY IDOCK:   -4.71 KCAL/MOL
REMARK 923 INTER-LIGAND FREE ENERGY PREDICTED BY IDOCK:   -4.54 KCAL/MOL
REMARK 924 INTRA-LIGAND FREE ENERGY PREDICTED BY IDOCK:   -0.17 KCAL/MOL
REMARK 927      BINDING AFFINITY PREDICTED BY RF-SCORE:    0.00 PKD
ROOT
HETATM    1 CL   UNL     1      -8.234   9.460  70.600  1.00  0.00    -0.218 Cl 
HETATM    2  C   UNL     1      -8.806   8.886  69.073  1.00  0.00    -0.136 A  
HETATM    3  C   UNL     1      -7.850   8.394  68.177  1.00  0.00    -0.111 A  
HETATM    4  C   UNL     1      -8.238   7.899  66.932  1.00  0.00    -0.116 A  
HETATM    5  C   UNL     1      -9.586   7.873  66.587  1.00  0.00    -0.293 A  
HETATM    6  C   UNL     1     -10.540   8.369  67.476  1.00  0.00    -0.285 A  
HETATM    7  C   UNL     1     -10.164   8.911  68.721  1.00  0.00    -0.224 A  
ENDROOT
BRANCH   7   8
HETATM    8  C   UNL     1     -11.238   9.531  69.596  1.00  0.00    -0.108 C  
BRANCH   8   9
HETATM    9  N   UNL     1     -11.255  11.002  69.510  1.00  0.00    -0.258 NA 
HETATM   10  C   UNL     1     -12.218  11.614  70.461  1.00  0.00    -0.361 C  
HETATM   11  C   UNL     1     -12.053  13.150  70.539  1.00  0.00    -0.385 C  
HETATM   12  C   UNL     1     -11.811  13.710  69.174  1.00  0.00    -0.348 A  
HETATM   13  C   UNL     1     -11.561  12.930  68.064  1.00  0.00    -0.385 A  
HETATM   14  C   UNL     1     -11.310  13.741  66.916  1.00  0.00    -0.345 A  
HETATM   15  C   UNL     1     -11.572  11.427  68.128  1.00  0.00    -0.294 C  
HETATM   16  C   UNL     1     -11.361  15.087  67.211  1.00  0.00    -0.332 A  
HETATM   17  S   UNL     1     -11.735  15.374  68.858  1.00  0.00    -0.342 SA 
ENDBRANCH   8   9
ENDBRANCH   7   8
TORSDOF 2
ENDMDL
MODEL      119
REMARK 921   NORMALIZED FREE ENERGY PREDICTED BY IDOCK:   -3.88 KCAL/MOL
REMARK 922        TOTAL FREE ENERGY PREDICTED BY IDOCK:   -4.70 KCAL/MOL
REMARK 923 INTER-LIGAND FREE ENERGY PREDICTED BY IDOCK:   -4.86 KCAL/MOL
REMARK 924 INTRA-LIGAND FREE ENERGY PREDICTED BY IDOCK:    0.16 KCAL/MOL
REMARK 927      BINDING AFFINITY PREDICTED BY RF-SCORE:    0.00 PKD
ROOT
HETATM    1 CL   UNL     1     -12.317  14.910  69.725  1.00  0.00    -0.313 Cl 
HETATM    2  C   UNL     1     -11.493  15.412  68.291  1.00  0.00    -0.353 A  
HETATM    3  C   UNL     1     -10.804  16.628  68.343  1.00  0.00    -0.361 A  
HETATM    4  C   UNL     1     -10.103  17.091  67.230  1.00  0.00    -0.295 A  
HETATM    5  C   UNL     1     -10.069  16.327  66.067  1.00  0.00    -0.377 A  
HETATM    6  C   UNL     1     -10.762  15.118  66.009  1.00  0.00    -0.333 A  
HETATM    7  C   UNL     1     -11.510  14.654  67.110  1.00  0.00    -0.380 A  
ENDROOT
BRANCH   7   8
HETATM    8  C   UNL     1     -12.326  13.385  66.948  1.00  0.00    -0.207 C  
BRANCH   8   9
HETATM    9  N   UNL     1     -11.536  12.169  67.211  1.00  0.00    -0.440 NA 
HETATM   10  C   UNL     1     -10.648  12.316  68.392  1.00  0.00    -0.235 C  
HETATM   11  C   UNL     1     -10.013  10.967  68.806  1.00  0.00    -0.215 C  
HETATM   12  C   UNL     1      -9.607  10.197  67.590  1.00  0.00    -0.148 A  
HETATM   13  C   UNL     1      -9.956  10.562  66.306  1.00  0.00    -0.276 A  
HETATM   14  C   UNL     1      -9.479   9.607  65.357  1.00  0.00    -0.343 A  
HETATM   15  C   UNL     1     -10.734  11.816  66.019  1.00  0.00    -0.279 C  
HETATM   16  C   UNL     1      -8.813   8.562  65.962  1.00  0.00    -0.173 A  
HETATM   17  S   UNL     1      -8.740   8.741  67.665  1.00  0.00    -0.135 SA 
ENDBRANCH   8   9
ENDBRANCH   7   8
TORSDOF 2
ENDMDL
MODEL      120
REMARK 921   NORMALIZED FREE ENERGY PREDICTED BY IDOCK:   -3.87 KCAL/MOL
REMARK 922        TOTAL FREE ENERGY PREDICTED BY IDOCK:   -4.70 KCAL/MOL
REMARK 923 INTER-LIGAND FREE ENERGY PREDICTED BY IDOCK:   -4.35 KCAL/MOL
REMARK 924 INTRA-LIGAND FREE ENERGY PREDICTED BY IDOCK:   -0.35 KCAL/MOL
REMARK 927      BINDING AFFINITY PREDICTED BY RF-SCORE:    0.00 PKD
ROOT
HETATM    1 CL   UNL     1     -10.463   8.506  66.680  1.00  0.00    -0.321 Cl 
HETATM    2  C   UNL     1      -9.221   8.782  67.850  1.00  0.00    -0.139 A  
HETATM    3  C   UNL     1      -8.154   7.877  67.875  1.00  0.00    -0.129 A  
HETATM    4  C   UNL     1      -7.107   8.045  68.781  1.00  0.00    -0.071 A  
HETATM    5  C   UNL     1      -7.112   9.131  69.650  1.00  0.00    -0.059 A  
HETATM    6  C   UNL     1      -8.177  10.030  69.633  1.00  0.00    -0.185 A  
HETATM    7  C   UNL     1      -9.264   9.855  68.753  1.00  0.00    -0.147 A  
ENDROOT
BRANCH   7   8
HETATM    8  C   UNL     1     -10.442  10.807  68.857  1.00  0.00    -0.205 C  
BRANCH   8   9
HETATM    9  N   UNL     1     -10.394  11.875  67.842  1.00  0.00    -0.193 NA 
HETATM   10  C   UNL     1      -9.674  13.081  68.323  1.00  0.00    -0.221 C  
HETATM   11  C   UNL     1      -9.415  14.091  67.180  1.00  0.00    -0.241 C  
HETATM   12  C   UNL     1     -10.614  14.176  66.289  1.00  0.00    -0.284 A  
HETATM   13  C   UNL     1     -11.687  13.313  66.373  1.00  0.00    -0.418 A  
HETATM   14  C   UNL     1     -12.651  13.599  65.359  1.00  0.00    -0.533 A  
HETATM   15  C   UNL     1     -11.766  12.240  67.423  1.00  0.00    -0.335 C  
HETATM   16  C   UNL     1     -12.258  14.643  64.548  1.00  0.00    -0.456 A  
HETATM   17  S   UNL     1     -10.745  15.294  65.021  1.00  0.00    -0.412 SA 
ENDBRANCH   8   9
ENDBRANCH   7   8
TORSDOF 2
ENDMDL
MODEL      121
REMARK 921   NORMALIZED FREE ENERGY PREDICTED BY IDOCK:   -3.87 KCAL/MOL
REMARK 922        TOTAL FREE ENERGY PREDICTED BY IDOCK:   -4.69 KCAL/MOL
REMARK 923 INTER-LIGAND FREE ENERGY PREDICTED BY IDOCK:   -4.90 KCAL/MOL
REMARK 924 INTRA-LIGAND FREE ENERGY PREDICTED BY IDOCK:    0.21 KCAL/MOL
REMARK 927      BINDING AFFINITY PREDICTED BY RF-SCORE:    0.00 PKD
ROOT
HETATM    1 CL   UNL     1      -8.031  14.915  69.166  1.00  0.00    -0.170 Cl 
HETATM    2  C   UNL     1      -8.948  16.128  68.346  1.00  0.00    -0.196 A  
HETATM    3  C   UNL     1      -8.380  16.691  67.197  1.00  0.00    -0.202 A  
HETATM    4  C   UNL     1      -9.067  17.665  66.473  1.00  0.00    -0.284 A  
HETATM    5  C   UNL     1     -10.336  18.063  66.882  1.00  0.00    -0.377 A  
HETATM    6  C   UNL     1     -10.902  17.510  68.030  1.00  0.00    -0.260 A  
HETATM    7  C   UNL     1     -10.206  16.555  68.798  1.00  0.00    -0.267 A  
ENDROOT
BRANCH   7   8
HETATM    8  C   UNL     1     -10.831  16.071  70.093  1.00  0.00    -0.346 C  
BRANCH   8   9
HETATM    9  N   UNL     1     -11.091  14.620  70.085  1.00  0.00    -0.184 NA 
HETATM   10  C   UNL     1     -11.316  14.093  68.715  1.00  0.00    -0.278 C  
HETATM   11  C   UNL     1     -11.341  12.546  68.690  1.00  0.00    -0.329 C  
HETATM   12  C   UNL     1     -12.083  12.026  69.881  1.00  0.00    -0.263 A  
HETATM   13  C   UNL     1     -12.484  12.820  70.934  1.00  0.00    -0.373 A  
HETATM   14  C   UNL     1     -13.116  12.040  71.950  1.00  0.00    -0.475 A  
HETATM   15  C   UNL     1     -12.256  14.307  70.943  1.00  0.00    -0.355 C  
HETATM   16  C   UNL     1     -13.147  10.699  71.630  1.00  0.00    -0.450 A  
HETATM   17  S   UNL     1     -12.441  10.383  70.101  1.00  0.00    -0.095 SA 
ENDBRANCH   8   9
ENDBRANCH   7   8
TORSDOF 2
ENDMDL
MODEL      122
REMARK 921   NORMALIZED FREE ENERGY PREDICTED BY IDOCK:   -3.84 KCAL/MOL
REMARK 922        TOTAL FREE ENERGY PREDICTED BY IDOCK:   -4.66 KCAL/MOL
REMARK 923 INTER-LIGAND FREE ENERGY PREDICTED BY IDOCK:   -4.87 KCAL/MOL
REMARK 924 INTRA-LIGAND FREE ENERGY PREDICTED BY IDOCK:    0.22 KCAL/MOL
REMARK 927      BINDING AFFINITY PREDICTED BY RF-SCORE:    0.00 PKD
ROOT
HETATM    1 CL   UNL     1     -11.311  16.264  70.377  1.00  0.00    -0.368 Cl 
HETATM    2  C   UNL     1     -10.809  15.643  68.844  1.00  0.00    -0.252 A  
HETATM    3  C   UNL     1     -10.515  14.277  68.773  1.00  0.00    -0.249 A  
HETATM    4  C   UNL     1     -10.119  13.701  67.566  1.00  0.00    -0.237 A  
HETATM    5  C   UNL     1     -10.038  14.485  66.419  1.00  0.00    -0.293 A  
HETATM    6  C   UNL     1     -10.323  15.849  66.488  1.00  0.00    -0.304 A  
HETATM    7  C   UNL     1     -10.685  16.457  67.707  1.00  0.00    -0.328 A  
ENDROOT
BRANCH   7   8
HETATM    8  C   UNL     1     -10.879  17.961  67.737  1.00  0.00    -0.223 C  
BRANCH   8   9
HETATM    9  N   UNL     1      -9.631  18.684  68.044  1.00  0.00    -0.304 NA 
HETATM   10  C   UNL     1      -9.230  19.609  66.953  1.00  0.00    -0.350 C  
HETATM   11  C   UNL     1      -8.069  20.536  67.382  1.00  0.00    -0.345 C  
HETATM   12  C   UNL     1      -7.070  19.768  68.188  1.00  0.00    -0.292 A  
HETATM   13  C   UNL     1      -7.287  18.486  68.647  1.00  0.00    -0.313 A  
HETATM   14  C   UNL     1      -6.186  18.033  69.436  1.00  0.00    -0.250 A  
HETATM   15  C   UNL     1      -8.540  17.723  68.316  1.00  0.00    -0.277 C  
HETATM   16  C   UNL     1      -5.203  18.993  69.554  1.00  0.00    -0.188 A  
HETATM   17  S   UNL     1      -5.592  20.425  68.697  1.00  0.00    -0.301 SA 
ENDBRANCH   8   9
ENDBRANCH   7   8
TORSDOF 2
ENDMDL
MODEL      123
REMARK 921   NORMALIZED FREE ENERGY PREDICTED BY IDOCK:   -3.82 KCAL/MOL
REMARK 922        TOTAL FREE ENERGY PREDICTED BY IDOCK:   -4.64 KCAL/MOL
REMARK 923 INTER-LIGAND FREE ENERGY PREDICTED BY IDOCK:   -4.25 KCAL/MOL
REMARK 924 INTRA-LIGAND FREE ENERGY PREDICTED BY IDOCK:   -0.39 KCAL/MOL
REMARK 927      BINDING AFFINITY PREDICTED BY RF-SCORE:    0.00 PKD
ROOT
HETATM    1 CL   UNL     1      -7.313  19.213  65.862  1.00  0.00    -0.292 Cl 
HETATM    2  C   UNL     1      -6.768  19.103  67.498  1.00  0.00    -0.199 A  
HETATM    3  C   UNL     1      -6.564  20.305  68.186  1.00  0.00    -0.336 A  
HETATM    4  C   UNL     1      -6.140  20.295  69.514  1.00  0.00    -0.373 A  
HETATM    5  C   UNL     1      -5.939  19.084  70.168  1.00  0.00    -0.225 A  
HETATM    6  C   UNL     1      -6.134  17.884  69.483  1.00  0.00    -0.249 A  
HETATM    7  C   UNL     1      -6.523  17.873  68.129  1.00  0.00    -0.189 A  
ENDROOT
BRANCH   7   8
HETATM    8  C   UNL     1      -6.615  16.539  67.411  1.00  0.00    -0.164 C  
BRANCH   8   9
HETATM    9  N   UNL     1      -7.920  15.883  67.607  1.00  0.00    -0.139 NA 
HETATM   10  C   UNL     1      -7.797  14.567  68.283  1.00  0.00    -0.131 C  
HETATM   11  C   UNL     1      -9.175  14.003  68.703  1.00  0.00    -0.119 C  
HETATM   12  C   UNL     1     -10.183  14.260  67.629  1.00  0.00    -0.237 A  
HETATM   13  C   UNL     1      -9.944  15.069  66.538  1.00  0.00    -0.276 A  
HETATM   14  C   UNL     1     -11.106  15.173  65.715  1.00  0.00    -0.330 A  
HETATM   15  C   UNL     1      -8.607  15.719  66.307  1.00  0.00    -0.272 C  
HETATM   16  C   UNL     1     -12.170  14.460  66.227  1.00  0.00    -0.345 A  
HETATM   17  S   UNL     1     -11.764  13.647  67.680  1.00  0.00    -0.375 SA 
ENDBRANCH   8   9
ENDBRANCH   7   8
TORSDOF 2
ENDMDL
MODEL      124
REMARK 921   NORMALIZED FREE ENERGY PREDICTED BY IDOCK:   -3.81 KCAL/MOL
REMARK 922        TOTAL FREE ENERGY PREDICTED BY IDOCK:   -4.63 KCAL/MOL
REMARK 923 INTER-LIGAND FREE ENERGY PREDICTED BY IDOCK:   -4.25 KCAL/MOL
REMARK 924 INTRA-LIGAND FREE ENERGY PREDICTED BY IDOCK:   -0.37 KCAL/MOL
REMARK 927      BINDING AFFINITY PREDICTED BY RF-SCORE:    0.00 PKD
ROOT
HETATM    1 CL   UNL     1     -10.241  16.886  67.988  1.00  0.00    -0.295 Cl 
HETATM    2  C   UNL     1      -8.832  15.892  68.104  1.00  0.00    -0.176 A  
HETATM    3  C   UNL     1      -7.634  16.522  68.461  1.00  0.00    -0.200 A  
HETATM    4  C   UNL     1      -6.458  15.784  68.590  1.00  0.00    -0.111 A  
HETATM    5  C   UNL     1      -6.480  14.408  68.386  1.00  0.00    -0.102 A  
HETATM    6  C   UNL     1      -7.671  13.778  68.023  1.00  0.00    -0.152 A  
HETATM    7  C   UNL     1      -8.860  14.513  67.847  1.00  0.00    -0.176 A  
ENDROOT
BRANCH   7   8
HETATM    8  C   UNL     1     -10.095  13.786  67.350  1.00  0.00    -0.244 C  
BRANCH   8   9
HETATM    9  N   UNL     1     -10.597  12.797  68.321  1.00  0.00    -0.232 NA 
HETATM   10  C   UNL     1     -10.963  11.509  67.679  1.00  0.00    -0.242 C  
HETATM   11  C   UNL     1     -11.251  10.406  68.725  1.00  0.00    -0.295 C  
HETATM   12  C   UNL     1     -12.021  10.976  69.873  1.00  0.00    -0.351 A  
HETATM   13  C   UNL     1     -12.239  12.327  70.048  1.00  0.00    -0.267 A  
HETATM   14  C   UNL     1     -12.952  12.576  71.259  1.00  0.00    -0.301 A  
HETATM   15  C   UNL     1     -11.762  13.346  69.050  1.00  0.00    -0.323 C  
HETATM   16  C   UNL     1     -13.223  11.414  71.950  1.00  0.00    -0.380 A  
HETATM   17  S   UNL     1     -12.643  10.025  71.132  1.00  0.00    -0.407 SA 
ENDBRANCH   8   9
ENDBRANCH   7   8
TORSDOF 2
ENDMDL
MODEL      125
REMARK 921   NORMALIZED FREE ENERGY PREDICTED BY IDOCK:   -3.79 KCAL/MOL
REMARK 922        TOTAL FREE ENERGY PREDICTED BY IDOCK:   -4.61 KCAL/MOL
REMARK 923 INTER-LIGAND FREE ENERGY PREDICTED BY IDOCK:   -4.53 KCAL/MOL
REMARK 924 INTRA-LIGAND FREE ENERGY PREDICTED BY IDOCK:   -0.08 KCAL/MOL
REMARK 927      BINDING AFFINITY PREDICTED BY RF-SCORE:    0.00 PKD
ROOT
HETATM    1 CL   UNL     1      -9.556   7.620  66.994  1.00  0.00    -0.208 Cl 
HETATM    2  C   UNL     1      -9.636   8.957  65.902  1.00  0.00    -0.223 A  
HETATM    3  C   UNL     1      -8.899   8.859  64.717  1.00  0.00    -0.130 A  
HETATM    4  C   UNL     1      -8.927   9.892  63.780  1.00  0.00    -0.279 A  
HETATM    5  C   UNL     1      -9.711  11.017  64.014  1.00  0.00    -0.333 A  
HETATM    6  C   UNL     1     -10.441  11.121  65.198  1.00  0.00    -0.341 A  
HETATM    7  C   UNL     1     -10.393  10.107  66.175  1.00  0.00    -0.237 A  
ENDROOT
BRANCH   7   8
HETATM    8  C   UNL     1     -11.124  10.328  67.486  1.00  0.00    -0.232 C  
BRANCH   8   9
HETATM    9  N   UNL     1     -11.118  11.742  67.903  1.00  0.00    -0.228 NA 
HETATM   10  C   UNL     1      -9.743  12.268  68.099  1.00  0.00    -0.213 C  
HETATM   11  C   UNL     1      -9.737  13.803  68.293  1.00  0.00    -0.231 C  
HETATM   12  C   UNL     1     -10.883  14.215  69.162  1.00  0.00    -0.229 A  
HETATM   13  C   UNL     1     -11.898  13.361  69.538  1.00  0.00    -0.391 A  
HETATM   14  C   UNL     1     -12.880  14.047  70.315  1.00  0.00    -0.165 A  
HETATM   15  C   UNL     1     -11.902  11.908  69.147  1.00  0.00    -0.311 C  
HETATM   16  C   UNL     1     -12.576  15.382  70.474  1.00  0.00    -0.423 A  
HETATM   17  S   UNL     1     -11.100  15.804  69.712  1.00  0.00    -0.355 SA 
ENDBRANCH   8   9
ENDBRANCH   7   8
TORSDOF 2
ENDMDL
MODEL      126
REMARK 921   NORMALIZED FREE ENERGY PREDICTED BY IDOCK:   -3.78 KCAL/MOL
REMARK 922        TOTAL FREE ENERGY PREDICTED BY IDOCK:   -4.59 KCAL/MOL
REMARK 923 INTER-LIGAND FREE ENERGY PREDICTED BY IDOCK:   -4.37 KCAL/MOL
REMARK 924 INTRA-LIGAND FREE ENERGY PREDICTED BY IDOCK:   -0.22 KCAL/MOL
REMARK 927      BINDING AFFINITY PREDICTED BY RF-SCORE:    0.00 PKD
ROOT
HETATM    1 CL   UNL     1      -7.932   4.612  70.393  1.00  0.00    -0.063 Cl 
HETATM    2  C   UNL     1      -8.975   4.985  69.066  1.00  0.00    -0.097 A  
HETATM    3  C   UNL     1      -8.638   4.447  67.819  1.00  0.00    -0.109 A  
HETATM    4  C   UNL     1      -9.440   4.691  66.704  1.00  0.00    -0.173 A  
HETATM    5  C   UNL     1     -10.595   5.455  66.837  1.00  0.00    -0.320 A  
HETATM    6  C   UNL     1     -10.930   5.998  68.077  1.00  0.00    -0.340 A  
HETATM    7  C   UNL     1     -10.110   5.798  69.206  1.00  0.00    -0.268 A  
ENDROOT
BRANCH   7   8
HETATM    8  C   UNL     1     -10.472   6.503  70.500  1.00  0.00    -0.207 C  
BRANCH   8   9
HETATM    9  N   UNL     1     -10.934   7.885  70.278  1.00  0.00    -0.253 NA 
HETATM   10  C   UNL     1      -9.866   8.756  69.722  1.00  0.00    -0.186 C  
HETATM   11  C   UNL     1     -10.421  10.126  69.264  1.00  0.00    -0.246 C  
HETATM   12  C   UNL     1     -11.430  10.625  70.249  1.00  0.00    -0.337 A  
HETATM   13  C   UNL     1     -11.929   9.860  71.282  1.00  0.00    -0.489 A  
HETATM   14  C   UNL     1     -12.917  10.580  72.020  1.00  0.00    -0.490 A  
HETATM   15  C   UNL     1     -11.445   8.460  71.542  1.00  0.00    -0.278 C  
HETATM   16  C   UNL     1     -13.134  11.840  71.503  1.00  0.00    -0.287 A  
HETATM   17  S   UNL     1     -12.133  12.165  70.150  1.00  0.00    -0.225 SA 
ENDBRANCH   8   9
ENDBRANCH   7   8
TORSDOF 2
ENDMDL
MODEL      127
REMARK 921   NORMALIZED FREE ENERGY PREDICTED BY IDOCK:   -3.74 KCAL/MOL
REMARK 922        TOTAL FREE ENERGY PREDICTED BY IDOCK:   -4.55 KCAL/MOL
REMARK 923 INTER-LIGAND FREE ENERGY PREDICTED BY IDOCK:   -4.21 KCAL/MOL
REMARK 924 INTRA-LIGAND FREE ENERGY PREDICTED BY IDOCK:   -0.34 KCAL/MOL
REMARK 927      BINDING AFFINITY PREDICTED BY RF-SCORE:    0.00 PKD
ROOT
HETATM    1 CL   UNL     1     -12.153  10.999  69.012  1.00  0.00    -0.367 Cl 
HETATM    2  C   UNL     1     -10.505  10.585  69.323  1.00  0.00    -0.235 A  
HETATM    3  C   UNL     1      -9.530  11.208  68.534  1.00  0.00    -0.193 A  
HETATM    4  C   UNL     1      -8.177  10.935  68.737  1.00  0.00    -0.151 A  
HETATM    5  C   UNL     1      -7.792  10.057  69.745  1.00  0.00    -0.185 A  
HETATM    6  C   UNL     1      -8.761   9.430  70.528  1.00  0.00    -0.276 A  
HETATM    7  C   UNL     1     -10.134   9.660  70.311  1.00  0.00    -0.331 A  
ENDROOT
BRANCH   7   8
HETATM    8  C   UNL     1     -11.140   8.867  71.125  1.00  0.00    -0.285 C  
BRANCH   8   9
HETATM    9  N   UNL     1     -10.710   7.475  71.350  1.00  0.00    -0.222 NA 
HETATM   10  C   UNL     1     -11.047   6.587  70.209  1.00  0.00    -0.335 C  
HETATM   11  C   UNL     1     -10.379   5.197  70.344  1.00  0.00    -0.326 C  
HETATM   12  C   UNL     1     -10.443   4.735  71.765  1.00  0.00    -0.112 A  
HETATM   13  C   UNL     1     -10.845   5.539  72.811  1.00  0.00    -0.308 A  
HETATM   14  C   UNL     1     -10.747   4.846  74.055  1.00  0.00    -0.354 A  
HETATM   15  C   UNL     1     -11.318   6.950  72.593  1.00  0.00    -0.235 C  
HETATM   16  C   UNL     1     -10.260   3.565  73.898  1.00  0.00    -0.145 A  
HETATM   17  S   UNL     1      -9.946   3.189  72.256  1.00  0.00    -0.151 SA 
ENDBRANCH   8   9
ENDBRANCH   7   8
TORSDOF 2
ENDMDL
MODEL      128
REMARK 921   NORMALIZED FREE ENERGY PREDICTED BY IDOCK:   -3.73 KCAL/MOL
REMARK 922        TOTAL FREE ENERGY PREDICTED BY IDOCK:   -4.54 KCAL/MOL
REMARK 923 INTER-LIGAND FREE ENERGY PREDICTED BY IDOCK:   -4.26 KCAL/MOL
REMARK 924 INTRA-LIGAND FREE ENERGY PREDICTED BY IDOCK:   -0.28 KCAL/MOL
REMARK 927      BINDING AFFINITY PREDICTED BY RF-SCORE:    0.00 PKD
ROOT
HETATM    1 CL   UNL     1     -10.060  11.833  63.226  1.00  0.00    -0.451 Cl 
HETATM    2  C   UNL     1      -9.559  10.472  64.165  1.00  0.00    -0.313 A  
HETATM    3  C   UNL     1      -8.742   9.526  63.535  1.00  0.00    -0.235 A  
HETATM    4  C   UNL     1      -8.285   8.409  64.234  1.00  0.00    -0.130 A  
HETATM    5  C   UNL     1      -8.625   8.245  65.573  1.00  0.00    -0.183 A  
HETATM    6  C   UNL     1      -9.445   9.181  66.202  1.00  0.00    -0.309 A  
HETATM    7  C   UNL     1      -9.950  10.294  65.501  1.00  0.00    -0.364 A  
ENDROOT
BRANCH   7   8
HETATM    8  C   UNL     1     -10.923  11.218  66.211  1.00  0.00    -0.205 C  
BRANCH   8   9
HETATM    9  N   UNL     1     -10.267  12.427  66.740  1.00  0.00    -0.218 NA 
HETATM   10  C   UNL     1      -9.558  12.173  68.020  1.00  0.00    -0.204 C  
HETATM   11  C   UNL     1      -8.674  13.373  68.437  1.00  0.00    -0.134 C  
HETATM   12  C   UNL     1      -9.388  14.657  68.158  1.00  0.00    -0.197 A  
HETATM   13  C   UNL     1     -10.563  14.734  67.440  1.00  0.00    -0.268 A  
HETATM   14  C   UNL     1     -10.977  16.092  67.285  1.00  0.00    -0.207 A  
HETATM   15  C   UNL     1     -11.261  13.507  66.921  1.00  0.00    -0.311 C  
HETATM   16  C   UNL     1     -10.095  16.974  67.872  1.00  0.00    -0.306 A  
HETATM   17  S   UNL     1      -8.785  16.170  68.629  1.00  0.00    -0.226 SA 
ENDBRANCH   8   9
ENDBRANCH   7   8
TORSDOF 2
ENDMDL
MODEL      129
REMARK 921   NORMALIZED FREE ENERGY PREDICTED BY IDOCK:   -3.68 KCAL/MOL
REMARK 922        TOTAL FREE ENERGY PREDICTED BY IDOCK:   -4.48 KCAL/MOL
REMARK 923 INTER-LIGAND FREE ENERGY PREDICTED BY IDOCK:   -4.25 KCAL/MOL
REMARK 924 INTRA-LIGAND FREE ENERGY PREDICTED BY IDOCK:   -0.23 KCAL/MOL
REMARK 927      BINDING AFFINITY PREDICTED BY RF-SCORE:    0.00 PKD
ROOT
HETATM    1 CL   UNL     1     -10.717   7.199  66.895  1.00  0.00    -0.402 Cl 
HETATM    2  C   UNL     1      -9.764   6.003  67.701  1.00  0.00    -0.115 A  
HETATM    3  C   UNL     1     -10.028   4.664  67.395  1.00  0.00    -0.190 A  
HETATM    4  C   UNL     1      -9.290   3.643  67.994  1.00  0.00    -0.237 A  
HETATM    5  C   UNL     1      -8.268   3.960  68.884  1.00  0.00    -0.083 A  
HETATM    6  C   UNL     1      -8.007   5.293  69.196  1.00  0.00    -0.089 A  
HETATM    7  C   UNL     1      -8.769   6.336  68.634  1.00  0.00    -0.120 A  
ENDROOT
BRANCH   7   8
HETATM    8  C   UNL     1      -8.506   7.758  69.095  1.00  0.00    -0.138 C  
BRANCH   8   9
HETATM    9  N   UNL     1      -9.725   8.427  69.583  1.00  0.00    -0.171 NA 
HETATM   10  C   UNL     1      -9.600   9.907  69.576  1.00  0.00    -0.225 C  
HETATM   11  C   UNL     1     -10.955  10.601  69.851  1.00  0.00    -0.337 C  
HETATM   12  C   UNL     1     -11.700   9.865  70.919  1.00  0.00    -0.364 A  
HETATM   13  C   UNL     1     -11.312   8.636  71.410  1.00  0.00    -0.350 A  
HETATM   14  C   UNL     1     -12.246   8.154  72.376  1.00  0.00    -0.374 A  
HETATM   15  C   UNL     1     -10.053   7.956  70.946  1.00  0.00    -0.190 C  
HETATM   16  C   UNL     1     -13.301   9.023  72.556  1.00  0.00    -0.423 A  
HETATM   17  S   UNL     1     -13.155  10.427  71.584  1.00  0.00    -0.441 SA 
ENDBRANCH   8   9
ENDBRANCH   7   8
TORSDOF 2
ENDMDL
MODEL      130
REMARK 921   NORMALIZED FREE ENERGY PREDICTED BY IDOCK:   -3.67 KCAL/MOL
REMARK 922        TOTAL FREE ENERGY PREDICTED BY IDOCK:   -4.47 KCAL/MOL
REMARK 923 INTER-LIGAND FREE ENERGY PREDICTED BY IDOCK:   -4.41 KCAL/MOL
REMARK 924 INTRA-LIGAND FREE ENERGY PREDICTED BY IDOCK:   -0.06 KCAL/MOL
REMARK 927      BINDING AFFINITY PREDICTED BY RF-SCORE:    0.00 PKD
ROOT
HETATM    1 CL   UNL     1      -8.025  10.077  70.160  1.00  0.00    -0.177 Cl 
HETATM    2  C   UNL     1      -9.289   9.003  70.644  1.00  0.00    -0.234 A  
HETATM    3  C   UNL     1      -9.257   8.530  71.961  1.00  0.00    -0.326 A  
HETATM    4  C   UNL     1     -10.251   7.672  72.428  1.00  0.00    -0.282 A  
HETATM    5  C   UNL     1     -11.296   7.301  71.587  1.00  0.00    -0.285 A  
HETATM    6  C   UNL     1     -11.327   7.764  70.272  1.00  0.00    -0.174 A  
HETATM    7  C   UNL     1     -10.309   8.598  69.769  1.00  0.00    -0.212 A  
ENDROOT
BRANCH   7   8
HETATM    8  C   UNL     1     -10.344   8.981  68.301  1.00  0.00    -0.209 C  
BRANCH   8   9
HETATM    9  N   UNL     1     -10.358  10.441  68.100  1.00  0.00    -0.163 NA 
HETATM   10  C   UNL     1     -11.350  11.123  68.970  1.00  0.00    -0.276 C  
HETATM   11  C   UNL     1     -11.187  12.661  68.933  1.00  0.00    -0.329 C  
HETATM   12  C   UNL     1     -10.903  13.113  67.536  1.00  0.00    -0.255 A  
HETATM   13  C   UNL     1     -10.620  12.249  66.499  1.00  0.00    -0.263 A  
HETATM   14  C   UNL     1     -10.334  12.969  65.299  1.00  0.00    -0.318 A  
HETATM   15  C   UNL     1     -10.634  10.756  66.681  1.00  0.00    -0.232 C  
HETATM   16  C   UNL     1     -10.394  14.333  65.486  1.00  0.00    -0.355 A  
HETATM   17  S   UNL     1     -10.818  14.748  67.094  1.00  0.00    -0.318 SA 
ENDBRANCH   8   9
ENDBRANCH   7   8
TORSDOF 2
ENDMDL
MODEL      131
REMARK 921   NORMALIZED FREE ENERGY PREDICTED BY IDOCK:   -3.66 KCAL/MOL
REMARK 922        TOTAL FREE ENERGY PREDICTED BY IDOCK:   -4.46 KCAL/MOL
REMARK 923 INTER-LIGAND FREE ENERGY PREDICTED BY IDOCK:   -4.73 KCAL/MOL
REMARK 924 INTRA-LIGAND FREE ENERGY PREDICTED BY IDOCK:    0.27 KCAL/MOL
REMARK 927      BINDING AFFINITY PREDICTED BY RF-SCORE:    0.00 PKD
ROOT
HETATM    1 CL   UNL     1      -8.531  14.835  69.166  1.00  0.00    -0.136 Cl 
HETATM    2  C   UNL     1      -9.458  14.243  67.833  1.00  0.00    -0.212 A  
HETATM    3  C   UNL     1      -9.011  13.070  67.214  1.00  0.00    -0.212 A  
HETATM    4  C   UNL     1      -9.716  12.524  66.142  1.00  0.00    -0.259 A  
HETATM    5  C   UNL     1     -10.884  13.136  65.698  1.00  0.00    -0.294 A  
HETATM    6  C   UNL     1     -11.328  14.309  66.307  1.00  0.00    -0.347 A  
HETATM    7  C   UNL     1     -10.607  14.899  67.365  1.00  0.00    -0.263 A  
ENDROOT
BRANCH   7   8
HETATM    8  C   UNL     1     -11.084  16.231  67.914  1.00  0.00    -0.270 C  
BRANCH   8   9
HETATM    9  N   UNL     1     -10.098  17.308  67.715  1.00  0.00    -0.298 NA 
HETATM   10  C   UNL     1     -10.740  18.634  67.521  1.00  0.00    -0.394 C  
HETATM   11  C   UNL     1      -9.707  19.785  67.560  1.00  0.00    -0.490 C  
HETATM   12  C   UNL     1      -8.463  19.382  66.833  1.00  0.00    -0.293 A  
HETATM   13  C   UNL     1      -8.220  18.098  66.393  1.00  0.00    -0.282 A  
HETATM   14  C   UNL     1      -6.931  18.002  65.787  1.00  0.00    -0.266 A  
HETATM   15  C   UNL     1      -9.229  16.995  66.559  1.00  0.00    -0.271 C  
HETATM   16  C   UNL     1      -6.254  19.203  65.814  1.00  0.00    -0.214 A  
HETATM   17  S   UNL     1      -7.177  20.449  66.542  1.00  0.00    -0.226 SA 
ENDBRANCH   8   9
ENDBRANCH   7   8
TORSDOF 2
ENDMDL
MODEL      132
REMARK 921   NORMALIZED FREE ENERGY PREDICTED BY IDOCK:   -3.65 KCAL/MOL
REMARK 922        TOTAL FREE ENERGY PREDICTED BY IDOCK:   -4.44 KCAL/MOL
REMARK 923 INTER-LIGAND FREE ENERGY PREDICTED BY IDOCK:   -4.09 KCAL/MOL
REMARK 924 INTRA-LIGAND FREE ENERGY PREDICTED BY IDOCK:   -0.35 KCAL/MOL
REMARK 927      BINDING AFFINITY PREDICTED BY RF-SCORE:    0.00 PKD
ROOT
HETATM    1 CL   UNL     1      -6.608   5.041  73.394  1.00  0.00    -0.064 Cl 
HETATM    2  C   UNL     1      -7.705   4.463  72.190  1.00  0.00    -0.085 A  
HETATM    3  C   UNL     1      -7.221   3.503  71.293  1.00  0.00    -0.033 A  
HETATM    4  C   UNL     1      -8.053   2.979  70.304  1.00  0.00    -0.056 A  
HETATM    5  C   UNL     1      -9.378   3.394  70.223  1.00  0.00    -0.243 A  
HETATM    6  C   UNL     1      -9.861   4.355  71.110  1.00  0.00    -0.258 A  
HETATM    7  C   UNL     1      -9.025   4.928  72.090  1.00  0.00    -0.144 A  
ENDROOT
BRANCH   7   8
HETATM    8  C   UNL     1      -9.580   6.044  72.954  1.00  0.00    -0.154 C  
BRANCH   8   9
HETATM    9  N   UNL     1     -10.076   7.181  72.158  1.00  0.00    -0.180 NA 
HETATM   10  C   UNL     1      -9.041   8.227  71.959  1.00  0.00    -0.202 C  
HETATM   11  C   UNL     1      -9.486   9.289  70.925  1.00  0.00    -0.330 C  
HETATM   12  C   UNL     1     -10.932   9.619  71.120  1.00  0.00    -0.360 A  
HETATM   13  C   UNL     1     -11.768   8.911  71.957  1.00  0.00    -0.438 A  
HETATM   14  C   UNL     1     -13.102   9.418  71.893  1.00  0.00    -0.505 A  
HETATM   15  C   UNL     1     -11.271   7.770  72.801  1.00  0.00    -0.398 C  
HETATM   16  C   UNL     1     -13.217  10.465  71.003  1.00  0.00    -0.278 A  
HETATM   17  S   UNL     1     -11.720  10.853  70.265  1.00  0.00    -0.360 SA 
ENDBRANCH   8   9
ENDBRANCH   7   8
TORSDOF 2
ENDMDL
MODEL      133
REMARK 921   NORMALIZED FREE ENERGY PREDICTED BY IDOCK:   -3.64 KCAL/MOL
REMARK 922        TOTAL FREE ENERGY PREDICTED BY IDOCK:   -4.44 KCAL/MOL
REMARK 923 INTER-LIGAND FREE ENERGY PREDICTED BY IDOCK:   -4.34 KCAL/MOL
REMARK 924 INTRA-LIGAND FREE ENERGY PREDICTED BY IDOCK:   -0.10 KCAL/MOL
REMARK 927      BINDING AFFINITY PREDICTED BY RF-SCORE:    0.00 PKD
ROOT
HETATM    1 CL   UNL     1      -6.954  10.342  66.266  1.00  0.00    -0.111 Cl 
HETATM    2  C   UNL     1      -8.039   9.033  66.573  1.00  0.00    -0.111 A  
HETATM    3  C   UNL     1      -7.474   7.810  66.953  1.00  0.00    -0.094 A  
HETATM    4  C   UNL     1      -8.287   6.712  67.232  1.00  0.00    -0.120 A  
HETATM    5  C   UNL     1      -9.671   6.839  67.155  1.00  0.00    -0.191 A  
HETATM    6  C   UNL     1     -10.237   8.054  66.770  1.00  0.00    -0.367 A  
HETATM    7  C   UNL     1      -9.431   9.163  66.444  1.00  0.00    -0.288 A  
ENDROOT
BRANCH   7   8
HETATM    8  C   UNL     1     -10.103  10.422  65.930  1.00  0.00    -0.261 C  
BRANCH   8   9
HETATM    9  N   UNL     1     -10.407  11.379  67.008  1.00  0.00    -0.215 NA 
HETATM   10  C   UNL     1     -11.403  10.847  67.973  1.00  0.00    -0.312 C  
HETATM   11  C   UNL     1     -11.530  11.747  69.225  1.00  0.00    -0.369 C  
HETATM   12  C   UNL     1     -11.491  13.188  68.826  1.00  0.00    -0.307 A  
HETATM   13  C   UNL     1     -11.172  13.618  67.555  1.00  0.00    -0.316 A  
HETATM   14  C   UNL     1     -11.159  15.045  67.488  1.00  0.00    -0.317 A  
HETATM   15  C   UNL     1     -10.892  12.654  66.436  1.00  0.00    -0.269 C  
HETATM   16  C   UNL     1     -11.447  15.625  68.705  1.00  0.00    -0.376 A  
HETATM   17  S   UNL     1     -11.757  14.457  69.920  1.00  0.00    -0.317 SA 
ENDBRANCH   8   9
ENDBRANCH   7   8
TORSDOF 2
ENDMDL
MODEL      134
REMARK 921   NORMALIZED FREE ENERGY PREDICTED BY IDOCK:   -3.64 KCAL/MOL
REMARK 922        TOTAL FREE ENERGY PREDICTED BY IDOCK:   -4.43 KCAL/MOL
REMARK 923 INTER-LIGAND FREE ENERGY PREDICTED BY IDOCK:   -4.07 KCAL/MOL
REMARK 924 INTRA-LIGAND FREE ENERGY PREDICTED BY IDOCK:   -0.36 KCAL/MOL
REMARK 927      BINDING AFFINITY PREDICTED BY RF-SCORE:    0.00 PKD
ROOT
HETATM    1 CL   UNL     1     -11.861  14.435  69.400  1.00  0.00    -0.346 Cl 
HETATM    2  C   UNL     1     -12.221  12.889  70.082  1.00  0.00    -0.266 A  
HETATM    3  C   UNL     1     -12.765  12.871  71.371  1.00  0.00    -0.366 A  
HETATM    4  C   UNL     1     -13.096  11.661  71.981  1.00  0.00    -0.433 A  
HETATM    5  C   UNL     1     -12.905  10.465  71.296  1.00  0.00    -0.533 A  
HETATM    6  C   UNL     1     -12.356  10.480  70.014  1.00  0.00    -0.290 A  
HETATM    7  C   UNL     1     -11.977  11.689  69.397  1.00  0.00    -0.381 A  
ENDROOT
BRANCH   7   8
HETATM    8  C   UNL     1     -11.288  11.629  68.046  1.00  0.00    -0.296 C  
BRANCH   8   9
HETATM    9  N   UNL     1      -9.858  11.978  68.127  1.00  0.00    -0.196 NA 
HETATM   10  C   UNL     1      -9.480  13.043  67.163  1.00  0.00    -0.230 C  
HETATM   11  C   UNL     1      -8.050  13.573  67.422  1.00  0.00    -0.184 C  
HETATM   12  C   UNL     1      -7.136  12.439  67.762  1.00  0.00    -0.120 A  
HETATM   13  C   UNL     1      -7.576  11.156  68.011  1.00  0.00    -0.100 A  
HETATM   14  C   UNL     1      -6.486  10.303  68.366  1.00  0.00    -0.048 A  
HETATM   15  C   UNL     1      -9.027  10.775  67.901  1.00  0.00    -0.139 C  
HETATM   16  C   UNL     1      -5.284  10.979  68.387  1.00  0.00    -0.039 A  
HETATM   17  S   UNL     1      -5.462  12.628  67.957  1.00  0.00    -0.098 SA 
ENDBRANCH   8   9
ENDBRANCH   7   8
TORSDOF 2
ENDMDL
MODEL      135
REMARK 921   NORMALIZED FREE ENERGY PREDICTED BY IDOCK:   -3.63 KCAL/MOL
REMARK 922        TOTAL FREE ENERGY PREDICTED BY IDOCK:   -4.42 KCAL/MOL
REMARK 923 INTER-LIGAND FREE ENERGY PREDICTED BY IDOCK:   -4.14 KCAL/MOL
REMARK 924 INTRA-LIGAND FREE ENERGY PREDICTED BY IDOCK:   -0.28 KCAL/MOL
REMARK 927      BINDING AFFINITY PREDICTED BY RF-SCORE:    0.00 PKD
ROOT
HETATM    1 CL   UNL     1     -12.023   9.874  69.746  1.00  0.00    -0.025 Cl 
HETATM    2  C   UNL     1     -12.357  11.464  70.334  1.00  0.00    -0.319 A  
HETATM    3  C   UNL     1     -12.925  11.568  71.609  1.00  0.00    -0.499 A  
HETATM    4  C   UNL     1     -13.208  12.819  72.157  1.00  0.00    -0.546 A  
HETATM    5  C   UNL     1     -12.903  13.972  71.441  1.00  0.00    -0.434 A  
HETATM    6  C   UNL     1     -12.344  13.873  70.168  1.00  0.00    -0.400 A  
HETATM    7  C   UNL     1     -12.089  12.617  69.580  1.00  0.00    -0.277 A  
ENDROOT
BRANCH   7   8
HETATM    8  C   UNL     1     -11.579  12.575  68.152  1.00  0.00    -0.340 C  
BRANCH   8   9
HETATM    9  N   UNL     1     -10.234  11.982  68.051  1.00  0.00    -0.192 NA 
HETATM   10  C   UNL     1      -9.166  13.010  67.963  1.00  0.00    -0.212 C  
HETATM   11  C   UNL     1      -7.755  12.390  68.106  1.00  0.00    -0.139 C  
HETATM   12  C   UNL     1      -7.686  11.098  67.357  1.00  0.00    -0.120 A  
HETATM   13  C   UNL     1      -8.788  10.472  66.813  1.00  0.00    -0.139 A  
HETATM   14  C   UNL     1      -8.424   9.230  66.211  1.00  0.00    -0.133 A  
HETATM   15  C   UNL     1     -10.162  11.081  66.879  1.00  0.00    -0.222 C  
HETATM   16  C   UNL     1      -7.077   8.964  66.343  1.00  0.00    -0.083 A  
HETATM   17  S   UNL     1      -6.249  10.217  67.166  1.00  0.00    -0.063 SA 
ENDBRANCH   8   9
ENDBRANCH   7   8
TORSDOF 2
ENDMDL
MODEL      136
REMARK 921   NORMALIZED FREE ENERGY PREDICTED BY IDOCK:   -3.62 KCAL/MOL
REMARK 922        TOTAL FREE ENERGY PREDICTED BY IDOCK:   -4.41 KCAL/MOL
REMARK 923 INTER-LIGAND FREE ENERGY PREDICTED BY IDOCK:   -4.05 KCAL/MOL
REMARK 924 INTRA-LIGAND FREE ENERGY PREDICTED BY IDOCK:   -0.35 KCAL/MOL
REMARK 927      BINDING AFFINITY PREDICTED BY RF-SCORE:    0.00 PKD
ROOT
HETATM    1 CL   UNL     1      -8.880  16.735  68.765  1.00  0.00    -0.261 Cl 
HETATM    2  C   UNL     1     -10.197  15.731  69.258  1.00  0.00    -0.248 A  
HETATM    3  C   UNL     1     -11.039  16.227  70.260  1.00  0.00    -0.340 A  
HETATM    4  C   UNL     1     -12.132  15.480  70.699  1.00  0.00    -0.430 A  
HETATM    5  C   UNL     1     -12.401  14.243  70.121  1.00  0.00    -0.413 A  
HETATM    6  C   UNL     1     -11.560  13.743  69.128  1.00  0.00    -0.363 A  
HETATM    7  C   UNL     1     -10.427  14.464  68.700  1.00  0.00    -0.247 A  
ENDROOT
BRANCH   7   8
HETATM    8  C   UNL     1      -9.494  13.818  67.693  1.00  0.00    -0.217 C  
BRANCH   8   9
HETATM    9  N   UNL     1      -9.388  12.359  67.878  1.00  0.00    -0.189 NA 
HETATM   10  C   UNL     1      -8.199  11.975  68.680  1.00  0.00    -0.052 C  
HETATM   11  C   UNL     1      -8.230  10.479  69.075  1.00  0.00    -0.145 C  
HETATM   12  C   UNL     1      -8.722   9.656  67.927  1.00  0.00    -0.119 A  
HETATM   13  C   UNL     1      -9.264  10.196  66.780  1.00  0.00    -0.174 A  
HETATM   14  C   UNL     1      -9.699   9.169  65.889  1.00  0.00    -0.336 A  
HETATM   15  C   UNL     1      -9.349  11.682  66.563  1.00  0.00    -0.206 C  
HETATM   16  C   UNL     1      -9.486   7.908  66.406  1.00  0.00    -0.192 A  
HETATM   17  S   UNL     1      -8.742   7.960  67.949  1.00  0.00    -0.124 SA 
ENDBRANCH   8   9
ENDBRANCH   7   8
TORSDOF 2
ENDMDL
MODEL      137
REMARK 921   NORMALIZED FREE ENERGY PREDICTED BY IDOCK:   -3.61 KCAL/MOL
REMARK 922        TOTAL FREE ENERGY PREDICTED BY IDOCK:   -4.40 KCAL/MOL
REMARK 923 INTER-LIGAND FREE ENERGY PREDICTED BY IDOCK:   -4.12 KCAL/MOL
REMARK 924 INTRA-LIGAND FREE ENERGY PREDICTED BY IDOCK:   -0.27 KCAL/MOL
REMARK 927      BINDING AFFINITY PREDICTED BY RF-SCORE:    0.00 PKD
ROOT
HETATM    1 CL   UNL     1     -10.776   5.704  69.544  1.00  0.00    -0.390 Cl 
HETATM    2  C   UNL     1     -11.354   7.064  70.439  1.00  0.00    -0.310 A  
HETATM    3  C   UNL     1     -11.997   6.803  71.655  1.00  0.00    -0.391 A  
HETATM    4  C   UNL     1     -12.476   7.851  72.440  1.00  0.00    -0.208 A  
HETATM    5  C   UNL     1     -12.294   9.166  72.024  1.00  0.00    -0.448 A  
HETATM    6  C   UNL     1     -11.661   9.430  70.810  1.00  0.00    -0.364 A  
HETATM    7  C   UNL     1     -11.206   8.383  69.983  1.00  0.00    -0.085 A  
ENDROOT
BRANCH   7   8
HETATM    8  C   UNL     1     -10.621   8.732  68.627  1.00  0.00    -0.139 C  
BRANCH   8   9
HETATM    9  N   UNL     1     -10.349  10.174  68.485  1.00  0.00    -0.171 NA 
HETATM   10  C   UNL     1     -11.360  10.861  67.641  1.00  0.00    -0.270 C  
HETATM   11  C   UNL     1     -11.209  12.399  67.699  1.00  0.00    -0.340 C  
HETATM   12  C   UNL     1      -9.761  12.774  67.678  1.00  0.00    -0.205 A  
HETATM   13  C   UNL     1      -8.737  11.860  67.807  1.00  0.00    -0.158 A  
HETATM   14  C   UNL     1      -7.467  12.513  67.810  1.00  0.00    -0.130 A  
HETATM   15  C   UNL     1      -8.997  10.383  67.920  1.00  0.00    -0.128 C  
HETATM   16  C   UNL     1      -7.589  13.883  67.704  1.00  0.00    -0.178 A  
HETATM   17  S   UNL     1      -9.224  14.379  67.576  1.00  0.00    -0.208 SA 
ENDBRANCH   8   9
ENDBRANCH   7   8
TORSDOF 2
ENDMDL
MODEL      138
REMARK 921   NORMALIZED FREE ENERGY PREDICTED BY IDOCK:   -3.60 KCAL/MOL
REMARK 922        TOTAL FREE ENERGY PREDICTED BY IDOCK:   -4.39 KCAL/MOL
REMARK 923 INTER-LIGAND FREE ENERGY PREDICTED BY IDOCK:   -4.43 KCAL/MOL
REMARK 924 INTRA-LIGAND FREE ENERGY PREDICTED BY IDOCK:    0.05 KCAL/MOL
REMARK 927      BINDING AFFINITY PREDICTED BY RF-SCORE:    0.00 PKD
ROOT
HETATM    1 CL   UNL     1     -14.350   6.964  71.946  1.00  0.00    -0.441 Cl 
HETATM    2  C   UNL     1     -13.291   8.283  71.593  1.00  0.00    -0.330 A  
HETATM    3  C   UNL     1     -13.865   9.431  71.036  1.00  0.00    -0.011 A  
HETATM    4  C   UNL     1     -13.076  10.542  70.738  1.00  0.00    -0.335 A  
HETATM    5  C   UNL     1     -11.713  10.517  71.018  1.00  0.00    -0.384 A  
HETATM    6  C   UNL     1     -11.137   9.372  71.566  1.00  0.00    -0.446 A  
HETATM    7  C   UNL     1     -11.910   8.225  71.835  1.00  0.00    -0.380 A  
ENDROOT
BRANCH   7   8
HETATM    8  C   UNL     1     -11.206   6.976  72.332  1.00  0.00    -0.268 C  
BRANCH   8   9
HETATM    9  N   UNL     1     -10.910   6.026  71.244  1.00  0.00    -0.262 NA 
HETATM   10  C   UNL     1      -9.852   5.052  71.616  1.00  0.00    -0.180 C  
HETATM   11  C   UNL     1      -9.723   3.916  70.573  1.00  0.00    -0.247 C  
HETATM   12  C   UNL     1      -9.849   4.473  69.191  1.00  0.00    -0.152 A  
HETATM   13  C   UNL     1     -10.238   5.769  68.924  1.00  0.00    -0.267 A  
HETATM   14  C   UNL     1     -10.327   5.996  67.517  1.00  0.00    -0.262 A  
HETATM   15  C   UNL     1     -10.512   6.760  70.022  1.00  0.00    -0.210 C  
HETATM   16  C   UNL     1     -10.022   4.866  66.789  1.00  0.00    -0.224 A  
HETATM   17  S   UNL     1      -9.606   3.542  67.794  1.00  0.00    -0.035 SA 
ENDBRANCH   8   9
ENDBRANCH   7   8
TORSDOF 2
ENDMDL
MODEL      139
REMARK 921   NORMALIZED FREE ENERGY PREDICTED BY IDOCK:   -3.59 KCAL/MOL
REMARK 922        TOTAL FREE ENERGY PREDICTED BY IDOCK:   -4.38 KCAL/MOL
REMARK 923 INTER-LIGAND FREE ENERGY PREDICTED BY IDOCK:   -4.02 KCAL/MOL
REMARK 924 INTRA-LIGAND FREE ENERGY PREDICTED BY IDOCK:   -0.36 KCAL/MOL
REMARK 927      BINDING AFFINITY PREDICTED BY RF-SCORE:    0.00 PKD
ROOT
HETATM    1 CL   UNL     1     -10.195   9.353  71.299  1.00  0.00    -0.378 Cl 
HETATM    2  C   UNL     1     -10.404   8.198  70.030  1.00  0.00    -0.215 A  
HETATM    3  C   UNL     1     -10.923   6.947  70.384  1.00  0.00    -0.315 A  
HETATM    4  C   UNL     1     -11.133   5.969  69.413  1.00  0.00    -0.445 A  
HETATM    5  C   UNL     1     -10.848   6.246  68.079  1.00  0.00    -0.409 A  
HETATM    6  C   UNL     1     -10.324   7.488  67.724  1.00  0.00    -0.278 A  
HETATM    7  C   UNL     1     -10.065   8.475  68.697  1.00  0.00    -0.207 A  
ENDROOT
BRANCH   7   8
HETATM    8  C   UNL     1      -9.396   9.765  68.261  1.00  0.00    -0.129 C  
BRANCH   8   9
HETATM    9  N   UNL     1      -8.903   9.703  66.873  1.00  0.00    -0.130 NA 
HETATM   10  C   UNL     1      -7.421   9.757  66.796  1.00  0.00    -0.095 C  
HETATM   11  C   UNL     1      -6.907   9.445  65.371  1.00  0.00    -0.079 C  
HETATM   12  C   UNL     1      -7.786  10.101  64.354  1.00  0.00    -0.138 A  
HETATM   13  C   UNL     1      -8.988  10.703  64.661  1.00  0.00    -0.216 A  
HETATM   14  C   UNL     1      -9.632  11.189  63.483  1.00  0.00    -0.341 A  
HETATM   15  C   UNL     1      -9.489  10.803  66.076  1.00  0.00    -0.194 C  
HETATM   16  C   UNL     1      -8.903  10.916  62.344  1.00  0.00    -0.313 A  
HETATM   17  S   UNL     1      -7.437  10.102  62.694  1.00  0.00    -0.138 SA 
ENDBRANCH   8   9
ENDBRANCH   7   8
TORSDOF 2
ENDMDL
MODEL      140
REMARK 921   NORMALIZED FREE ENERGY PREDICTED BY IDOCK:   -3.59 KCAL/MOL
REMARK 922        TOTAL FREE ENERGY PREDICTED BY IDOCK:   -4.38 KCAL/MOL
REMARK 923 INTER-LIGAND FREE ENERGY PREDICTED BY IDOCK:   -4.06 KCAL/MOL
REMARK 924 INTRA-LIGAND FREE ENERGY PREDICTED BY IDOCK:   -0.32 KCAL/MOL
REMARK 927      BINDING AFFINITY PREDICTED BY RF-SCORE:    0.00 PKD
ROOT
HETATM    1 CL   UNL     1      -8.168   7.119  69.045  1.00  0.00    -0.124 Cl 
HETATM    2  C   UNL     1      -7.648   8.767  69.082  1.00  0.00    -0.088 A  
HETATM    3  C   UNL     1      -6.805   9.148  70.133  1.00  0.00    -0.053 A  
HETATM    4  C   UNL     1      -6.333  10.457  70.220  1.00  0.00    -0.132 A  
HETATM    5  C   UNL     1      -6.682  11.385  69.244  1.00  0.00    -0.113 A  
HETATM    6  C   UNL     1      -7.528  11.011  68.200  1.00  0.00    -0.092 A  
HETATM    7  C   UNL     1      -8.049   9.704  68.117  1.00  0.00    -0.105 A  
ENDROOT
BRANCH   7   8
HETATM    8  C   UNL     1      -9.047   9.390  67.018  1.00  0.00    -0.134 C  
BRANCH   8   9
HETATM    9  N   UNL     1      -9.841  10.567  66.625  1.00  0.00    -0.192 NA 
HETATM   10  C   UNL     1     -11.036  10.759  67.486  1.00  0.00    -0.312 C  
HETATM   11  C   UNL     1     -11.720  12.122  67.227  1.00  0.00    -0.369 C  
HETATM   12  C   UNL     1     -11.734  12.417  65.761  1.00  0.00    -0.414 A  
HETATM   13  C   UNL     1     -11.043  11.675  64.827  1.00  0.00    -0.328 A  
HETATM   14  C   UNL     1     -11.196  12.228  63.520  1.00  0.00    -0.535 A  
HETATM   15  C   UNL     1     -10.255  10.452  65.209  1.00  0.00    -0.262 C  
HETATM   16  C   UNL     1     -11.975  13.366  63.526  1.00  0.00    -0.407 A  
HETATM   17  S   UNL     1     -12.540  13.754  65.096  1.00  0.00    -0.402 SA 
ENDBRANCH   8   9
ENDBRANCH   7   8
TORSDOF 2
ENDMDL
MODEL      141
REMARK 921   NORMALIZED FREE ENERGY PREDICTED BY IDOCK:   -3.59 KCAL/MOL
REMARK 922        TOTAL FREE ENERGY PREDICTED BY IDOCK:   -4.37 KCAL/MOL
REMARK 923 INTER-LIGAND FREE ENERGY PREDICTED BY IDOCK:   -4.08 KCAL/MOL
REMARK 924 INTRA-LIGAND FREE ENERGY PREDICTED BY IDOCK:   -0.29 KCAL/MOL
REMARK 927      BINDING AFFINITY PREDICTED BY RF-SCORE:    0.00 PKD
ROOT
HETATM    1 CL   UNL     1      -6.535  10.763  67.187  1.00  0.00    -0.069 Cl 
HETATM    2  C   UNL     1      -7.963   9.792  67.122  1.00  0.00    -0.102 A  
HETATM    3  C   UNL     1      -7.894   8.602  66.389  1.00  0.00    -0.099 A  
HETATM    4  C   UNL     1      -9.002   7.759  66.304  1.00  0.00    -0.209 A  
HETATM    5  C   UNL     1     -10.176   8.091  66.971  1.00  0.00    -0.374 A  
HETATM    6  C   UNL     1     -10.251   9.280  67.697  1.00  0.00    -0.285 A  
HETATM    7  C   UNL     1      -9.156  10.165  67.760  1.00  0.00    -0.135 A  
ENDROOT
BRANCH   7   8
HETATM    8  C   UNL     1      -9.336  11.490  68.476  1.00  0.00    -0.170 C  
BRANCH   8   9
HETATM    9  N   UNL     1      -9.601  12.602  67.546  1.00  0.00    -0.180 NA 
HETATM   10  C   UNL     1      -9.175  13.914  68.096  1.00  0.00    -0.202 C  
HETATM   11  C   UNL     1      -9.227  15.031  67.026  1.00  0.00    -0.246 C  
HETATM   12  C   UNL     1     -10.452  14.876  66.183  1.00  0.00    -0.306 A  
HETATM   13  C   UNL     1     -11.277  13.772  66.233  1.00  0.00    -0.310 A  
HETATM   14  C   UNL     1     -12.330  13.877  65.275  1.00  0.00    -0.485 A  
HETATM   15  C   UNL     1     -11.039  12.644  67.200  1.00  0.00    -0.280 C  
HETATM   16  C   UNL     1     -12.245  15.038  64.536  1.00  0.00    -0.331 A  
HETATM   17  S   UNL     1     -10.915  16.010  65.010  1.00  0.00    -0.297 SA 
ENDBRANCH   8   9
ENDBRANCH   7   8
TORSDOF 2
ENDMDL
MODEL      142
REMARK 921   NORMALIZED FREE ENERGY PREDICTED BY IDOCK:   -3.54 KCAL/MOL
REMARK 922        TOTAL FREE ENERGY PREDICTED BY IDOCK:   -4.32 KCAL/MOL
REMARK 923 INTER-LIGAND FREE ENERGY PREDICTED BY IDOCK:   -4.23 KCAL/MOL
REMARK 924 INTRA-LIGAND FREE ENERGY PREDICTED BY IDOCK:   -0.09 KCAL/MOL
REMARK 927      BINDING AFFINITY PREDICTED BY RF-SCORE:    0.00 PKD
ROOT
HETATM    1 CL   UNL     1     -10.561  11.399  64.253  1.00  0.00    -0.389 Cl 
HETATM    2  C   UNL     1     -10.838  12.820  65.196  1.00  0.00    -0.291 A  
HETATM    3  C   UNL     1     -10.533  14.050  64.602  1.00  0.00    -0.398 A  
HETATM    4  C   UNL     1     -10.744  15.241  65.296  1.00  0.00    -0.433 A  
HETATM    5  C   UNL     1     -11.283  15.208  66.578  1.00  0.00    -0.283 A  
HETATM    6  C   UNL     1     -11.580  13.984  67.176  1.00  0.00    -0.397 A  
HETATM    7  C   UNL     1     -11.336  12.768  66.507  1.00  0.00    -0.369 A  
ENDROOT
BRANCH   7   8
HETATM    8  C   UNL     1     -11.581  11.469  67.251  1.00  0.00    -0.199 C  
BRANCH   8   9
HETATM    9  N   UNL     1     -10.473  11.120  68.158  1.00  0.00    -0.181 NA 
HETATM   10  C   UNL     1      -9.142  11.354  67.541  1.00  0.00    -0.157 C  
HETATM   11  C   UNL     1      -7.997  11.223  68.573  1.00  0.00    -0.145 C  
HETATM   12  C   UNL     1      -8.264  10.072  69.491  1.00  0.00    -0.167 A  
HETATM   13  C   UNL     1      -9.460   9.387  69.525  1.00  0.00    -0.187 A  
HETATM   14  C   UNL     1      -9.443   8.381  70.538  1.00  0.00    -0.186 A  
HETATM   15  C   UNL     1     -10.589   9.708  68.585  1.00  0.00    -0.217 C  
HETATM   16  C   UNL     1      -8.252   8.364  71.232  1.00  0.00    -0.134 A  
HETATM   17  S   UNL     1      -7.147   9.538  70.650  1.00  0.00    -0.100 SA 
ENDBRANCH   8   9
ENDBRANCH   7   8
TORSDOF 2
ENDMDL
MODEL      143
REMARK 921   NORMALIZED FREE ENERGY PREDICTED BY IDOCK:   -3.54 KCAL/MOL
REMARK 922        TOTAL FREE ENERGY PREDICTED BY IDOCK:   -4.32 KCAL/MOL
REMARK 923 INTER-LIGAND FREE ENERGY PREDICTED BY IDOCK:   -4.61 KCAL/MOL
REMARK 924 INTRA-LIGAND FREE ENERGY PREDICTED BY IDOCK:    0.29 KCAL/MOL
REMARK 927      BINDING AFFINITY PREDICTED BY RF-SCORE:    0.00 PKD
ROOT
HETATM    1 CL   UNL     1     -12.893  12.538  64.511  1.00  0.00    -0.459 Cl 
HETATM    2  C   UNL     1     -11.734  13.511  65.344  1.00  0.00    -0.332 A  
HETATM    3  C   UNL     1     -11.153  14.566  64.630  1.00  0.00    -0.356 A  
HETATM    4  C   UNL     1     -10.221  15.404  65.241  1.00  0.00    -0.390 A  
HETATM    5  C   UNL     1      -9.883  15.206  66.576  1.00  0.00    -0.278 A  
HETATM    6  C   UNL     1     -10.454  14.151  67.288  1.00  0.00    -0.272 A  
HETATM    7  C   UNL     1     -11.366  13.268  66.677  1.00  0.00    -0.353 A  
ENDROOT
BRANCH   7   8
HETATM    8  C   UNL     1     -11.870  12.080  67.474  1.00  0.00    -0.205 C  
BRANCH   8   9
HETATM    9  N   UNL     1     -11.164  10.832  67.131  1.00  0.00    -0.349 NA 
HETATM   10  C   UNL     1     -10.533  10.195  68.315  1.00  0.00    -0.211 C  
HETATM   11  C   UNL     1     -10.011   8.774  67.995  1.00  0.00    -0.220 C  
HETATM   12  C   UNL     1      -9.376   8.754  66.642  1.00  0.00    -0.189 A  
HETATM   13  C   UNL     1      -9.452   9.802  65.749  1.00  0.00    -0.300 A  
HETATM   14  C   UNL     1      -8.804   9.474  64.520  1.00  0.00    -0.249 A  
HETATM   15  C   UNL     1     -10.141  11.094  66.095  1.00  0.00    -0.238 C  
HETATM   16  C   UNL     1      -8.287   8.196  64.531  1.00  0.00    -0.058 A  
HETATM   17  S   UNL     1      -8.560   7.401  66.024  1.00  0.00    -0.149 SA 
ENDBRANCH   8   9
ENDBRANCH   7   8
TORSDOF 2
ENDMDL
MODEL      144
REMARK 921   NORMALIZED FREE ENERGY PREDICTED BY IDOCK:   -3.53 KCAL/MOL
REMARK 922        TOTAL FREE ENERGY PREDICTED BY IDOCK:   -4.32 KCAL/MOL
REMARK 923 INTER-LIGAND FREE ENERGY PREDICTED BY IDOCK:   -3.96 KCAL/MOL
REMARK 924 INTRA-LIGAND FREE ENERGY PREDICTED BY IDOCK:   -0.35 KCAL/MOL
REMARK 927      BINDING AFFINITY PREDICTED BY RF-SCORE:    0.00 PKD
ROOT
HETATM    1 CL   UNL     1     -10.033   5.033  69.259  1.00  0.00    -0.270 Cl 
HETATM    2  C   UNL     1      -9.128   5.656  70.594  1.00  0.00    -0.150 A  
HETATM    3  C   UNL     1      -7.748   5.425  70.593  1.00  0.00    -0.089 A  
HETATM    4  C   UNL     1      -6.950   5.912  71.629  1.00  0.00    -0.073 A  
HETATM    5  C   UNL     1      -7.526   6.651  72.657  1.00  0.00    -0.092 A  
HETATM    6  C   UNL     1      -8.903   6.876  72.664  1.00  0.00    -0.137 A  
HETATM    7  C   UNL     1      -9.731   6.358  71.649  1.00  0.00    -0.174 A  
ENDROOT
BRANCH   7   8
HETATM    8  C   UNL     1     -11.232   6.547  71.770  1.00  0.00    -0.269 C  
BRANCH   8   9
HETATM    9  N   UNL     1     -11.624   7.968  71.748  1.00  0.00    -0.271 NA 
HETATM   10  C   UNL     1     -13.071   8.160  72.021  1.00  0.00    -0.293 C  
HETATM   11  C   UNL     1     -13.424   9.651  72.239  1.00  0.00    -0.488 C  
HETATM   12  C   UNL     1     -12.672  10.502  71.266  1.00  0.00    -0.428 A  
HETATM   13  C   UNL     1     -11.664  10.025  70.456  1.00  0.00    -0.400 A  
HETATM   14  C   UNL     1     -11.092  11.077  69.678  1.00  0.00    -0.320 A  
HETATM   15  C   UNL     1     -11.274   8.572  70.443  1.00  0.00    -0.211 C  
HETATM   16  C   UNL     1     -11.677  12.297  69.946  1.00  0.00    -0.273 A  
HETATM   17  S   UNL     1     -12.926  12.172  71.113  1.00  0.00    -0.023 SA 
ENDBRANCH   8   9
ENDBRANCH   7   8
TORSDOF 2
ENDMDL
MODEL      145
REMARK 921   NORMALIZED FREE ENERGY PREDICTED BY IDOCK:   -3.52 KCAL/MOL
REMARK 922        TOTAL FREE ENERGY PREDICTED BY IDOCK:   -4.30 KCAL/MOL
REMARK 923 INTER-LIGAND FREE ENERGY PREDICTED BY IDOCK:   -4.14 KCAL/MOL
REMARK 924 INTRA-LIGAND FREE ENERGY PREDICTED BY IDOCK:   -0.16 KCAL/MOL
REMARK 927      BINDING AFFINITY PREDICTED BY RF-SCORE:    0.00 PKD
ROOT
HETATM    1 CL   UNL     1      -7.325   8.162  68.443  1.00  0.00    -0.092 Cl 
HETATM    2  C   UNL     1      -8.693   8.994  67.793  1.00  0.00    -0.125 A  
HETATM    3  C   UNL     1      -8.793   9.066  66.399  1.00  0.00    -0.172 A  
HETATM    4  C   UNL     1      -9.877   9.709  65.801  1.00  0.00    -0.373 A  
HETATM    5  C   UNL     1     -10.877  10.262  66.595  1.00  0.00    -0.115 A  
HETATM    6  C   UNL     1     -10.776  10.198  67.985  1.00  0.00    -0.305 A  
HETATM    7  C   UNL     1      -9.668   9.590  68.608  1.00  0.00    -0.163 A  
ENDROOT
BRANCH   7   8
HETATM    8  C   UNL     1      -9.564   9.647  70.120  1.00  0.00    -0.254 C  
BRANCH   8   9
HETATM    9  N   UNL     1      -9.904   8.362  70.757  1.00  0.00    -0.178 NA 
HETATM   10  C   UNL     1     -11.210   7.829  70.295  1.00  0.00    -0.206 C  
HETATM   11  C   UNL     1     -11.442   6.376  70.774  1.00  0.00    -0.415 C  
HETATM   12  C   UNL     1     -10.967   6.220  72.184  1.00  0.00    -0.257 A  
HETATM   13  C   UNL     1     -10.240   7.182  72.853  1.00  0.00    -0.266 A  
HETATM   14  C   UNL     1      -9.877   6.731  74.159  1.00  0.00    -0.352 A  
HETATM   15  C   UNL     1      -9.914   8.511  72.229  1.00  0.00    -0.315 C  
HETATM   16  C   UNL     1     -10.325   5.451  74.409  1.00  0.00    -0.267 A  
HETATM   17  S   UNL     1     -11.202   4.803  73.086  1.00  0.00    -0.287 SA 
ENDBRANCH   8   9
ENDBRANCH   7   8
TORSDOF 2
ENDMDL
MODEL      146
REMARK 921   NORMALIZED FREE ENERGY PREDICTED BY IDOCK:   -3.52 KCAL/MOL
REMARK 922        TOTAL FREE ENERGY PREDICTED BY IDOCK:   -4.30 KCAL/MOL
REMARK 923 INTER-LIGAND FREE ENERGY PREDICTED BY IDOCK:   -4.44 KCAL/MOL
REMARK 924 INTRA-LIGAND FREE ENERGY PREDICTED BY IDOCK:    0.14 KCAL/MOL
REMARK 927      BINDING AFFINITY PREDICTED BY RF-SCORE:    0.00 PKD
ROOT
HETATM    1 CL   UNL     1     -11.632  12.816  68.367  1.00  0.00    -0.339 Cl 
HETATM    2  C   UNL     1     -12.082  13.101  70.011  1.00  0.00    -0.305 A  
HETATM    3  C   UNL     1     -11.727  14.336  70.565  1.00  0.00    -0.309 A  
HETATM    4  C   UNL     1     -12.069  14.644  71.882  1.00  0.00    -0.375 A  
HETATM    5  C   UNL     1     -12.790  13.728  72.641  1.00  0.00    -0.311 A  
HETATM    6  C   UNL     1     -13.139  12.494  72.095  1.00  0.00    -0.428 A  
HETATM    7  C   UNL     1     -12.766  12.147  70.781  1.00  0.00    -0.220 A  
ENDROOT
BRANCH   7   8
HETATM    8  C   UNL     1     -13.083  10.750  70.281  1.00  0.00     0.053 C  
BRANCH   8   9
HETATM    9  N   UNL     1     -12.123   9.745  70.771  1.00  0.00    -0.289 NA 
HETATM   10  C   UNL     1     -12.424   9.303  72.157  1.00  0.00    -0.351 C  
HETATM   11  C   UNL     1     -11.569   8.081  72.570  1.00  0.00    -0.464 C  
HETATM   12  C   UNL     1     -10.170   8.239  72.065  1.00  0.00    -0.269 A  
HETATM   13  C   UNL     1      -9.786   9.229  71.185  1.00  0.00    -0.327 A  
HETATM   14  C   UNL     1      -8.407   9.095  70.837  1.00  0.00    -0.231 A  
HETATM   15  C   UNL     1     -10.745  10.281  70.701  1.00  0.00    -0.055 C  
HETATM   16  C   UNL     1      -7.821   8.007  71.450  1.00  0.00    -0.094 A  
HETATM   17  S   UNL     1      -8.919   7.165  72.460  1.00  0.00    -0.128 SA 
ENDBRANCH   8   9
ENDBRANCH   7   8
TORSDOF 2
ENDMDL
MODEL      147
REMARK 921   NORMALIZED FREE ENERGY PREDICTED BY IDOCK:   -3.51 KCAL/MOL
REMARK 922        TOTAL FREE ENERGY PREDICTED BY IDOCK:   -4.29 KCAL/MOL
REMARK 923 INTER-LIGAND FREE ENERGY PREDICTED BY IDOCK:   -4.24 KCAL/MOL
REMARK 924 INTRA-LIGAND FREE ENERGY PREDICTED BY IDOCK:   -0.05 KCAL/MOL
REMARK 927      BINDING AFFINITY PREDICTED BY RF-SCORE:    0.00 PKD
ROOT
HETATM    1 CL   UNL     1     -10.883   7.491  67.165  1.00  0.00    -0.370 Cl 
HETATM    2  C   UNL     1     -10.558   6.470  68.521  1.00  0.00    -0.244 A  
HETATM    3  C   UNL     1     -10.110   5.172  68.250  1.00  0.00    -0.199 A  
HETATM    4  C   UNL     1      -9.813   4.296  69.293  1.00  0.00    -0.180 A  
HETATM    5  C   UNL     1      -9.939   4.721  70.611  1.00  0.00    -0.300 A  
HETATM    6  C   UNL     1     -10.391   6.012  70.885  1.00  0.00    -0.277 A  
HETATM    7  C   UNL     1     -10.737   6.898  69.845  1.00  0.00    -0.278 A  
ENDROOT
BRANCH   7   8
HETATM    8  C   UNL     1     -11.323   8.249  70.209  1.00  0.00    -0.129 C  
BRANCH   8   9
HETATM    9  N   UNL     1     -10.756   9.345  69.403  1.00  0.00    -0.226 NA 
HETATM   10  C   UNL     1      -9.398   9.738  69.858  1.00  0.00    -0.231 C  
HETATM   11  C   UNL     1      -8.716  10.708  68.864  1.00  0.00    -0.163 C  
HETATM   12  C   UNL     1      -9.709  11.704  68.356  1.00  0.00    -0.199 A  
HETATM   13  C   UNL     1     -11.065  11.613  68.588  1.00  0.00    -0.287 A  
HETATM   14  C   UNL     1     -11.768  12.669  67.932  1.00  0.00    -0.412 A  
HETATM   15  C   UNL     1     -11.656  10.519  69.435  1.00  0.00    -0.246 C  
HETATM   16  C   UNL     1     -10.920  13.493  67.223  1.00  0.00    -0.280 A  
HETATM   17  S   UNL     1      -9.281  13.013  67.366  1.00  0.00    -0.218 SA 
ENDBRANCH   8   9
ENDBRANCH   7   8
TORSDOF 2
ENDMDL
MODEL      148
REMARK 921   NORMALIZED FREE ENERGY PREDICTED BY IDOCK:   -3.51 KCAL/MOL
REMARK 922        TOTAL FREE ENERGY PREDICTED BY IDOCK:   -4.29 KCAL/MOL
REMARK 923 INTER-LIGAND FREE ENERGY PREDICTED BY IDOCK:   -3.95 KCAL/MOL
REMARK 924 INTRA-LIGAND FREE ENERGY PREDICTED BY IDOCK:   -0.34 KCAL/MOL
REMARK 927      BINDING AFFINITY PREDICTED BY RF-SCORE:    0.00 PKD
ROOT
HETATM    1 CL   UNL     1     -10.966   9.824  67.314  1.00  0.00    -0.242 Cl 
HETATM    2  C   UNL     1      -9.970   8.688  66.477  1.00  0.00    -0.282 A  
HETATM    3  C   UNL     1      -9.078   9.198  65.527  1.00  0.00    -0.275 A  
HETATM    4  C   UNL     1      -8.231   8.344  64.822  1.00  0.00    -0.162 A  
HETATM    5  C   UNL     1      -8.255   6.977  65.081  1.00  0.00    -0.113 A  
HETATM    6  C   UNL     1      -9.147   6.464  66.022  1.00  0.00    -0.118 A  
HETATM    7  C   UNL     1     -10.040   7.306  66.714  1.00  0.00    -0.291 A  
ENDROOT
BRANCH   7   8
HETATM    8  C   UNL     1     -11.058   6.675  67.646  1.00  0.00    -0.271 C  
BRANCH   8   9
HETATM    9  N   UNL     1     -10.511   6.423  68.991  1.00  0.00    -0.201 NA 
HETATM   10  C   UNL     1     -10.174   4.993  69.207  1.00  0.00    -0.174 C  
HETATM   11  C   UNL     1      -9.378   4.780  70.516  1.00  0.00    -0.219 C  
HETATM   12  C   UNL     1      -9.938   5.643  71.602  1.00  0.00    -0.174 A  
HETATM   13  C   UNL     1     -10.878   6.628  71.383  1.00  0.00    -0.282 A  
HETATM   14  C   UNL     1     -11.178   7.325  72.593  1.00  0.00    -0.355 A  
HETATM   15  C   UNL     1     -11.470   6.875  70.023  1.00  0.00    -0.277 C  
HETATM   16  C   UNL     1     -10.442   6.853  73.660  1.00  0.00    -0.369 A  
HETATM   17  S   UNL     1      -9.412   5.558  73.212  1.00  0.00    -0.146 SA 
ENDBRANCH   8   9
ENDBRANCH   7   8
TORSDOF 2
ENDMDL
MODEL      149
REMARK 921   NORMALIZED FREE ENERGY PREDICTED BY IDOCK:   -3.49 KCAL/MOL
REMARK 922        TOTAL FREE ENERGY PREDICTED BY IDOCK:   -4.27 KCAL/MOL
REMARK 923 INTER-LIGAND FREE ENERGY PREDICTED BY IDOCK:   -3.87 KCAL/MOL
REMARK 924 INTRA-LIGAND FREE ENERGY PREDICTED BY IDOCK:   -0.40 KCAL/MOL
REMARK 927      BINDING AFFINITY PREDICTED BY RF-SCORE:    0.00 PKD
ROOT
HETATM    1 CL   UNL     1      -7.644   7.207  66.492  1.00  0.00    -0.090 Cl 
HETATM    2  C   UNL     1      -8.660   8.566  66.821  1.00  0.00    -0.114 A  
HETATM    3  C   UNL     1      -8.063   9.832  66.789  1.00  0.00    -0.120 A  
HETATM    4  C   UNL     1      -8.822  10.977  67.029  1.00  0.00    -0.143 A  
HETATM    5  C   UNL     1     -10.186  10.863  67.278  1.00  0.00    -0.242 A  
HETATM    6  C   UNL     1     -10.782   9.603  67.318  1.00  0.00    -0.284 A  
HETATM    7  C   UNL     1     -10.024   8.432  67.120  1.00  0.00    -0.304 A  
ENDROOT
BRANCH   7   8
HETATM    8  C   UNL     1     -10.710   7.088  67.281  1.00  0.00    -0.342 C  
BRANCH   8   9
HETATM    9  N   UNL     1     -10.369   6.430  68.555  1.00  0.00    -0.177 NA 
HETATM   10  C   UNL     1      -9.978   5.009  68.371  1.00  0.00    -0.136 C  
HETATM   11  C   UNL     1      -9.389   4.401  69.666  1.00  0.00    -0.228 C  
HETATM   12  C   UNL     1     -10.168   4.871  70.853  1.00  0.00    -0.202 A  
HETATM   13  C   UNL     1     -11.123   5.864  70.793  1.00  0.00    -0.324 A  
HETATM   14  C   UNL     1     -11.655   6.139  72.089  1.00  0.00    -0.369 A  
HETATM   15  C   UNL     1     -11.506   6.522  69.496  1.00  0.00    -0.319 C  
HETATM   16  C   UNL     1     -11.069   5.362  73.066  1.00  0.00    -0.313 A  
HETATM   17  S   UNL     1      -9.900   4.287  72.423  1.00  0.00    -0.164 SA 
ENDBRANCH   8   9
ENDBRANCH   7   8
TORSDOF 2
ENDMDL
MODEL      150
REMARK 921   NORMALIZED FREE ENERGY PREDICTED BY IDOCK:   -3.49 KCAL/MOL
REMARK 922        TOTAL FREE ENERGY PREDICTED BY IDOCK:   -4.26 KCAL/MOL
REMARK 923 INTER-LIGAND FREE ENERGY PREDICTED BY IDOCK:   -4.45 KCAL/MOL
REMARK 924 INTRA-LIGAND FREE ENERGY PREDICTED BY IDOCK:    0.19 KCAL/MOL
REMARK 927      BINDING AFFINITY PREDICTED BY RF-SCORE:    0.00 PKD
ROOT
HETATM    1 CL   UNL     1     -10.211  10.716  65.752  1.00  0.00    -0.321 Cl 
HETATM    2  C   UNL     1      -9.718  12.001  66.797  1.00  0.00    -0.207 A  
HETATM    3  C   UNL     1      -8.387  12.425  66.706  1.00  0.00    -0.060 A  
HETATM    4  C   UNL     1      -7.921  13.467  67.507  1.00  0.00    -0.186 A  
HETATM    5  C   UNL     1      -8.790  14.106  68.386  1.00  0.00    -0.187 A  
HETATM    6  C   UNL     1     -10.115  13.681  68.484  1.00  0.00    -0.219 A  
HETATM    7  C   UNL     1     -10.594  12.603  67.714  1.00  0.00    -0.233 A  
ENDROOT
BRANCH   7   8
HETATM    8  C   UNL     1     -12.014  12.121  67.944  1.00  0.00    -0.148 C  
BRANCH   8   9
HETATM    9  N   UNL     1     -12.099  11.107  69.010  1.00  0.00    -0.476 NA 
HETATM   10  C   UNL     1     -12.527  11.685  70.310  1.00  0.00    -0.182 C  
HETATM   11  C   UNL     1     -12.850  10.587  71.350  1.00  0.00    -0.551 C  
HETATM   12  C   UNL     1     -11.847   9.481  71.257  1.00  0.00    -0.373 A  
HETATM   13  C   UNL     1     -10.917   9.381  70.244  1.00  0.00    -0.305 A  
HETATM   14  C   UNL     1     -10.135   8.194  70.385  1.00  0.00    -0.196 A  
HETATM   15  C   UNL     1     -10.796  10.424  69.168  1.00  0.00    -0.236 C  
HETATM   16  C   UNL     1     -10.519   7.447  71.479  1.00  0.00    -0.201 A  
HETATM   17  S   UNL     1     -11.799   8.183  72.347  1.00  0.00    -0.367 SA 
ENDBRANCH   8   9
ENDBRANCH   7   8
TORSDOF 2
ENDMDL
MODEL      151
REMARK 921   NORMALIZED FREE ENERGY PREDICTED BY IDOCK:   -3.47 KCAL/MOL
REMARK 922        TOTAL FREE ENERGY PREDICTED BY IDOCK:   -4.25 KCAL/MOL
REMARK 923 INTER-LIGAND FREE ENERGY PREDICTED BY IDOCK:   -4.13 KCAL/MOL
REMARK 924 INTRA-LIGAND FREE ENERGY PREDICTED BY IDOCK:   -0.12 KCAL/MOL
REMARK 927      BINDING AFFINITY PREDICTED BY RF-SCORE:    0.00 PKD
ROOT
HETATM    1 CL   UNL     1     -12.539  11.337  69.810  1.00  0.00    -0.165 Cl 
HETATM    2  C   UNL     1     -12.063  12.995  69.912  1.00  0.00    -0.277 A  
HETATM    3  C   UNL     1     -12.558  13.737  70.990  1.00  0.00    -0.446 A  
HETATM    4  C   UNL     1     -12.204  15.077  71.147  1.00  0.00    -0.381 A  
HETATM    5  C   UNL     1     -11.336  15.674  70.240  1.00  0.00    -0.357 A  
HETATM    6  C   UNL     1     -10.847  14.940  69.160  1.00  0.00    -0.253 A  
HETATM    7  C   UNL     1     -11.225  13.597  68.960  1.00  0.00    -0.316 A  
ENDROOT
BRANCH   7   8
HETATM    8  C   UNL     1     -10.743  12.886  67.709  1.00  0.00    -0.224 C  
BRANCH   8   9
HETATM    9  N   UNL     1     -10.169  11.560  68.001  1.00  0.00    -0.186 NA 
HETATM   10  C   UNL     1      -8.700  11.615  68.216  1.00  0.00    -0.163 C  
HETATM   11  C   UNL     1      -8.147  10.276  68.760  1.00  0.00    -0.120 C  
HETATM   12  C   UNL     1      -8.814   9.128  68.070  1.00  0.00    -0.129 A  
HETATM   13  C   UNL     1      -9.904   9.269  67.238  1.00  0.00    -0.236 A  
HETATM   14  C   UNL     1     -10.359   7.998  66.773  1.00  0.00    -0.360 A  
HETATM   15  C   UNL     1     -10.482  10.617  66.904  1.00  0.00    -0.249 C  
HETATM   16  C   UNL     1      -9.610   6.960  67.286  1.00  0.00    -0.142 A  
HETATM   17  S   UNL     1      -8.348   7.514  68.303  1.00  0.00    -0.125 SA 
ENDBRANCH   8   9
ENDBRANCH   7   8
TORSDOF 2
ENDMDL
MODEL      152
REMARK 921   NORMALIZED FREE ENERGY PREDICTED BY IDOCK:   -3.47 KCAL/MOL
REMARK 922        TOTAL FREE ENERGY PREDICTED BY IDOCK:   -4.24 KCAL/MOL
REMARK 923 INTER-LIGAND FREE ENERGY PREDICTED BY IDOCK:   -3.88 KCAL/MOL
REMARK 924 INTRA-LIGAND FREE ENERGY PREDICTED BY IDOCK:   -0.36 KCAL/MOL
REMARK 927      BINDING AFFINITY PREDICTED BY RF-SCORE:    0.00 PKD
ROOT
HETATM    1 CL   UNL     1     -11.914  12.323  68.483  1.00  0.00    -0.340 Cl 
HETATM    2  C   UNL     1     -11.152  11.295  67.321  1.00  0.00    -0.305 A  
HETATM    3  C   UNL     1     -11.078  11.764  66.004  1.00  0.00    -0.363 A  
HETATM    4  C   UNL     1     -10.464  10.996  65.015  1.00  0.00    -0.344 A  
HETATM    5  C   UNL     1      -9.900   9.768  65.342  1.00  0.00    -0.365 A  
HETATM    6  C   UNL     1      -9.978   9.294  66.652  1.00  0.00    -0.333 A  
HETATM    7  C   UNL     1     -10.631  10.036  67.657  1.00  0.00    -0.323 A  
ENDROOT
BRANCH   7   8
HETATM    8  C   UNL     1     -10.775   9.418  69.036  1.00  0.00    -0.187 C  
BRANCH   8   9
HETATM    9  N   UNL     1     -10.125   8.099  69.133  1.00  0.00    -0.197 NA 
HETATM   10  C   UNL     1     -11.069   7.033  69.555  1.00  0.00    -0.187 C  
HETATM   11  C   UNL     1     -10.445   5.624  69.416  1.00  0.00    -0.367 C  
HETATM   12  C   UNL     1      -9.017   5.650  69.859  1.00  0.00    -0.129 A  
HETATM   13  C   UNL     1      -8.327   6.811  70.137  1.00  0.00    -0.135 A  
HETATM   14  C   UNL     1      -6.969   6.529  70.477  1.00  0.00    -0.064 A  
HETATM   15  C   UNL     1      -8.984   8.162  70.073  1.00  0.00    -0.143 C  
HETATM   16  C   UNL     1      -6.690   5.180  70.423  1.00  0.00    -0.040 A  
HETATM   17  S   UNL     1      -8.064   4.253  69.988  1.00  0.00    -0.058 SA 
ENDBRANCH   8   9
ENDBRANCH   7   8
TORSDOF 2
ENDMDL
MODEL      153
REMARK 921   NORMALIZED FREE ENERGY PREDICTED BY IDOCK:   -3.45 KCAL/MOL
REMARK 922        TOTAL FREE ENERGY PREDICTED BY IDOCK:   -4.22 KCAL/MOL
REMARK 923 INTER-LIGAND FREE ENERGY PREDICTED BY IDOCK:   -4.16 KCAL/MOL
REMARK 924 INTRA-LIGAND FREE ENERGY PREDICTED BY IDOCK:   -0.06 KCAL/MOL
REMARK 927      BINDING AFFINITY PREDICTED BY RF-SCORE:    0.00 PKD
ROOT
HETATM    1 CL   UNL     1     -12.293  13.239  65.339  1.00  0.00    -0.496 Cl 
HETATM    2  C   UNL     1     -10.924  12.884  66.333  1.00  0.00    -0.285 A  
HETATM    3  C   UNL     1     -10.726  11.546  66.694  1.00  0.00    -0.311 A  
HETATM    4  C   UNL     1      -9.635  11.181  67.482  1.00  0.00    -0.181 A  
HETATM    5  C   UNL     1      -8.724  12.148  67.893  1.00  0.00    -0.176 A  
HETATM    6  C   UNL     1      -8.922  13.483  67.541  1.00  0.00    -0.210 A  
HETATM    7  C   UNL     1     -10.041  13.878  66.781  1.00  0.00    -0.265 A  
ENDROOT
BRANCH   7   8
HETATM    8  C   UNL     1     -10.256  15.358  66.523  1.00  0.00    -0.280 C  
BRANCH   8   9
HETATM    9  N   UNL     1      -9.107  16.177  66.948  1.00  0.00    -0.207 NA 
HETATM   10  C   UNL     1      -9.194  16.575  68.377  1.00  0.00    -0.222 C  
HETATM   11  C   UNL     1      -7.879  17.218  68.876  1.00  0.00    -0.206 C  
HETATM   12  C   UNL     1      -7.319  18.123  67.825  1.00  0.00    -0.215 A  
HETATM   13  C   UNL     1      -7.806  18.187  66.537  1.00  0.00    -0.287 A  
HETATM   14  C   UNL     1      -7.038  19.093  65.745  1.00  0.00    -0.296 A  
HETATM   15  C   UNL     1      -8.998  17.382  66.096  1.00  0.00    -0.139 C  
HETATM   16  C   UNL     1      -6.000  19.655  66.459  1.00  0.00    -0.167 A  
HETATM   17  S   UNL     1      -5.966  19.113  68.084  1.00  0.00    -0.217 SA 
ENDBRANCH   8   9
ENDBRANCH   7   8
TORSDOF 2
ENDMDL
MODEL      154
REMARK 921   NORMALIZED FREE ENERGY PREDICTED BY IDOCK:   -3.45 KCAL/MOL
REMARK 922        TOTAL FREE ENERGY PREDICTED BY IDOCK:   -4.22 KCAL/MOL
REMARK 923 INTER-LIGAND FREE ENERGY PREDICTED BY IDOCK:   -4.24 KCAL/MOL
REMARK 924 INTRA-LIGAND FREE ENERGY PREDICTED BY IDOCK:    0.02 KCAL/MOL
REMARK 927      BINDING AFFINITY PREDICTED BY RF-SCORE:    0.00 PKD
ROOT
HETATM    1 CL   UNL     1      -9.948  18.591  66.179  1.00  0.00    -0.362 Cl 
HETATM    2  C   UNL     1      -8.664  18.527  67.334  1.00  0.00    -0.261 A  
HETATM    3  C   UNL     1      -8.425  19.681  68.089  1.00  0.00    -0.357 A  
HETATM    4  C   UNL     1      -7.416  19.700  69.051  1.00  0.00    -0.345 A  
HETATM    5  C   UNL     1      -6.656  18.557  69.279  1.00  0.00    -0.267 A  
HETATM    6  C   UNL     1      -6.886  17.408  68.523  1.00  0.00    -0.203 A  
HETATM    7  C   UNL     1      -7.874  17.382  67.518  1.00  0.00    -0.209 A  
ENDROOT
BRANCH   7   8
HETATM    8  C   UNL     1      -8.003  16.137  66.660  1.00  0.00    -0.270 C  
BRANCH   8   9
HETATM    9  N   UNL     1      -9.074  15.239  67.127  1.00  0.00    -0.200 NA 
HETATM   10  C   UNL     1      -9.314  15.357  68.588  1.00  0.00    -0.202 C  
HETATM   11  C   UNL     1     -10.593  14.603  69.025  1.00  0.00    -0.248 C  
HETATM   12  C   UNL     1     -10.691  13.298  68.299  1.00  0.00    -0.252 A  
HETATM   13  C   UNL     1      -9.869  12.947  67.249  1.00  0.00    -0.218 A  
HETATM   14  C   UNL     1     -10.234  11.673  66.719  1.00  0.00    -0.248 A  
HETATM   15  C   UNL     1      -8.750  13.837  66.782  1.00  0.00    -0.087 C  
HETATM   16  C   UNL     1     -11.321  11.131  67.373  1.00  0.00    -0.255 A  
HETATM   17  S   UNL     1     -11.882  12.141  68.639  1.00  0.00    -0.254 SA 
ENDBRANCH   8   9
ENDBRANCH   7   8
TORSDOF 2
ENDMDL
MODEL      155
REMARK 921   NORMALIZED FREE ENERGY PREDICTED BY IDOCK:   -3.44 KCAL/MOL
REMARK 922        TOTAL FREE ENERGY PREDICTED BY IDOCK:   -4.21 KCAL/MOL
REMARK 923 INTER-LIGAND FREE ENERGY PREDICTED BY IDOCK:   -3.85 KCAL/MOL
REMARK 924 INTRA-LIGAND FREE ENERGY PREDICTED BY IDOCK:   -0.36 KCAL/MOL
REMARK 927      BINDING AFFINITY PREDICTED BY RF-SCORE:    0.00 PKD
ROOT
HETATM    1 CL   UNL     1     -11.038   5.973  71.879  1.00  0.00    -0.316 Cl 
HETATM    2  C   UNL     1     -11.655   7.567  71.618  1.00  0.00    -0.268 A  
HETATM    3  C   UNL     1     -12.944   7.837  72.089  1.00  0.00    -0.166 A  
HETATM    4  C   UNL     1     -13.503   9.105  71.929  1.00  0.00    -0.492 A  
HETATM    5  C   UNL     1     -12.766  10.114  71.317  1.00  0.00    -0.509 A  
HETATM    6  C   UNL     1     -11.484   9.845  70.840  1.00  0.00    -0.456 A  
HETATM    7  C   UNL     1     -10.917   8.560  70.955  1.00  0.00    -0.292 A  
ENDROOT
BRANCH   7   8
HETATM    8  C   UNL     1      -9.562   8.305  70.321  1.00  0.00    -0.168 C  
BRANCH   8   9
HETATM    9  N   UNL     1      -9.043   9.485  69.608  1.00  0.00    -0.181 NA 
HETATM   10  C   UNL     1      -8.984   9.278  68.138  1.00  0.00    -0.128 C  
HETATM   11  C   UNL     1      -8.676  10.593  67.384  1.00  0.00    -0.125 C  
HETATM   12  C   UNL     1      -7.640  11.378  68.124  1.00  0.00    -0.114 A  
HETATM   13  C   UNL     1      -7.204  11.057  69.392  1.00  0.00    -0.114 A  
HETATM   14  C   UNL     1      -6.258  12.017  69.864  1.00  0.00    -0.130 A  
HETATM   15  C   UNL     1      -7.700   9.838  70.120  1.00  0.00    -0.177 C  
HETATM   16  C   UNL     1      -6.037  13.023  68.947  1.00  0.00    -0.083 A  
HETATM   17  S   UNL     1      -6.946  12.799  67.512  1.00  0.00    -0.133 SA 
ENDBRANCH   8   9
ENDBRANCH   7   8
TORSDOF 2
ENDMDL
MODEL      156
REMARK 921   NORMALIZED FREE ENERGY PREDICTED BY IDOCK:   -3.44 KCAL/MOL
REMARK 922        TOTAL FREE ENERGY PREDICTED BY IDOCK:   -4.21 KCAL/MOL
REMARK 923 INTER-LIGAND FREE ENERGY PREDICTED BY IDOCK:   -3.98 KCAL/MOL
REMARK 924 INTRA-LIGAND FREE ENERGY PREDICTED BY IDOCK:   -0.23 KCAL/MOL
REMARK 927      BINDING AFFINITY PREDICTED BY RF-SCORE:    0.00 PKD
ROOT
HETATM    1 CL   UNL     1     -11.753  11.918  69.320  1.00  0.00    -0.360 Cl 
HETATM    2  C   UNL     1     -11.082  10.468  68.661  1.00  0.00    -0.267 A  
HETATM    3  C   UNL     1     -10.648  10.512  67.331  1.00  0.00    -0.313 A  
HETATM    4  C   UNL     1     -10.082   9.385  66.736  1.00  0.00    -0.325 A  
HETATM    5  C   UNL     1      -9.926   8.216  67.475  1.00  0.00    -0.251 A  
HETATM    6  C   UNL     1     -10.365   8.167  68.798  1.00  0.00    -0.220 A  
HETATM    7  C   UNL     1     -10.977   9.282  69.404  1.00  0.00    -0.138 A  
ENDROOT
BRANCH   7   8
HETATM    8  C   UNL     1     -11.528   9.131  70.810  1.00  0.00    -0.282 C  
BRANCH   8   9
HETATM    9  N   UNL     1     -10.698   8.248  71.649  1.00  0.00    -0.241 NA 
HETATM   10  C   UNL     1     -11.377   7.865  72.913  1.00  0.00    -0.337 C  
HETATM   11  C   UNL     1     -10.610   6.752  73.665  1.00  0.00    -0.347 C  
HETATM   12  C   UNL     1      -9.138   7.005  73.592  1.00  0.00    -0.166 A  
HETATM   13  C   UNL     1      -8.570   7.970  72.787  1.00  0.00    -0.252 A  
HETATM   14  C   UNL     1      -7.145   7.940  72.881  1.00  0.00    -0.104 A  
HETATM   15  C   UNL     1      -9.404   8.901  71.950  1.00  0.00    -0.205 C  
HETATM   16  C   UNL     1      -6.703   6.949  73.731  1.00  0.00    -0.071 A  
HETATM   17  S   UNL     1      -7.997   6.073  74.433  1.00  0.00    -0.105 SA 
ENDBRANCH   8   9
ENDBRANCH   7   8
TORSDOF 2
ENDMDL
MODEL      157
REMARK 921   NORMALIZED FREE ENERGY PREDICTED BY IDOCK:   -3.44 KCAL/MOL
REMARK 922        TOTAL FREE ENERGY PREDICTED BY IDOCK:   -4.21 KCAL/MOL
REMARK 923 INTER-LIGAND FREE ENERGY PREDICTED BY IDOCK:   -3.82 KCAL/MOL
REMARK 924 INTRA-LIGAND FREE ENERGY PREDICTED BY IDOCK:   -0.39 KCAL/MOL
REMARK 927      BINDING AFFINITY PREDICTED BY RF-SCORE:    0.00 PKD
ROOT
HETATM    1 CL   UNL     1     -10.109   9.938  70.177  1.00  0.00    -0.311 Cl 
HETATM    2  C   UNL     1     -10.490   8.499  69.300  1.00  0.00    -0.215 A  
HETATM    3  C   UNL     1     -10.371   8.549  67.906  1.00  0.00    -0.281 A  
HETATM    4  C   UNL     1     -10.647   7.422  67.132  1.00  0.00    -0.413 A  
HETATM    5  C   UNL     1     -11.020   6.233  67.750  1.00  0.00    -0.427 A  
HETATM    6  C   UNL     1     -11.147   6.182  69.138  1.00  0.00    -0.448 A  
HETATM    7  C   UNL     1     -10.913   7.321  69.934  1.00  0.00    -0.262 A  
ENDROOT
BRANCH   7   8
HETATM    8  C   UNL     1     -11.170   7.228  71.427  1.00  0.00    -0.248 C  
BRANCH   8   9
HETATM    9  N   UNL     1     -10.405   6.142  72.064  1.00  0.00    -0.195 NA 
HETATM   10  C   UNL     1     -10.977   5.739  73.374  1.00  0.00    -0.222 C  
HETATM   11  C   UNL     1     -10.323   4.446  73.915  1.00  0.00    -0.266 C  
HETATM   12  C   UNL     1      -8.849   4.471  73.659  1.00  0.00    -0.105 A  
HETATM   13  C   UNL     1      -8.230   5.415  72.867  1.00  0.00    -0.109 A  
HETATM   14  C   UNL     1      -6.831   5.152  72.759  1.00  0.00    -0.076 A  
HETATM   15  C   UNL     1      -8.992   6.548  72.236  1.00  0.00    -0.138 C  
HETATM   16  C   UNL     1      -6.461   4.019  73.452  1.00  0.00    -0.041 A  
HETATM   17  S   UNL     1      -7.788   3.288  74.252  1.00  0.00    -0.066 SA 
ENDBRANCH   8   9
ENDBRANCH   7   8
TORSDOF 2
ENDMDL
MODEL      158
REMARK 921   NORMALIZED FREE ENERGY PREDICTED BY IDOCK:   -3.44 KCAL/MOL
REMARK 922        TOTAL FREE ENERGY PREDICTED BY IDOCK:   -4.21 KCAL/MOL
REMARK 923 INTER-LIGAND FREE ENERGY PREDICTED BY IDOCK:   -3.81 KCAL/MOL
REMARK 924 INTRA-LIGAND FREE ENERGY PREDICTED BY IDOCK:   -0.39 KCAL/MOL
REMARK 927      BINDING AFFINITY PREDICTED BY RF-SCORE:    0.00 PKD
ROOT
HETATM    1 CL   UNL     1     -11.617   9.233  70.561  1.00  0.00    -0.288 Cl 
HETATM    2  C   UNL     1     -11.163   7.831  71.463  1.00  0.00    -0.244 A  
HETATM    3  C   UNL     1     -10.881   8.009  72.823  1.00  0.00    -0.438 A  
HETATM    4  C   UNL     1     -10.523   6.921  73.618  1.00  0.00    -0.400 A  
HETATM    5  C   UNL     1     -10.467   5.647  73.063  1.00  0.00    -0.246 A  
HETATM    6  C   UNL     1     -10.740   5.467  71.708  1.00  0.00    -0.271 A  
HETATM    7  C   UNL     1     -11.063   6.559  70.878  1.00  0.00    -0.345 A  
ENDROOT
BRANCH   7   8
HETATM    8  C   UNL     1     -11.244   6.312  69.392  1.00  0.00    -0.420 C  
BRANCH   8   9
HETATM    9  N   UNL     1     -10.102   6.799  68.597  1.00  0.00    -0.153 NA 
HETATM   10  C   UNL     1     -10.531   7.595  67.419  1.00  0.00    -0.297 C  
HETATM   11  C   UNL     1      -9.337   8.303  66.736  1.00  0.00    -0.232 C  
HETATM   12  C   UNL     1      -8.154   7.389  66.697  1.00  0.00    -0.123 A  
HETATM   13  C   UNL     1      -8.099   6.185  67.369  1.00  0.00    -0.109 A  
HETATM   14  C   UNL     1      -6.826   5.562  67.194  1.00  0.00    -0.064 A  
HETATM   15  C   UNL     1      -9.266   5.660  68.157  1.00  0.00    -0.110 C  
HETATM   16  C   UNL     1      -5.976   6.324  66.422  1.00  0.00    -0.028 A  
HETATM   17  S   UNL     1      -6.715   7.774  65.886  1.00  0.00    -0.046 SA 
ENDBRANCH   8   9
ENDBRANCH   7   8
TORSDOF 2
ENDMDL
MODEL      159
REMARK 921   NORMALIZED FREE ENERGY PREDICTED BY IDOCK:   -3.43 KCAL/MOL
REMARK 922        TOTAL FREE ENERGY PREDICTED BY IDOCK:   -4.20 KCAL/MOL
REMARK 923 INTER-LIGAND FREE ENERGY PREDICTED BY IDOCK:   -4.20 KCAL/MOL
REMARK 924 INTRA-LIGAND FREE ENERGY PREDICTED BY IDOCK:   -0.00 KCAL/MOL
REMARK 927      BINDING AFFINITY PREDICTED BY RF-SCORE:    0.00 PKD
ROOT
HETATM    1 CL   UNL     1      -8.333   7.898  74.114  1.00  0.00    -0.292 Cl 
HETATM    2  C   UNL     1      -9.215   6.557  73.475  1.00  0.00    -0.134 A  
HETATM    3  C   UNL     1      -8.596   5.302  73.526  1.00  0.00    -0.112 A  
HETATM    4  C   UNL     1      -9.253   4.171  73.043  1.00  0.00    -0.126 A  
HETATM    5  C   UNL     1     -10.540   4.285  72.529  1.00  0.00    -0.183 A  
HETATM    6  C   UNL     1     -11.157   5.534  72.470  1.00  0.00    -0.324 A  
HETATM    7  C   UNL     1     -10.494   6.696  72.914  1.00  0.00    -0.254 A  
ENDROOT
BRANCH   7   8
HETATM    8  C   UNL     1     -11.176   8.038  72.725  1.00  0.00    -0.382 C  
BRANCH   8   9
HETATM    9  N   UNL     1     -11.159   8.485  71.321  1.00  0.00    -0.249 NA 
HETATM   10  C   UNL     1      -9.972   7.986  70.582  1.00  0.00    -0.189 C  
HETATM   11  C   UNL     1     -10.086   8.251  69.062  1.00  0.00    -0.208 C  
HETATM   12  C   UNL     1     -10.668   9.607  68.820  1.00  0.00    -0.206 A  
HETATM   13  C   UNL     1     -11.211  10.391  69.816  1.00  0.00    -0.353 A  
HETATM   14  C   UNL     1     -11.740  11.604  69.279  1.00  0.00    -0.396 A  
HETATM   15  C   UNL     1     -11.207   9.963  71.257  1.00  0.00    -0.286 C  
HETATM   16  C   UNL     1     -11.592  11.673  67.909  1.00  0.00    -0.298 A  
HETATM   17  S   UNL     1     -10.796  10.295  67.275  1.00  0.00    -0.207 SA 
ENDBRANCH   8   9
ENDBRANCH   7   8
TORSDOF 2
ENDMDL
MODEL      160
REMARK 921   NORMALIZED FREE ENERGY PREDICTED BY IDOCK:   -3.41 KCAL/MOL
REMARK 922        TOTAL FREE ENERGY PREDICTED BY IDOCK:   -4.18 KCAL/MOL
REMARK 923 INTER-LIGAND FREE ENERGY PREDICTED BY IDOCK:   -3.82 KCAL/MOL
REMARK 924 INTRA-LIGAND FREE ENERGY PREDICTED BY IDOCK:   -0.36 KCAL/MOL
REMARK 927      BINDING AFFINITY PREDICTED BY RF-SCORE:    0.00 PKD
ROOT
HETATM    1 CL   UNL     1      -9.503   2.682  68.275  1.00  0.00    -0.257 Cl 
HETATM    2  C   UNL     1      -9.170   4.089  67.327  1.00  0.00    -0.165 A  
HETATM    3  C   UNL     1      -9.163   3.935  65.936  1.00  0.00    -0.155 A  
HETATM    4  C   UNL     1      -8.918   5.028  65.106  1.00  0.00    -0.143 A  
HETATM    5  C   UNL     1      -8.701   6.285  65.662  1.00  0.00    -0.122 A  
HETATM    6  C   UNL     1      -8.700   6.440  67.048  1.00  0.00    -0.115 A  
HETATM    7  C   UNL     1      -8.905   5.340  67.905  1.00  0.00    -0.105 A  
ENDROOT
BRANCH   7   8
HETATM    8  C   UNL     1      -8.786   5.555  69.402  1.00  0.00    -0.106 C  
BRANCH   8   9
HETATM    9  N   UNL     1      -9.669   6.630  69.889  1.00  0.00    -0.158 NA 
HETATM   10  C   UNL     1      -8.963   7.578  70.789  1.00  0.00    -0.149 C  
HETATM   11  C   UNL     1      -9.821   8.829  71.094  1.00  0.00    -0.313 C  
HETATM   12  C   UNL     1     -11.247   8.433  71.308  1.00  0.00    -0.259 A  
HETATM   13  C   UNL     1     -11.733   7.168  71.051  1.00  0.00    -0.358 A  
HETATM   14  C   UNL     1     -13.138   7.103  71.293  1.00  0.00    -0.361 A  
HETATM   15  C   UNL     1     -10.839   6.052  70.586  1.00  0.00    -0.297 C  
HETATM   16  C   UNL     1     -13.652   8.317  71.698  1.00  0.00    -0.346 A  
HETATM   17  S   UNL     1     -12.442   9.525  71.813  1.00  0.00    -0.406 SA 
ENDBRANCH   8   9
ENDBRANCH   7   8
TORSDOF 2
ENDMDL
MODEL      161
REMARK 921   NORMALIZED FREE ENERGY PREDICTED BY IDOCK:   -3.38 KCAL/MOL
REMARK 922        TOTAL FREE ENERGY PREDICTED BY IDOCK:   -4.15 KCAL/MOL
REMARK 923 INTER-LIGAND FREE ENERGY PREDICTED BY IDOCK:   -4.40 KCAL/MOL
REMARK 924 INTRA-LIGAND FREE ENERGY PREDICTED BY IDOCK:    0.25 KCAL/MOL
REMARK 927      BINDING AFFINITY PREDICTED BY RF-SCORE:    0.00 PKD
ROOT
HETATM    1 CL   UNL     1      -6.580  18.971  65.213  1.00  0.00    -0.300 Cl 
HETATM    2  C   UNL     1      -6.395  19.380  66.882  1.00  0.00    -0.185 A  
HETATM    3  C   UNL     1      -6.341  20.741  67.205  1.00  0.00    -0.338 A  
HETATM    4  C   UNL     1      -6.208  21.147  68.532  1.00  0.00    -0.090 A  
HETATM    5  C   UNL     1      -6.151  20.195  69.545  1.00  0.00    -0.375 A  
HETATM    6  C   UNL     1      -6.197  18.838  69.226  1.00  0.00    -0.283 A  
HETATM    7  C   UNL     1      -6.290  18.407  67.888  1.00  0.00    -0.192 A  
ENDROOT
BRANCH   7   8
HETATM    8  C   UNL     1      -6.228  16.918  67.600  1.00  0.00    -0.151 C  
BRANCH   8   9
HETATM    9  N   UNL     1      -7.556  16.281  67.642  1.00  0.00    -0.134 NA 
HETATM   10  C   UNL     1      -8.222  16.272  66.314  1.00  0.00    -0.277 C  
HETATM   11  C   UNL     1      -9.493  15.391  66.313  1.00  0.00    -0.342 C  
HETATM   12  C   UNL     1     -10.251  15.584  67.588  1.00  0.00    -0.255 A  
HETATM   13  C   UNL     1      -9.756  16.280  68.671  1.00  0.00    -0.235 A  
HETATM   14  C   UNL     1     -10.676  16.247  69.762  1.00  0.00    -0.345 A  
HETATM   15  C   UNL     1      -8.417  16.964  68.633  1.00  0.00    -0.260 C  
HETATM   16  C   UNL     1     -11.807  15.516  69.466  1.00  0.00    -0.372 A  
HETATM   17  S   UNL     1     -11.775  14.893  67.870  1.00  0.00    -0.263 SA 
ENDBRANCH   8   9
ENDBRANCH   7   8
TORSDOF 2
ENDMDL
MODEL      162
REMARK 921   NORMALIZED FREE ENERGY PREDICTED BY IDOCK:   -3.38 KCAL/MOL
REMARK 922        TOTAL FREE ENERGY PREDICTED BY IDOCK:   -4.14 KCAL/MOL
REMARK 923 INTER-LIGAND FREE ENERGY PREDICTED BY IDOCK:   -3.76 KCAL/MOL
REMARK 924 INTRA-LIGAND FREE ENERGY PREDICTED BY IDOCK:   -0.38 KCAL/MOL
REMARK 927      BINDING AFFINITY PREDICTED BY RF-SCORE:    0.00 PKD
ROOT
HETATM    1 CL   UNL     1     -10.602  13.185  67.005  1.00  0.00    -0.257 Cl 
HETATM    2  C   UNL     1     -11.345  12.790  68.514  1.00  0.00    -0.291 A  
HETATM    3  C   UNL     1     -11.667  13.853  69.366  1.00  0.00    -0.367 A  
HETATM    4  C   UNL     1     -12.282  13.612  70.594  1.00  0.00    -0.434 A  
HETATM    5  C   UNL     1     -12.599  12.310  70.966  1.00  0.00    -0.352 A  
HETATM    6  C   UNL     1     -12.273  11.248  70.123  1.00  0.00    -0.410 A  
HETATM    7  C   UNL     1     -11.614  11.466  68.897  1.00  0.00    -0.388 A  
ENDROOT
BRANCH   7   8
HETATM    8  C   UNL     1     -11.191  10.262  68.075  1.00  0.00    -0.235 C  
BRANCH   8   9
HETATM    9  N   UNL     1      -9.911   9.691  68.530  1.00  0.00    -0.153 NA 
HETATM   10  C   UNL     1      -8.853   9.774  67.490  1.00  0.00    -0.125 C  
HETATM   11  C   UNL     1      -7.461   9.403  68.054  1.00  0.00    -0.080 C  
HETATM   12  C   UNL     1      -7.579   8.238  68.986  1.00  0.00    -0.089 A  
HETATM   13  C   UNL     1      -8.785   7.733  69.424  1.00  0.00    -0.135 A  
HETATM   14  C   UNL     1      -8.585   6.663  70.348  1.00  0.00    -0.143 A  
HETATM   15  C   UNL     1     -10.100   8.283  68.944  1.00  0.00    -0.199 C  
HETATM   16  C   UNL     1      -7.247   6.423  70.581  1.00  0.00    -0.074 A  
HETATM   17  S   UNL     1      -6.235   7.464  69.671  1.00  0.00    -0.031 SA 
ENDBRANCH   8   9
ENDBRANCH   7   8
TORSDOF 2
ENDMDL
MODEL      163
REMARK 921   NORMALIZED FREE ENERGY PREDICTED BY IDOCK:   -3.37 KCAL/MOL
REMARK 922        TOTAL FREE ENERGY PREDICTED BY IDOCK:   -4.13 KCAL/MOL
REMARK 923 INTER-LIGAND FREE ENERGY PREDICTED BY IDOCK:   -3.88 KCAL/MOL
REMARK 924 INTRA-LIGAND FREE ENERGY PREDICTED BY IDOCK:   -0.25 KCAL/MOL
REMARK 927      BINDING AFFINITY PREDICTED BY RF-SCORE:    0.00 PKD
ROOT
HETATM    1 CL   UNL     1      -6.720  13.112  67.868  1.00  0.00    -0.120 Cl 
HETATM    2  C   UNL     1      -6.692  11.450  67.396  1.00  0.00    -0.094 A  
HETATM    3  C   UNL     1      -5.577  11.010  66.672  1.00  0.00    -0.098 A  
HETATM    4  C   UNL     1      -5.477   9.679  66.270  1.00  0.00    -0.044 A  
HETATM    5  C   UNL     1      -6.478   8.776  66.610  1.00  0.00    -0.063 A  
HETATM    6  C   UNL     1      -7.594   9.212  67.325  1.00  0.00    -0.088 A  
HETATM    7  C   UNL     1      -7.734  10.562  67.705  1.00  0.00    -0.097 A  
ENDROOT
BRANCH   7   8
HETATM    8  C   UNL     1      -9.018  10.994  68.387  1.00  0.00    -0.158 C  
BRANCH   8   9
HETATM    9  N   UNL     1      -9.840  11.873  67.536  1.00  0.00    -0.186 NA 
HETATM   10  C   UNL     1     -11.019  12.418  68.257  1.00  0.00    -0.236 C  
HETATM   11  C   UNL     1     -11.731  13.525  67.443  1.00  0.00    -0.419 C  
HETATM   12  C   UNL     1     -11.782  13.144  65.997  1.00  0.00    -0.379 A  
HETATM   13  C   UNL     1     -11.098  12.070  65.468  1.00  0.00    -0.361 A  
HETATM   14  C   UNL     1     -11.289  11.989  64.055  1.00  0.00    -0.478 A  
HETATM   15  C   UNL     1     -10.282  11.144  66.327  1.00  0.00    -0.239 C  
HETATM   16  C   UNL     1     -12.086  13.010  63.580  1.00  0.00    -0.531 A  
HETATM   17  S   UNL     1     -12.623  14.047  64.834  1.00  0.00    -0.286 SA 
ENDBRANCH   8   9
ENDBRANCH   7   8
TORSDOF 2
ENDMDL
MODEL      164
REMARK 921   NORMALIZED FREE ENERGY PREDICTED BY IDOCK:   -3.35 KCAL/MOL
REMARK 922        TOTAL FREE ENERGY PREDICTED BY IDOCK:   -4.11 KCAL/MOL
REMARK 923 INTER-LIGAND FREE ENERGY PREDICTED BY IDOCK:   -3.76 KCAL/MOL
REMARK 924 INTRA-LIGAND FREE ENERGY PREDICTED BY IDOCK:   -0.35 KCAL/MOL
REMARK 927      BINDING AFFINITY PREDICTED BY RF-SCORE:    0.00 PKD
ROOT
HETATM    1 CL   UNL     1     -11.083  10.076  70.619  1.00  0.00    -0.384 Cl 
HETATM    2  C   UNL     1     -11.053   8.422  71.118  1.00  0.00    -0.256 A  
HETATM    3  C   UNL     1     -11.151   8.167  72.491  1.00  0.00    -0.446 A  
HETATM    4  C   UNL     1     -11.149   6.857  72.968  1.00  0.00    -0.267 A  
HETATM    5  C   UNL     1     -11.073   5.795  72.072  1.00  0.00    -0.318 A  
HETATM    6  C   UNL     1     -10.968   6.046  70.705  1.00  0.00    -0.376 A  
HETATM    7  C   UNL     1     -10.926   7.363  70.206  1.00  0.00    -0.272 A  
ENDROOT
BRANCH   7   8
HETATM    8  C   UNL     1     -10.704   7.570  68.720  1.00  0.00    -0.095 C  
BRANCH   8   9
HETATM    9  N   UNL     1      -9.944   6.466  68.105  1.00  0.00    -0.130 NA 
HETATM   10  C   UNL     1      -8.488   6.749  68.041  1.00  0.00    -0.120 C  
HETATM   11  C   UNL     1      -7.676   5.499  67.626  1.00  0.00    -0.093 C  
HETATM   12  C   UNL     1      -8.396   4.755  66.546  1.00  0.00    -0.107 A  
HETATM   13  C   UNL     1      -9.686   5.044  66.153  1.00  0.00    -0.196 A  
HETATM   14  C   UNL     1     -10.128   4.133  65.146  1.00  0.00    -0.219 A  
HETATM   15  C   UNL     1     -10.463   6.186  66.747  1.00  0.00    -0.252 C  
HETATM   16  C   UNL     1      -9.167   3.192  64.840  1.00  0.00    -0.147 A  
HETATM   17  S   UNL     1      -7.729   3.419  65.742  1.00  0.00    -0.082 SA 
ENDBRANCH   8   9
ENDBRANCH   7   8
TORSDOF 2
ENDMDL
MODEL      165
REMARK 921   NORMALIZED FREE ENERGY PREDICTED BY IDOCK:   -3.33 KCAL/MOL
REMARK 922        TOTAL FREE ENERGY PREDICTED BY IDOCK:   -4.09 KCAL/MOL
REMARK 923 INTER-LIGAND FREE ENERGY PREDICTED BY IDOCK:   -4.24 KCAL/MOL
REMARK 924 INTRA-LIGAND FREE ENERGY PREDICTED BY IDOCK:    0.15 KCAL/MOL
REMARK 927      BINDING AFFINITY PREDICTED BY RF-SCORE:    0.00 PKD
ROOT
HETATM    1 CL   UNL     1      -6.921  11.945  66.946  1.00  0.00    -0.114 Cl 
HETATM    2  C   UNL     1      -8.017  10.622  66.758  1.00  0.00    -0.132 A  
HETATM    3  C   UNL     1      -7.596   9.372  67.225  1.00  0.00    -0.091 A  
HETATM    4  C   UNL     1      -8.431   8.261  67.122  1.00  0.00    -0.123 A  
HETATM    5  C   UNL     1      -9.702   8.400  66.571  1.00  0.00    -0.330 A  
HETATM    6  C   UNL     1     -10.122   9.642  66.098  1.00  0.00    -0.328 A  
HETATM    7  C   UNL     1      -9.276  10.768  66.156  1.00  0.00    -0.202 A  
ENDROOT
BRANCH   7   8
HETATM    8  C   UNL     1      -9.751  12.065  65.528  1.00  0.00    -0.202 C  
BRANCH   8   9
HETATM    9  N   UNL     1     -10.358  12.979  66.512  1.00  0.00    -0.269 NA 
HETATM   10  C   UNL     1      -9.559  14.216  66.704  1.00  0.00    -0.289 C  
HETATM   11  C   UNL     1     -10.321  15.269  67.544  1.00  0.00    -0.244 C  
HETATM   12  C   UNL     1     -11.045  14.601  68.669  1.00  0.00    -0.262 A  
HETATM   13  C   UNL     1     -11.173  13.233  68.786  1.00  0.00    -0.317 A  
HETATM   14  C   UNL     1     -11.964  12.890  69.925  1.00  0.00    -0.377 A  
HETATM   15  C   UNL     1     -10.533  12.286  67.808  1.00  0.00    -0.209 C  
HETATM   16  C   UNL     1     -12.411  14.006  70.601  1.00  0.00    -0.375 A  
HETATM   17  S   UNL     1     -11.860  15.461  69.883  1.00  0.00    -0.374 SA 
ENDBRANCH   8   9
ENDBRANCH   7   8
TORSDOF 2
ENDMDL
MODEL      166
REMARK 921   NORMALIZED FREE ENERGY PREDICTED BY IDOCK:   -3.32 KCAL/MOL
REMARK 922        TOTAL FREE ENERGY PREDICTED BY IDOCK:   -4.08 KCAL/MOL
REMARK 923 INTER-LIGAND FREE ENERGY PREDICTED BY IDOCK:   -3.84 KCAL/MOL
REMARK 924 INTRA-LIGAND FREE ENERGY PREDICTED BY IDOCK:   -0.24 KCAL/MOL
REMARK 927      BINDING AFFINITY PREDICTED BY RF-SCORE:    0.00 PKD
ROOT
HETATM    1 CL   UNL     1     -10.033   7.110  66.799  1.00  0.00    -0.281 Cl 
HETATM    2  C   UNL     1      -8.880   8.265  66.231  1.00  0.00    -0.161 A  
HETATM    3  C   UNL     1      -8.771   8.433  64.846  1.00  0.00    -0.053 A  
HETATM    4  C   UNL     1      -7.874   9.358  64.314  1.00  0.00    -0.124 A  
HETATM    5  C   UNL     1      -7.097  10.137  65.166  1.00  0.00    -0.137 A  
HETATM    6  C   UNL     1      -7.197   9.967  66.547  1.00  0.00    -0.101 A  
HETATM    7  C   UNL     1      -8.068   9.008  67.102  1.00  0.00    -0.106 A  
ENDROOT
BRANCH   7   8
HETATM    8  C   UNL     1      -8.052   8.799  68.605  1.00  0.00    -0.116 C  
BRANCH   8   9
HETATM    9  N   UNL     1      -9.357   9.086  69.227  1.00  0.00    -0.148 NA 
HETATM   10  C   UNL     1      -9.714  10.526  69.157  1.00  0.00    -0.211 C  
HETATM   11  C   UNL     1     -11.179  10.778  69.585  1.00  0.00    -0.355 C  
HETATM   12  C   UNL     1     -11.522   9.925  70.764  1.00  0.00    -0.354 A  
HETATM   13  C   UNL     1     -10.708   8.919  71.239  1.00  0.00    -0.357 A  
HETATM   14  C   UNL     1     -11.322   8.239  72.335  1.00  0.00    -0.457 A  
HETATM   15  C   UNL     1      -9.359   8.635  70.637  1.00  0.00    -0.185 C  
HETATM   16  C   UNL     1     -12.572   8.744  72.624  1.00  0.00    -0.212 A  
HETATM   17  S   UNL     1     -12.995  10.050  71.597  1.00  0.00    -0.481 SA 
ENDBRANCH   8   9
ENDBRANCH   7   8
TORSDOF 2
ENDMDL
MODEL      167
REMARK 921   NORMALIZED FREE ENERGY PREDICTED BY IDOCK:   -3.31 KCAL/MOL
REMARK 922        TOTAL FREE ENERGY PREDICTED BY IDOCK:   -4.07 KCAL/MOL
REMARK 923 INTER-LIGAND FREE ENERGY PREDICTED BY IDOCK:   -3.93 KCAL/MOL
REMARK 924 INTRA-LIGAND FREE ENERGY PREDICTED BY IDOCK:   -0.14 KCAL/MOL
REMARK 927      BINDING AFFINITY PREDICTED BY RF-SCORE:    0.00 PKD
ROOT
HETATM    1 CL   UNL     1     -11.963  12.275  67.826  1.00  0.00    -0.332 Cl 
HETATM    2  C   UNL     1     -10.744  13.488  67.650  1.00  0.00    -0.248 A  
HETATM    3  C   UNL     1     -10.286  14.107  68.819  1.00  0.00    -0.230 A  
HETATM    4  C   UNL     1      -9.293  15.084  68.758  1.00  0.00    -0.200 A  
HETATM    5  C   UNL     1      -8.736  15.429  67.531  1.00  0.00    -0.186 A  
HETATM    6  C   UNL     1      -9.195  14.819  66.363  1.00  0.00    -0.301 A  
HETATM    7  C   UNL     1     -10.227  13.860  66.400  1.00  0.00    -0.292 A  
ENDROOT
BRANCH   7   8
HETATM    8  C   UNL     1     -10.754  13.312  65.087  1.00  0.00    -0.322 C  
BRANCH   8   9
HETATM    9  N   UNL     1      -9.868  12.287  64.507  1.00  0.00    -0.156 NA 
HETATM   10  C   UNL     1     -10.476  11.612  63.332  1.00  0.00    -0.426 C  
HETATM   11  C   UNL     1      -9.453  10.722  62.587  1.00  0.00    -0.331 C  
HETATM   12  C   UNL     1      -8.591   9.996  63.571  1.00  0.00    -0.208 A  
HETATM   13  C   UNL     1      -8.588  10.265  64.923  1.00  0.00    -0.192 A  
HETATM   14  C   UNL     1      -7.625   9.458  65.601  1.00  0.00    -0.095 A  
HETATM   15  C   UNL     1      -9.509  11.284  65.535  1.00  0.00    -0.229 C  
HETATM   16  C   UNL     1      -6.934   8.636  64.735  1.00  0.00    -0.073 A  
HETATM   17  S   UNL     1      -7.461   8.817  63.115  1.00  0.00    -0.107 SA 
ENDBRANCH   8   9
ENDBRANCH   7   8
TORSDOF 2
ENDMDL
MODEL      168
REMARK 921   NORMALIZED FREE ENERGY PREDICTED BY IDOCK:   -3.30 KCAL/MOL
REMARK 922        TOTAL FREE ENERGY PREDICTED BY IDOCK:   -4.06 KCAL/MOL
REMARK 923 INTER-LIGAND FREE ENERGY PREDICTED BY IDOCK:   -3.70 KCAL/MOL
REMARK 924 INTRA-LIGAND FREE ENERGY PREDICTED BY IDOCK:   -0.36 KCAL/MOL
REMARK 927      BINDING AFFINITY PREDICTED BY RF-SCORE:    0.00 PKD
ROOT
HETATM    1 CL   UNL     1      -8.173   8.731  68.309  1.00  0.00    -0.117 Cl 
HETATM    2  C   UNL     1      -8.266   8.885  66.590  1.00  0.00    -0.111 A  
HETATM    3  C   UNL     1      -7.337   8.162  65.832  1.00  0.00    -0.076 A  
HETATM    4  C   UNL     1      -7.360   8.225  64.439  1.00  0.00    -0.092 A  
HETATM    5  C   UNL     1      -8.327   8.992  63.797  1.00  0.00    -0.178 A  
HETATM    6  C   UNL     1      -9.249   9.719  64.549  1.00  0.00    -0.310 A  
HETATM    7  C   UNL     1      -9.216   9.702  65.958  1.00  0.00    -0.232 A  
ENDROOT
BRANCH   7   8
HETATM    8  C   UNL     1     -10.178  10.597  66.717  1.00  0.00    -0.233 C  
BRANCH   8   9
HETATM    9  N   UNL     1      -9.760  12.011  66.706  1.00  0.00    -0.203 NA 
HETATM   10  C   UNL     1      -9.318  12.481  68.044  1.00  0.00    -0.205 C  
HETATM   11  C   UNL     1      -8.654  13.876  67.973  1.00  0.00    -0.178 C  
HETATM   12  C   UNL     1      -9.405  14.754  67.024  1.00  0.00    -0.233 A  
HETATM   13  C   UNL     1     -10.403  14.295  66.189  1.00  0.00    -0.305 A  
HETATM   14  C   UNL     1     -10.895  15.346  65.357  1.00  0.00    -0.403 A  
HETATM   15  C   UNL     1     -10.863  12.864  66.211  1.00  0.00    -0.275 C  
HETATM   16  C   UNL     1     -10.240  16.538  65.583  1.00  0.00    -0.292 A  
HETATM   17  S   UNL     1      -9.053  16.400  66.812  1.00  0.00    -0.254 SA 
ENDBRANCH   8   9
ENDBRANCH   7   8
TORSDOF 2
ENDMDL
MODEL      169
REMARK 921   NORMALIZED FREE ENERGY PREDICTED BY IDOCK:   -3.30 KCAL/MOL
REMARK 922        TOTAL FREE ENERGY PREDICTED BY IDOCK:   -4.05 KCAL/MOL
REMARK 923 INTER-LIGAND FREE ENERGY PREDICTED BY IDOCK:   -3.69 KCAL/MOL
REMARK 924 INTRA-LIGAND FREE ENERGY PREDICTED BY IDOCK:   -0.36 KCAL/MOL
REMARK 927      BINDING AFFINITY PREDICTED BY RF-SCORE:    0.00 PKD
ROOT
HETATM    1 CL   UNL     1     -10.348  17.023  67.935  1.00  0.00    -0.323 Cl 
HETATM    2  C   UNL     1      -8.845  16.184  67.784  1.00  0.00    -0.183 A  
HETATM    3  C   UNL     1      -7.693  16.855  68.213  1.00  0.00    -0.205 A  
HETATM    4  C   UNL     1      -6.446  16.236  68.136  1.00  0.00    -0.133 A  
HETATM    5  C   UNL     1      -6.348  14.935  67.652  1.00  0.00    -0.147 A  
HETATM    6  C   UNL     1      -7.492  14.267  67.217  1.00  0.00    -0.082 A  
HETATM    7  C   UNL     1      -8.755  14.891  67.248  1.00  0.00    -0.224 A  
ENDROOT
BRANCH   7   8
HETATM    8  C   UNL     1      -9.944  14.151  66.662  1.00  0.00    -0.277 C  
BRANCH   8   9
HETATM    9  N   UNL     1      -9.726  12.694  66.600  1.00  0.00    -0.243 NA 
HETATM   10  C   UNL     1      -9.862  12.159  65.221  1.00  0.00    -0.196 C  
HETATM   11  C   UNL     1      -9.394  10.688  65.125  1.00  0.00    -0.254 C  
HETATM   12  C   UNL     1      -9.849   9.926  66.329  1.00  0.00    -0.245 A  
HETATM   13  C   UNL     1     -10.410  10.520  67.439  1.00  0.00    -0.269 A  
HETATM   14  C   UNL     1     -10.690   9.551  68.450  1.00  0.00    -0.230 A  
HETATM   15  C   UNL     1     -10.669  12.000  67.505  1.00  0.00    -0.226 C  
HETATM   16  C   UNL     1     -10.312   8.280  68.069  1.00  0.00    -0.213 A  
HETATM   17  S   UNL     1      -9.647   8.249  66.491  1.00  0.00    -0.243 SA 
ENDBRANCH   8   9
ENDBRANCH   7   8
TORSDOF 2
ENDMDL
MODEL      170
REMARK 921   NORMALIZED FREE ENERGY PREDICTED BY IDOCK:   -3.30 KCAL/MOL
REMARK 922        TOTAL FREE ENERGY PREDICTED BY IDOCK:   -4.05 KCAL/MOL
REMARK 923 INTER-LIGAND FREE ENERGY PREDICTED BY IDOCK:   -5.09 KCAL/MOL
REMARK 924 INTRA-LIGAND FREE ENERGY PREDICTED BY IDOCK:    1.03 KCAL/MOL
REMARK 927      BINDING AFFINITY PREDICTED BY RF-SCORE:    0.00 PKD
ROOT
HETATM    1 CL   UNL     1     -13.256  14.697  71.452  1.00  0.00    -0.400 Cl 
HETATM    2  C   UNL     1     -12.877  13.026  71.228  1.00  0.00    -0.281 A  
HETATM    3  C   UNL     1     -13.580  12.101  72.009  1.00  0.00    -0.263 A  
HETATM    4  C   UNL     1     -13.340  10.734  71.873  1.00  0.00    -0.445 A  
HETATM    5  C   UNL     1     -12.412  10.285  70.939  1.00  0.00    -0.466 A  
HETATM    6  C   UNL     1     -11.704  11.203  70.165  1.00  0.00    -0.439 A  
HETATM    7  C   UNL     1     -11.903  12.590  70.317  1.00  0.00    -0.305 A  
ENDROOT
BRANCH   7   8
HETATM    8  C   UNL     1     -11.027  13.540  69.521  1.00  0.00     0.026 C  
BRANCH   8   9
HETATM    9  N   UNL     1     -10.788  13.067  68.145  1.00  0.00    -0.238 NA 
HETATM   10  C   UNL     1     -12.000  13.171  67.293  1.00  0.00    -0.335 C  
HETATM   11  C   UNL     1     -11.680  12.909  65.802  1.00  0.00    -0.437 C  
HETATM   12  C   UNL     1     -10.707  11.780  65.678  1.00  0.00    -0.280 A  
HETATM   13  C   UNL     1     -10.048  11.220  66.752  1.00  0.00    -0.254 A  
HETATM   14  C   UNL     1      -9.142  10.204  66.322  1.00  0.00    -0.180 A  
HETATM   15  C   UNL     1     -10.305  11.669  68.165  1.00  0.00    -0.194 C  
HETATM   16  C   UNL     1      -9.142  10.055  64.951  1.00  0.00    -0.221 A  
HETATM   17  S   UNL     1     -10.247  11.118  64.186  1.00  0.00    -0.374 SA 
ENDBRANCH   8   9
ENDBRANCH   7   8
TORSDOF 2
ENDMDL
MODEL      171
REMARK 921   NORMALIZED FREE ENERGY PREDICTED BY IDOCK:   -3.26 KCAL/MOL
REMARK 922        TOTAL FREE ENERGY PREDICTED BY IDOCK:   -4.01 KCAL/MOL
REMARK 923 INTER-LIGAND FREE ENERGY PREDICTED BY IDOCK:   -3.65 KCAL/MOL
REMARK 924 INTRA-LIGAND FREE ENERGY PREDICTED BY IDOCK:   -0.36 KCAL/MOL
REMARK 927      BINDING AFFINITY PREDICTED BY RF-SCORE:    0.00 PKD
ROOT
HETATM    1 CL   UNL     1      -9.738   3.974  69.780  1.00  0.00    -0.279 Cl 
HETATM    2  C   UNL     1     -10.480   5.260  70.665  1.00  0.00    -0.236 A  
HETATM    3  C   UNL     1     -10.570   5.110  72.054  1.00  0.00    -0.266 A  
HETATM    4  C   UNL     1     -11.142   6.113  72.837  1.00  0.00    -0.281 A  
HETATM    5  C   UNL     1     -11.605   7.279  72.237  1.00  0.00    -0.315 A  
HETATM    6  C   UNL     1     -11.524   7.428  70.852  1.00  0.00    -0.311 A  
HETATM    7  C   UNL     1     -10.987   6.409  70.040  1.00  0.00    -0.397 A  
ENDROOT
BRANCH   7   8
HETATM    8  C   UNL     1     -11.025   6.588  68.534  1.00  0.00    -0.286 C  
BRANCH   8   9
HETATM    9  N   UNL     1     -10.139   7.671  68.072  1.00  0.00    -0.179 NA 
HETATM   10  C   UNL     1     -10.344   7.999  66.638  1.00  0.00    -0.203 C  
HETATM   11  C   UNL     1      -9.595   9.290  66.229  1.00  0.00    -0.313 C  
HETATM   12  C   UNL     1      -8.246   9.326  66.874  1.00  0.00    -0.119 A  
HETATM   13  C   UNL     1      -7.845   8.438  67.850  1.00  0.00    -0.107 A  
HETATM   14  C   UNL     1      -6.533   8.754  68.318  1.00  0.00    -0.060 A  
HETATM   15  C   UNL     1      -8.724   7.307  68.308  1.00  0.00    -0.125 C  
HETATM   16  C   UNL     1      -6.014   9.868  67.694  1.00  0.00    -0.050 A  
HETATM   17  S   UNL     1      -7.091  10.519  66.531  1.00  0.00    -0.127 SA 
ENDBRANCH   8   9
ENDBRANCH   7   8
TORSDOF 2
ENDMDL
MODEL      172
REMARK 921   NORMALIZED FREE ENERGY PREDICTED BY IDOCK:   -3.25 KCAL/MOL
REMARK 922        TOTAL FREE ENERGY PREDICTED BY IDOCK:   -4.00 KCAL/MOL
REMARK 923 INTER-LIGAND FREE ENERGY PREDICTED BY IDOCK:   -3.70 KCAL/MOL
REMARK 924 INTRA-LIGAND FREE ENERGY PREDICTED BY IDOCK:   -0.29 KCAL/MOL
REMARK 927      BINDING AFFINITY PREDICTED BY RF-SCORE:    0.00 PKD
ROOT
HETATM    1 CL   UNL     1     -10.625  10.884  64.097  1.00  0.00    -0.413 Cl 
HETATM    2  C   UNL     1      -9.124  10.056  64.315  1.00  0.00    -0.255 A  
HETATM    3  C   UNL     1      -8.552   9.463  63.184  1.00  0.00    -0.222 A  
HETATM    4  C   UNL     1      -7.334   8.790  63.278  1.00  0.00    -0.100 A  
HETATM    5  C   UNL     1      -6.672   8.728  64.500  1.00  0.00    -0.070 A  
HETATM    6  C   UNL     1      -7.243   9.311  65.631  1.00  0.00    -0.090 A  
HETATM    7  C   UNL     1      -8.492   9.959  65.564  1.00  0.00    -0.148 A  
ENDROOT
BRANCH   7   8
HETATM    8  C   UNL     1      -9.109  10.480  66.849  1.00  0.00    -0.147 C  
BRANCH   8   9
HETATM    9  N   UNL     1      -9.491   9.395  67.771  1.00  0.00    -0.132 NA 
HETATM   10  C   UNL     1     -10.446   8.439  67.155  1.00  0.00    -0.310 C  
HETATM   11  C   UNL     1     -10.648   7.181  68.032  1.00  0.00    -0.251 C  
HETATM   12  C   UNL     1     -10.721   7.569  69.475  1.00  0.00    -0.217 A  
HETATM   13  C   UNL     1     -10.431   8.834  69.939  1.00  0.00    -0.227 A  
HETATM   14  C   UNL     1     -10.529   8.891  71.363  1.00  0.00    -0.375 A  
HETATM   15  C   UNL     1     -10.072   9.960  69.009  1.00  0.00    -0.189 C  
HETATM   16  C   UNL     1     -10.866   7.670  71.908  1.00  0.00    -0.233 A  
HETATM   17  S   UNL     1     -11.090   6.466  70.710  1.00  0.00    -0.327 SA 
ENDBRANCH   8   9
ENDBRANCH   7   8
TORSDOF 2
ENDMDL
MODEL      173
REMARK 921   NORMALIZED FREE ENERGY PREDICTED BY IDOCK:   -3.24 KCAL/MOL
REMARK 922        TOTAL FREE ENERGY PREDICTED BY IDOCK:   -3.98 KCAL/MOL
REMARK 923 INTER-LIGAND FREE ENERGY PREDICTED BY IDOCK:   -4.34 KCAL/MOL
REMARK 924 INTRA-LIGAND FREE ENERGY PREDICTED BY IDOCK:    0.36 KCAL/MOL
REMARK 927      BINDING AFFINITY PREDICTED BY RF-SCORE:    0.00 PKD
ROOT
HETATM    1 CL   UNL     1     -11.048  15.545  70.990  1.00  0.00    -0.396 Cl 
HETATM    2  C   UNL     1     -10.971  15.171  69.305  1.00  0.00    -0.258 A  
HETATM    3  C   UNL     1     -12.093  14.558  68.735  1.00  0.00    -0.256 A  
HETATM    4  C   UNL     1     -12.111  14.240  67.377  1.00  0.00    -0.371 A  
HETATM    5  C   UNL     1     -11.016  14.554  66.579  1.00  0.00    -0.321 A  
HETATM    6  C   UNL     1      -9.893  15.157  67.145  1.00  0.00    -0.228 A  
HETATM    7  C   UNL     1      -9.839  15.449  68.523  1.00  0.00    -0.207 A  
ENDROOT
BRANCH   7   8
HETATM    8  C   UNL     1      -8.550  16.007  69.096  1.00  0.00    -0.247 C  
BRANCH   8   9
HETATM    9  N   UNL     1      -8.133  17.255  68.433  1.00  0.00    -0.249 NA 
HETATM   10  C   UNL     1      -9.258  18.209  68.262  1.00  0.00    -0.298 C  
HETATM   11  C   UNL     1      -8.768  19.600  67.796  1.00  0.00    -0.372 C  
HETATM   12  C   UNL     1      -7.686  19.447  66.775  1.00  0.00    -0.256 A  
HETATM   13  C   UNL     1      -7.087  18.241  66.475  1.00  0.00    -0.257 A  
HETATM   14  C   UNL     1      -6.051  18.413  65.508  1.00  0.00    -0.281 A  
HETATM   15  C   UNL     1      -7.524  16.954  67.119  1.00  0.00    -0.175 C  
HETATM   16  C   UNL     1      -5.900  19.733  65.137  1.00  0.00    -0.202 A  
HETATM   17  S   UNL     1      -7.020  20.759  65.931  1.00  0.00     0.030 SA 
ENDBRANCH   8   9
ENDBRANCH   7   8
TORSDOF 2
ENDMDL
MODEL      174
REMARK 921   NORMALIZED FREE ENERGY PREDICTED BY IDOCK:   -3.22 KCAL/MOL
REMARK 922        TOTAL FREE ENERGY PREDICTED BY IDOCK:   -3.97 KCAL/MOL
REMARK 923 INTER-LIGAND FREE ENERGY PREDICTED BY IDOCK:   -3.66 KCAL/MOL
REMARK 924 INTRA-LIGAND FREE ENERGY PREDICTED BY IDOCK:   -0.31 KCAL/MOL
REMARK 927      BINDING AFFINITY PREDICTED BY RF-SCORE:    0.00 PKD
ROOT
HETATM    1 CL   UNL     1     -10.717   7.493  73.412  1.00  0.00    -0.433 Cl 
HETATM    2  C   UNL     1     -10.359   5.870  72.939  1.00  0.00    -0.200 A  
HETATM    3  C   UNL     1     -11.123   4.852  73.521  1.00  0.00    -0.405 A  
HETATM    4  C   UNL     1     -10.902   3.519  73.177  1.00  0.00    -0.248 A  
HETATM    5  C   UNL     1      -9.932   3.200  72.232  1.00  0.00    -0.236 A  
HETATM    6  C   UNL     1      -9.164   4.211  71.657  1.00  0.00    -0.186 A  
HETATM    7  C   UNL     1      -9.343   5.560  72.022  1.00  0.00    -0.164 A  
ENDROOT
BRANCH   7   8
HETATM    8  C   UNL     1      -8.405   6.600  71.439  1.00  0.00    -0.120 C  
BRANCH   8   9
HETATM    9  N   UNL     1      -8.975   7.275  70.259  1.00  0.00    -0.151 NA 
HETATM   10  C   UNL     1      -8.067   7.224  69.085  1.00  0.00    -0.121 C  
HETATM   11  C   UNL     1      -8.768   7.712  67.794  1.00  0.00    -0.127 C  
HETATM   12  C   UNL     1      -9.623   8.901  68.094  1.00  0.00    -0.145 A  
HETATM   13  C   UNL     1      -9.897   9.340  69.372  1.00  0.00    -0.177 A  
HETATM   14  C   UNL     1     -10.786  10.457  69.349  1.00  0.00    -0.287 A  
HETATM   15  C   UNL     1      -9.297   8.682  70.585  1.00  0.00    -0.185 C  
HETATM   16  C   UNL     1     -11.158  10.797  68.066  1.00  0.00    -0.299 A  
HETATM   17  S   UNL     1     -10.419   9.793  66.890  1.00  0.00    -0.179 SA 
ENDBRANCH   8   9
ENDBRANCH   7   8
TORSDOF 2
ENDMDL
MODEL      175
REMARK 921   NORMALIZED FREE ENERGY PREDICTED BY IDOCK:   -3.21 KCAL/MOL
REMARK 922        TOTAL FREE ENERGY PREDICTED BY IDOCK:   -3.95 KCAL/MOL
REMARK 923 INTER-LIGAND FREE ENERGY PREDICTED BY IDOCK:   -3.55 KCAL/MOL
REMARK 924 INTRA-LIGAND FREE ENERGY PREDICTED BY IDOCK:   -0.40 KCAL/MOL
REMARK 927      BINDING AFFINITY PREDICTED BY RF-SCORE:    0.00 PKD
ROOT
HETATM    1 CL   UNL     1      -7.566   6.672  65.963  1.00  0.00    -0.084 Cl 
HETATM    2  C   UNL     1      -7.329   8.360  66.249  1.00  0.00    -0.086 A  
HETATM    3  C   UNL     1      -6.013   8.835  66.216  1.00  0.00    -0.051 A  
HETATM    4  C   UNL     1      -5.745  10.188  66.423  1.00  0.00    -0.060 A  
HETATM    5  C   UNL     1      -6.794  11.076  66.639  1.00  0.00    -0.137 A  
HETATM    6  C   UNL     1      -8.106  10.604  66.680  1.00  0.00    -0.136 A  
HETATM    7  C   UNL     1      -8.393   9.235  66.515  1.00  0.00    -0.126 A  
ENDROOT
BRANCH   7   8
HETATM    8  C   UNL     1      -9.829   8.771  66.676  1.00  0.00    -0.265 C  
BRANCH   8   9
HETATM    9  N   UNL     1     -10.068   8.118  67.976  1.00  0.00    -0.189 NA 
HETATM   10  C   UNL     1     -10.833   6.852  67.841  1.00  0.00    -0.218 C  
HETATM   11  C   UNL     1     -10.865   6.055  69.167  1.00  0.00    -0.422 C  
HETATM   12  C   UNL     1     -11.055   6.987  70.321  1.00  0.00    -0.285 A  
HETATM   13  C   UNL     1     -10.991   8.360  70.210  1.00  0.00    -0.236 A  
HETATM   14  C   UNL     1     -11.152   8.984  71.484  1.00  0.00    -0.419 A  
HETATM   15  C   UNL     1     -10.780   9.042  68.886  1.00  0.00    -0.123 C  
HETATM   16  C   UNL     1     -11.310   8.061  72.497  1.00  0.00    -0.406 A  
HETATM   17  S   UNL     1     -11.291   6.450  71.913  1.00  0.00    -0.307 SA 
ENDBRANCH   8   9
ENDBRANCH   7   8
TORSDOF 2
ENDMDL
MODEL      176
REMARK 921   NORMALIZED FREE ENERGY PREDICTED BY IDOCK:   -3.20 KCAL/MOL
REMARK 922        TOTAL FREE ENERGY PREDICTED BY IDOCK:   -3.94 KCAL/MOL
REMARK 923 INTER-LIGAND FREE ENERGY PREDICTED BY IDOCK:   -3.60 KCAL/MOL
REMARK 924 INTRA-LIGAND FREE ENERGY PREDICTED BY IDOCK:   -0.34 KCAL/MOL
REMARK 927      BINDING AFFINITY PREDICTED BY RF-SCORE:    0.00 PKD
ROOT
HETATM    1 CL   UNL     1     -12.413  10.665  70.164  1.00  0.00    -0.374 Cl 
HETATM    2  C   UNL     1     -12.044  12.256  69.600  1.00  0.00    -0.212 A  
HETATM    3  C   UNL     1     -12.375  13.324  70.441  1.00  0.00    -0.365 A  
HETATM    4  C   UNL     1     -12.094  14.636  70.060  1.00  0.00    -0.383 A  
HETATM    5  C   UNL     1     -11.460  14.884  68.847  1.00  0.00    -0.320 A  
HETATM    6  C   UNL     1     -11.135  13.822  68.003  1.00  0.00    -0.284 A  
HETATM    7  C   UNL     1     -11.448  12.493  68.351  1.00  0.00    -0.355 A  
ENDROOT
BRANCH   7   8
HETATM    8  C   UNL     1     -11.166  11.394  67.344  1.00  0.00    -0.305 C  
BRANCH   8   9
HETATM    9  N   UNL     1      -9.783  10.891  67.432  1.00  0.00    -0.167 NA 
HETATM   10  C   UNL     1      -9.161  10.710  66.095  1.00  0.00    -0.170 C  
HETATM   11  C   UNL     1      -7.644  10.422  66.200  1.00  0.00    -0.130 C  
HETATM   12  C   UNL     1      -7.377   9.492  67.341  1.00  0.00    -0.087 A  
HETATM   13  C   UNL     1      -8.330   9.136  68.272  1.00  0.00    -0.120 A  
HETATM   14  C   UNL     1      -7.771   8.285  69.274  1.00  0.00    -0.103 A  
HETATM   15  C   UNL     1      -9.753   9.614  68.178  1.00  0.00    -0.146 C  
HETATM   16  C   UNL     1      -6.427   8.055  69.068  1.00  0.00    -0.040 A  
HETATM   17  S   UNL     1      -5.845   8.839  67.660  1.00  0.00    -0.040 SA 
ENDBRANCH   8   9
ENDBRANCH   7   8
TORSDOF 2
ENDMDL
MODEL      177
REMARK 921   NORMALIZED FREE ENERGY PREDICTED BY IDOCK:   -3.20 KCAL/MOL
REMARK 922        TOTAL FREE ENERGY PREDICTED BY IDOCK:   -3.94 KCAL/MOL
REMARK 923 INTER-LIGAND FREE ENERGY PREDICTED BY IDOCK:   -3.57 KCAL/MOL
REMARK 924 INTRA-LIGAND FREE ENERGY PREDICTED BY IDOCK:   -0.37 KCAL/MOL
REMARK 927      BINDING AFFINITY PREDICTED BY RF-SCORE:    0.00 PKD
ROOT
HETATM    1 CL   UNL     1     -11.243  11.996  64.514  1.00  0.00    -0.372 Cl 
HETATM    2  C   UNL     1     -10.848  13.360  65.498  1.00  0.00    -0.289 A  
HETATM    3  C   UNL     1     -10.653  14.583  64.846  1.00  0.00    -0.450 A  
HETATM    4  C   UNL     1     -10.347  15.731  65.576  1.00  0.00    -0.430 A  
HETATM    5  C   UNL     1     -10.257  15.667  66.963  1.00  0.00    -0.274 A  
HETATM    6  C   UNL     1     -10.444  14.448  67.615  1.00  0.00    -0.245 A  
HETATM    7  C   UNL     1     -10.713  13.269  66.892  1.00  0.00    -0.274 A  
ENDROOT
BRANCH   7   8
HETATM    8  C   UNL     1     -10.800  11.957  67.651  1.00  0.00    -0.227 C  
BRANCH   8   9
HETATM    9  N   UNL     1      -9.644  11.080  67.394  1.00  0.00    -0.163 NA 
HETATM   10  C   UNL     1     -10.051   9.712  66.984  1.00  0.00    -0.214 C  
HETATM   11  C   UNL     1      -8.847   8.879  66.483  1.00  0.00    -0.160 C  
HETATM   12  C   UNL     1      -7.652   9.134  67.345  1.00  0.00    -0.085 A  
HETATM   13  C   UNL     1      -7.600  10.129  68.299  1.00  0.00    -0.087 A  
HETATM   14  C   UNL     1      -6.316  10.172  68.921  1.00  0.00    -0.044 A  
HETATM   15  C   UNL     1      -8.782  11.010  68.595  1.00  0.00    -0.161 C  
HETATM   16  C   UNL     1      -5.455   9.229  68.400  1.00  0.00    -0.037 A  
HETATM   17  S   UNL     1      -6.197   8.278  67.184  1.00  0.00    -0.057 SA 
ENDBRANCH   8   9
ENDBRANCH   7   8
TORSDOF 2
ENDMDL
MODEL      178
REMARK 921   NORMALIZED FREE ENERGY PREDICTED BY IDOCK:   -3.18 KCAL/MOL
REMARK 922        TOTAL FREE ENERGY PREDICTED BY IDOCK:   -3.92 KCAL/MOL
REMARK 923 INTER-LIGAND FREE ENERGY PREDICTED BY IDOCK:   -4.02 KCAL/MOL
REMARK 924 INTRA-LIGAND FREE ENERGY PREDICTED BY IDOCK:    0.10 KCAL/MOL
REMARK 927      BINDING AFFINITY PREDICTED BY RF-SCORE:    0.00 PKD
ROOT
HETATM    1 CL   UNL     1     -14.409   7.083  71.694  1.00  0.00    -0.508 Cl 
HETATM    2  C   UNL     1     -13.186   8.258  71.364  1.00  0.00    -0.217 A  
HETATM    3  C   UNL     1     -13.613   9.561  71.081  1.00  0.00    -0.231 A  
HETATM    4  C   UNL     1     -12.683  10.567  70.820  1.00  0.00    -0.471 A  
HETATM    5  C   UNL     1     -11.322  10.280  70.862  1.00  0.00    -0.376 A  
HETATM    6  C   UNL     1     -10.895   8.981  71.136  1.00  0.00    -0.364 A  
HETATM    7  C   UNL     1     -11.819   7.942  71.362  1.00  0.00    -0.328 A  
ENDROOT
BRANCH   7   8
HETATM    8  C   UNL     1     -11.293   6.531  71.549  1.00  0.00    -0.291 C  
BRANCH   8   9
HETATM    9  N   UNL     1      -9.869   6.506  71.930  1.00  0.00    -0.158 NA 
HETATM   10  C   UNL     1      -9.324   5.126  71.994  1.00  0.00    -0.137 C  
HETATM   11  C   UNL     1      -7.785   5.122  72.149  1.00  0.00    -0.099 C  
HETATM   12  C   UNL     1      -7.363   6.194  73.102  1.00  0.00    -0.092 A  
HETATM   13  C   UNL     1      -8.217   7.164  73.585  1.00  0.00    -0.149 A  
HETATM   14  C   UNL     1      -7.521   8.084  74.426  1.00  0.00    -0.236 A  
HETATM   15  C   UNL     1      -9.679   7.183  73.232  1.00  0.00    -0.210 C  
HETATM   16  C   UNL     1      -6.179   7.783  74.526  1.00  0.00    -0.094 A  
HETATM   17  S   UNL     1      -5.762   6.383  73.630  1.00  0.00    -0.055 SA 
ENDBRANCH   8   9
ENDBRANCH   7   8
TORSDOF 2
ENDMDL
MODEL      179
REMARK 921   NORMALIZED FREE ENERGY PREDICTED BY IDOCK:   -3.14 KCAL/MOL
REMARK 922        TOTAL FREE ENERGY PREDICTED BY IDOCK:   -3.88 KCAL/MOL
REMARK 923 INTER-LIGAND FREE ENERGY PREDICTED BY IDOCK:   -4.26 KCAL/MOL
REMARK 924 INTRA-LIGAND FREE ENERGY PREDICTED BY IDOCK:    0.38 KCAL/MOL
REMARK 927      BINDING AFFINITY PREDICTED BY RF-SCORE:    0.00 PKD
ROOT
HETATM    1 CL   UNL     1      -7.037  19.986  65.264  1.00  0.00    -0.310 Cl 
HETATM    2  C   UNL     1      -8.294  19.539  66.363  1.00  0.00    -0.347 A  
HETATM    3  C   UNL     1      -9.588  19.984  66.069  1.00  0.00    -0.420 A  
HETATM    4  C   UNL     1     -10.656  19.650  66.901  1.00  0.00    -0.603 A  
HETATM    5  C   UNL     1     -10.438  18.850  68.018  1.00  0.00    -0.427 A  
HETATM    6  C   UNL     1      -9.149  18.411  68.318  1.00  0.00    -0.330 A  
HETATM    7  C   UNL     1      -8.050  18.773  67.513  1.00  0.00    -0.273 A  
ENDROOT
BRANCH   7   8
HETATM    8  C   UNL     1      -6.660  18.352  67.951  1.00  0.00    -0.208 C  
BRANCH   8   9
HETATM    9  N   UNL     1      -6.527  16.889  68.077  1.00  0.00    -0.140 NA 
HETATM   10  C   UNL     1      -7.579  16.159  67.325  1.00  0.00    -0.184 C  
HETATM   11  C   UNL     1      -7.291  14.640  67.258  1.00  0.00    -0.122 C  
HETATM   12  C   UNL     1      -6.767  14.160  68.574  1.00  0.00    -0.101 A  
HETATM   13  C   UNL     1      -6.403  15.004  69.602  1.00  0.00    -0.142 A  
HETATM   14  C   UNL     1      -5.885  14.265  70.709  1.00  0.00    -0.199 A  
HETATM   15  C   UNL     1      -6.562  16.496  69.503  1.00  0.00    -0.217 C  
HETATM   16  C   UNL     1      -5.863  12.908  70.463  1.00  0.00    -0.138 A  
HETATM   17  S   UNL     1      -6.486  12.522  68.914  1.00  0.00    -0.096 SA 
ENDBRANCH   8   9
ENDBRANCH   7   8
TORSDOF 2
ENDMDL
MODEL      180
REMARK 921   NORMALIZED FREE ENERGY PREDICTED BY IDOCK:   -3.13 KCAL/MOL
REMARK 922        TOTAL FREE ENERGY PREDICTED BY IDOCK:   -3.86 KCAL/MOL
REMARK 923 INTER-LIGAND FREE ENERGY PREDICTED BY IDOCK:   -4.54 KCAL/MOL
REMARK 924 INTRA-LIGAND FREE ENERGY PREDICTED BY IDOCK:    0.67 KCAL/MOL
REMARK 927      BINDING AFFINITY PREDICTED BY RF-SCORE:    0.00 PKD
ROOT
HETATM    1 CL   UNL     1     -12.123  15.202  69.994  1.00  0.00    -0.359 Cl 
HETATM    2  C   UNL     1     -12.153  13.477  69.896  1.00  0.00    -0.341 A  
HETATM    3  C   UNL     1     -12.459  12.776  71.068  1.00  0.00    -0.369 A  
HETATM    4  C   UNL     1     -12.517  11.382  71.063  1.00  0.00    -0.486 A  
HETATM    5  C   UNL     1     -12.293  10.685  69.880  1.00  0.00    -0.304 A  
HETATM    6  C   UNL     1     -11.981  11.380  68.712  1.00  0.00    -0.353 A  
HETATM    7  C   UNL     1     -11.877  12.786  68.706  1.00  0.00    -0.346 A  
ENDROOT
BRANCH   7   8
HETATM    8  C   UNL     1     -11.430  13.474  67.430  1.00  0.00    -0.336 C  
BRANCH   8   9
HETATM    9  N   UNL     1     -10.343  12.750  66.749  1.00  0.00    -0.238 NA 
HETATM   10  C   UNL     1     -10.834  11.565  66.000  1.00  0.00    -0.276 C  
HETATM   11  C   UNL     1      -9.734  10.959  65.095  1.00  0.00    -0.312 C  
HETATM   12  C   UNL     1      -8.421  10.966  65.810  1.00  0.00    -0.155 A  
HETATM   13  C   UNL     1      -8.209  11.617  67.007  1.00  0.00    -0.170 A  
HETATM   14  C   UNL     1      -6.847  11.499  67.419  1.00  0.00    -0.104 A  
HETATM   15  C   UNL     1      -9.316  12.334  67.731  1.00  0.00    -0.194 C  
HETATM   16  C   UNL     1      -6.091  10.786  66.512  1.00  0.00    -0.103 A  
HETATM   17  S   UNL     1      -7.024  10.239  65.182  1.00  0.00    -0.090 SA 
ENDBRANCH   8   9
ENDBRANCH   7   8
TORSDOF 2
ENDMDL
MODEL      181
REMARK 921   NORMALIZED FREE ENERGY PREDICTED BY IDOCK:   -3.12 KCAL/MOL
REMARK 922        TOTAL FREE ENERGY PREDICTED BY IDOCK:   -3.86 KCAL/MOL
REMARK 923 INTER-LIGAND FREE ENERGY PREDICTED BY IDOCK:   -5.43 KCAL/MOL
REMARK 924 INTRA-LIGAND FREE ENERGY PREDICTED BY IDOCK:    1.57 KCAL/MOL
REMARK 927      BINDING AFFINITY PREDICTED BY RF-SCORE:    0.00 PKD
ROOT
HETATM    1 CL   UNL     1     -13.851  13.297  72.813  1.00  0.00    -0.374 Cl 
HETATM    2  C   UNL     1     -13.140  12.121  71.765  1.00  0.00    -0.352 A  
HETATM    3  C   UNL     1     -13.312  10.774  72.106  1.00  0.00    -0.314 A  
HETATM    4  C   UNL     1     -12.780   9.768  71.301  1.00  0.00    -0.464 A  
HETATM    5  C   UNL     1     -12.094  10.103  70.138  1.00  0.00    -0.224 A  
HETATM    6  C   UNL     1     -11.915  11.444  69.798  1.00  0.00    -0.422 A  
HETATM    7  C   UNL     1     -12.408  12.476  70.621  1.00  0.00    -0.369 A  
ENDROOT
BRANCH   7   8
HETATM    8  C   UNL     1     -12.089  13.913  70.253  1.00  0.00    -0.353 C  
BRANCH   8   9
HETATM    9  N   UNL     1     -12.069  14.130  68.796  1.00  0.00    -0.327 NA 
HETATM   10  C   UNL     1     -11.703  12.902  68.045  1.00  0.00    -0.356 C  
HETATM   11  C   UNL     1     -11.924  13.069  66.523  1.00  0.00    -0.457 C  
HETATM   12  C   UNL     1     -11.489  14.433  66.089  1.00  0.00    -0.357 A  
HETATM   13  C   UNL     1     -11.151  15.440  66.968  1.00  0.00    -0.273 A  
HETATM   14  C   UNL     1     -10.835  16.644  66.268  1.00  0.00    -0.015 A  
HETATM   15  C   UNL     1     -11.134  15.225  68.457  1.00  0.00    -0.282 C  
HETATM   16  C   UNL     1     -10.967  16.500  64.903  1.00  0.00    -0.209 A  
HETATM   17  S   UNL     1     -11.444  14.914  64.463  1.00  0.00    -0.277 SA 
ENDBRANCH   8   9
ENDBRANCH   7   8
TORSDOF 2
ENDMDL
MODEL      182
REMARK 921   NORMALIZED FREE ENERGY PREDICTED BY IDOCK:   -3.12 KCAL/MOL
REMARK 922        TOTAL FREE ENERGY PREDICTED BY IDOCK:   -3.85 KCAL/MOL
REMARK 923 INTER-LIGAND FREE ENERGY PREDICTED BY IDOCK:   -3.55 KCAL/MOL
REMARK 924 INTRA-LIGAND FREE ENERGY PREDICTED BY IDOCK:   -0.31 KCAL/MOL
REMARK 927      BINDING AFFINITY PREDICTED BY RF-SCORE:    0.00 PKD
ROOT
HETATM    1 CL   UNL     1     -10.161  10.609  64.724  1.00  0.00    -0.391 Cl 
HETATM    2  C   UNL     1      -8.458  10.318  64.679  1.00  0.00    -0.175 A  
HETATM    3  C   UNL     1      -7.918   9.872  63.467  1.00  0.00    -0.155 A  
HETATM    4  C   UNL     1      -6.549   9.631  63.349  1.00  0.00    -0.109 A  
HETATM    5  C   UNL     1      -5.711   9.857  64.436  1.00  0.00    -0.098 A  
HETATM    6  C   UNL     1      -6.247  10.293  65.648  1.00  0.00    -0.113 A  
HETATM    7  C   UNL     1      -7.632  10.503  65.798  1.00  0.00    -0.142 A  
ENDROOT
BRANCH   7   8
HETATM    8  C   UNL     1      -8.164  10.875  67.170  1.00  0.00    -0.126 C  
BRANCH   8   9
HETATM    9  N   UNL     1      -8.699  12.248  67.213  1.00  0.00    -0.180 NA 
HETATM   10  C   UNL     1      -7.643  13.259  67.475  1.00  0.00    -0.164 C  
HETATM   11  C   UNL     1      -8.165  14.701  67.275  1.00  0.00    -0.235 C  
HETATM   12  C   UNL     1      -9.549  14.827  67.828  1.00  0.00    -0.209 A  
HETATM   13  C   UNL     1     -10.301  13.751  68.249  1.00  0.00    -0.247 A  
HETATM   14  C   UNL     1     -11.600  14.170  68.670  1.00  0.00    -0.352 A  
HETATM   15  C   UNL     1      -9.759  12.349  68.241  1.00  0.00    -0.218 C  
HETATM   16  C   UNL     1     -11.776  15.531  68.531  1.00  0.00    -0.337 A  
HETATM   17  S   UNL     1     -10.375  16.305  67.920  1.00  0.00    -0.294 SA 
ENDBRANCH   8   9
ENDBRANCH   7   8
TORSDOF 2
ENDMDL
MODEL      183
REMARK 921   NORMALIZED FREE ENERGY PREDICTED BY IDOCK:   -3.11 KCAL/MOL
REMARK 922        TOTAL FREE ENERGY PREDICTED BY IDOCK:   -3.85 KCAL/MOL
REMARK 923 INTER-LIGAND FREE ENERGY PREDICTED BY IDOCK:   -3.56 KCAL/MOL
REMARK 924 INTRA-LIGAND FREE ENERGY PREDICTED BY IDOCK:   -0.29 KCAL/MOL
REMARK 927      BINDING AFFINITY PREDICTED BY RF-SCORE:    0.00 PKD
ROOT
HETATM    1 CL   UNL     1      -6.029   7.036  69.752  1.00  0.00    -0.023 Cl 
HETATM    2  C   UNL     1      -7.317   6.221  68.937  1.00  0.00    -0.086 A  
HETATM    3  C   UNL     1      -7.143   5.953  67.575  1.00  0.00    -0.074 A  
HETATM    4  C   UNL     1      -8.133   5.285  66.854  1.00  0.00    -0.104 A  
HETATM    5  C   UNL     1      -9.290   4.861  67.499  1.00  0.00    -0.148 A  
HETATM    6  C   UNL     1      -9.470   5.133  68.855  1.00  0.00    -0.184 A  
HETATM    7  C   UNL     1      -8.500   5.843  69.590  1.00  0.00    -0.117 A  
ENDROOT
BRANCH   7   8
HETATM    8  C   UNL     1      -8.802   6.199  71.034  1.00  0.00    -0.139 C  
BRANCH   8   9
HETATM    9  N   UNL     1      -9.908   7.166  71.156  1.00  0.00    -0.179 NA 
HETATM   10  C   UNL     1      -9.538   8.349  71.975  1.00  0.00    -0.274 C  
HETATM   11  C   UNL     1     -10.608   9.463  71.894  1.00  0.00     0.021 C  
HETATM   12  C   UNL     1     -11.977   8.862  71.928  1.00  0.00    -0.371 A  
HETATM   13  C   UNL     1     -12.217   7.508  71.827  1.00  0.00    -0.345 A  
HETATM   14  C   UNL     1     -13.619   7.237  71.829  1.00  0.00    -0.386 A  
HETATM   15  C   UNL     1     -11.099   6.506  71.734  1.00  0.00    -0.257 C  
HETATM   16  C   UNL     1     -14.371   8.390  71.912  1.00  0.00    -0.473 A  
HETATM   17  S   UNL     1     -13.392   9.793  72.011  1.00  0.00    -0.415 SA 
ENDBRANCH   8   9
ENDBRANCH   7   8
TORSDOF 2
ENDMDL
MODEL      184
REMARK 921   NORMALIZED FREE ENERGY PREDICTED BY IDOCK:   -3.11 KCAL/MOL
REMARK 922        TOTAL FREE ENERGY PREDICTED BY IDOCK:   -3.84 KCAL/MOL
REMARK 923 INTER-LIGAND FREE ENERGY PREDICTED BY IDOCK:   -3.70 KCAL/MOL
REMARK 924 INTRA-LIGAND FREE ENERGY PREDICTED BY IDOCK:   -0.13 KCAL/MOL
REMARK 927      BINDING AFFINITY PREDICTED BY RF-SCORE:    0.00 PKD
ROOT
HETATM    1 CL   UNL     1      -6.839  10.138  64.101  1.00  0.00    -0.124 Cl 
HETATM    2  C   UNL     1      -7.287   9.336  65.564  1.00  0.00    -0.090 A  
HETATM    3  C   UNL     1      -6.267   8.706  66.285  1.00  0.00    -0.060 A  
HETATM    4  C   UNL     1      -6.549   8.051  67.484  1.00  0.00    -0.058 A  
HETATM    5  C   UNL     1      -7.849   8.044  67.978  1.00  0.00    -0.126 A  
HETATM    6  C   UNL     1      -8.870   8.664  67.259  1.00  0.00    -0.141 A  
HETATM    7  C   UNL     1      -8.612   9.295  66.025  1.00  0.00    -0.158 A  
ENDROOT
BRANCH   7   8
HETATM    8  C   UNL     1      -9.782   9.859  65.240  1.00  0.00    -0.313 C  
BRANCH   8   9
HETATM    9  N   UNL     1      -9.840  11.330  65.294  1.00  0.00    -0.235 NA 
HETATM   10  C   UNL     1      -9.607  11.856  66.663  1.00  0.00    -0.209 C  
HETATM   11  C   UNL     1      -9.424  13.393  66.667  1.00  0.00    -0.264 C  
HETATM   12  C   UNL     1     -10.393  14.026  65.719  1.00  0.00    -0.319 A  
HETATM   13  C   UNL     1     -11.169  13.310  64.832  1.00  0.00    -0.338 A  
HETATM   14  C   UNL     1     -11.951  14.185  64.017  1.00  0.00    -0.359 A  
HETATM   15  C   UNL     1     -11.146  11.807  64.787  1.00  0.00    -0.296 C  
HETATM   16  C   UNL     1     -11.719  15.512  64.310  1.00  0.00    -0.190 A  
HETATM   17  S   UNL     1     -10.583  15.706  65.578  1.00  0.00    -0.423 SA 
ENDBRANCH   8   9
ENDBRANCH   7   8
TORSDOF 2
ENDMDL
MODEL      185
REMARK 921   NORMALIZED FREE ENERGY PREDICTED BY IDOCK:   -3.09 KCAL/MOL
REMARK 922        TOTAL FREE ENERGY PREDICTED BY IDOCK:   -3.82 KCAL/MOL
REMARK 923 INTER-LIGAND FREE ENERGY PREDICTED BY IDOCK:   -3.53 KCAL/MOL
REMARK 924 INTRA-LIGAND FREE ENERGY PREDICTED BY IDOCK:   -0.29 KCAL/MOL
REMARK 927      BINDING AFFINITY PREDICTED BY RF-SCORE:    0.00 PKD
ROOT
HETATM    1 CL   UNL     1      -8.765   8.030  72.401  1.00  0.00    -0.203 Cl 
HETATM    2  C   UNL     1      -9.113   6.610  71.479  1.00  0.00    -0.142 A  
HETATM    3  C   UNL     1      -8.204   5.550  71.571  1.00  0.00    -0.119 A  
HETATM    4  C   UNL     1      -8.426   4.366  70.868  1.00  0.00    -0.105 A  
HETATM    5  C   UNL     1      -9.569   4.229  70.087  1.00  0.00    -0.269 A  
HETATM    6  C   UNL     1     -10.473   5.286  69.987  1.00  0.00    -0.351 A  
HETATM    7  C   UNL     1     -10.246   6.505  70.656  1.00  0.00    -0.220 A  
ENDROOT
BRANCH   7   8
HETATM    8  C   UNL     1     -11.210   7.652  70.422  1.00  0.00    -0.244 C  
BRANCH   8   9
HETATM    9  N   UNL     1     -10.648   8.689  69.538  1.00  0.00    -0.224 NA 
HETATM   10  C   UNL     1     -11.354   9.990  69.671  1.00  0.00    -0.202 C  
HETATM   11  C   UNL     1     -10.610  11.127  68.932  1.00  0.00    -0.239 C  
HETATM   12  C   UNL     1     -10.085  10.631  67.623  1.00  0.00    -0.177 A  
HETATM   13  C   UNL     1     -10.091   9.302  67.255  1.00  0.00    -0.291 A  
HETATM   14  C   UNL     1      -9.474   9.123  65.979  1.00  0.00    -0.321 A  
HETATM   15  C   UNL     1     -10.690   8.236  68.130  1.00  0.00    -0.033 C  
HETATM   16  C   UNL     1      -9.016  10.312  65.453  1.00  0.00    -0.178 A  
HETATM   17  S   UNL     1      -9.349  11.644  66.479  1.00  0.00    -0.210 SA 
ENDBRANCH   8   9
ENDBRANCH   7   8
TORSDOF 2
ENDMDL
MODEL      186
REMARK 921   NORMALIZED FREE ENERGY PREDICTED BY IDOCK:   -3.09 KCAL/MOL
REMARK 922        TOTAL FREE ENERGY PREDICTED BY IDOCK:   -3.82 KCAL/MOL
REMARK 923 INTER-LIGAND FREE ENERGY PREDICTED BY IDOCK:   -3.80 KCAL/MOL
REMARK 924 INTRA-LIGAND FREE ENERGY PREDICTED BY IDOCK:   -0.01 KCAL/MOL
REMARK 927      BINDING AFFINITY PREDICTED BY RF-SCORE:    0.00 PKD
ROOT
HETATM    1 CL   UNL     1      -7.956   7.814  71.123  1.00  0.00    -0.089 Cl 
HETATM    2  C   UNL     1      -8.918   7.033  69.917  1.00  0.00    -0.142 A  
HETATM    3  C   UNL     1      -8.278   6.094  69.100  1.00  0.00    -0.113 A  
HETATM    4  C   UNL     1      -8.993   5.412  68.115  1.00  0.00    -0.111 A  
HETATM    5  C   UNL     1     -10.354   5.650  67.958  1.00  0.00    -0.258 A  
HETATM    6  C   UNL     1     -10.993   6.591  68.766  1.00  0.00    -0.371 A  
HETATM    7  C   UNL     1     -10.280   7.320  69.739  1.00  0.00    -0.214 A  
ENDROOT
BRANCH   7   8
HETATM    8  C   UNL     1     -11.008   8.404  70.511  1.00  0.00    -0.242 C  
BRANCH   8   9
HETATM    9  N   UNL     1     -11.053   9.683  69.781  1.00  0.00    -0.236 NA 
HETATM   10  C   UNL     1      -9.767   9.995  69.106  1.00  0.00    -0.209 C  
HETATM   11  C   UNL     1      -9.897  11.203  68.147  1.00  0.00    -0.188 C  
HETATM   12  C   UNL     1     -10.752  12.261  68.770  1.00  0.00    -0.214 A  
HETATM   13  C   UNL     1     -11.477  12.071  69.927  1.00  0.00    -0.239 A  
HETATM   14  C   UNL     1     -12.242  13.233  70.247  1.00  0.00    -0.391 A  
HETATM   15  C   UNL     1     -11.417  10.783  70.702  1.00  0.00    -0.219 C  
HETATM   16  C   UNL     1     -12.078  14.235  69.314  1.00  0.00    -0.313 A  
HETATM   17  S   UNL     1     -10.987  13.788  68.070  1.00  0.00    -0.259 SA 
ENDBRANCH   8   9
ENDBRANCH   7   8
TORSDOF 2
ENDMDL
MODEL      187
REMARK 921   NORMALIZED FREE ENERGY PREDICTED BY IDOCK:   -3.05 KCAL/MOL
REMARK 922        TOTAL FREE ENERGY PREDICTED BY IDOCK:   -3.78 KCAL/MOL
REMARK 923 INTER-LIGAND FREE ENERGY PREDICTED BY IDOCK:   -4.21 KCAL/MOL
REMARK 924 INTRA-LIGAND FREE ENERGY PREDICTED BY IDOCK:    0.44 KCAL/MOL
REMARK 927      BINDING AFFINITY PREDICTED BY RF-SCORE:    0.00 PKD
ROOT
HETATM    1 CL   UNL     1      -9.399   9.725  64.536  1.00  0.00    -0.321 Cl 
HETATM    2  C   UNL     1      -8.609   9.683  66.072  1.00  0.00    -0.132 A  
HETATM    3  C   UNL     1      -7.210   9.637  66.070  1.00  0.00    -0.098 A  
HETATM    4  C   UNL     1      -6.502   9.617  67.271  1.00  0.00    -0.069 A  
HETATM    5  C   UNL     1      -7.189   9.666  68.480  1.00  0.00    -0.070 A  
HETATM    6  C   UNL     1      -8.583   9.704  68.486  1.00  0.00    -0.119 A  
HETATM    7  C   UNL     1      -9.318   9.683  67.283  1.00  0.00    -0.163 A  
ENDROOT
BRANCH   7   8
HETATM    8  C   UNL     1     -10.832   9.619  67.359  1.00  0.00    -0.172 C  
BRANCH   8   9
HETATM    9  N   UNL     1     -11.399  10.680  68.210  1.00  0.00    -0.300 NA 
HETATM   10  C   UNL     1     -10.584  11.922  68.184  1.00  0.00    -0.208 C  
HETATM   11  C   UNL     1     -11.310  13.101  68.875  1.00  0.00    -0.335 C  
HETATM   12  C   UNL     1     -12.001  12.623  70.112  1.00  0.00    -0.299 A  
HETATM   13  C   UNL     1     -12.136  11.291  70.443  1.00  0.00    -0.474 A  
HETATM   14  C   UNL     1     -12.891  11.137  71.645  1.00  0.00    -0.524 A  
HETATM   15  C   UNL     1     -11.536  10.197  69.603  1.00  0.00    -0.198 C  
HETATM   16  C   UNL     1     -13.307  12.349  72.155  1.00  0.00    -0.403 A  
HETATM   17  S   UNL     1     -12.769  13.669  71.204  1.00  0.00    -0.327 SA 
ENDBRANCH   8   9
ENDBRANCH   7   8
TORSDOF 2
ENDMDL
MODEL      188
REMARK 921   NORMALIZED FREE ENERGY PREDICTED BY IDOCK:   -3.04 KCAL/MOL
REMARK 922        TOTAL FREE ENERGY PREDICTED BY IDOCK:   -3.76 KCAL/MOL
REMARK 923 INTER-LIGAND FREE ENERGY PREDICTED BY IDOCK:   -3.45 KCAL/MOL
REMARK 924 INTRA-LIGAND FREE ENERGY PREDICTED BY IDOCK:   -0.31 KCAL/MOL
REMARK 927      BINDING AFFINITY PREDICTED BY RF-SCORE:    0.00 PKD
ROOT
HETATM    1 CL   UNL     1      -9.086   9.047  70.291  1.00  0.00    -0.202 Cl 
HETATM    2  C   UNL     1      -8.884   7.685  69.246  1.00  0.00    -0.136 A  
HETATM    3  C   UNL     1      -9.312   6.442  69.726  1.00  0.00    -0.151 A  
HETATM    4  C   UNL     1      -9.196   5.300  68.934  1.00  0.00    -0.150 A  
HETATM    5  C   UNL     1      -8.673   5.400  67.649  1.00  0.00    -0.106 A  
HETATM    6  C   UNL     1      -8.239   6.636  67.170  1.00  0.00    -0.113 A  
HETATM    7  C   UNL     1      -8.310   7.794  67.970  1.00  0.00    -0.124 A  
ENDROOT
BRANCH   7   8
HETATM    8  C   UNL     1      -7.724   9.085  67.431  1.00  0.00    -0.092 C  
BRANCH   8   9
HETATM    9  N   UNL     1      -8.650   9.789  66.526  1.00  0.00    -0.127 NA 
HETATM   10  C   UNL     1      -8.314   9.577  65.094  1.00  0.00    -0.142 C  
HETATM   11  C   UNL     1      -9.424  10.109  64.157  1.00  0.00    -0.353 C  
HETATM   12  C   UNL     1      -9.949  11.411  64.672  1.00  0.00    -0.268 A  
HETATM   13  C   UNL     1      -9.626  11.927  65.910  1.00  0.00    -0.248 A  
HETATM   14  C   UNL     1     -10.321  13.151  66.150  1.00  0.00    -0.287 A  
HETATM   15  C   UNL     1      -8.658  11.237  66.831  1.00  0.00    -0.150 C  
HETATM   16  C   UNL     1     -11.146  13.494  65.099  1.00  0.00    -0.316 A  
HETATM   17  S   UNL     1     -11.066  12.359  63.818  1.00  0.00    -0.480 SA 
ENDBRANCH   8   9
ENDBRANCH   7   8
TORSDOF 2
ENDMDL
MODEL      189
REMARK 921   NORMALIZED FREE ENERGY PREDICTED BY IDOCK:   -3.03 KCAL/MOL
REMARK 922        TOTAL FREE ENERGY PREDICTED BY IDOCK:   -3.76 KCAL/MOL
REMARK 923 INTER-LIGAND FREE ENERGY PREDICTED BY IDOCK:   -3.41 KCAL/MOL
REMARK 924 INTRA-LIGAND FREE ENERGY PREDICTED BY IDOCK:   -0.35 KCAL/MOL
REMARK 927      BINDING AFFINITY PREDICTED BY RF-SCORE:    0.00 PKD
ROOT
HETATM    1 CL   UNL     1      -7.920   7.338  72.988  1.00  0.00    -0.110 Cl 
HETATM    2  C   UNL     1      -8.962   6.602  71.823  1.00  0.00    -0.140 A  
HETATM    3  C   UNL     1      -9.134   5.215  71.904  1.00  0.00    -0.154 A  
HETATM    4  C   UNL     1      -9.972   4.553  71.008  1.00  0.00    -0.257 A  
HETATM    5  C   UNL     1     -10.661   5.277  70.041  1.00  0.00    -0.300 A  
HETATM    6  C   UNL     1     -10.487   6.658  69.952  1.00  0.00    -0.247 A  
HETATM    7  C   UNL     1      -9.612   7.340  70.821  1.00  0.00    -0.171 A  
ENDROOT
BRANCH   7   8
HETATM    8  C   UNL     1      -9.386   8.825  70.605  1.00  0.00    -0.195 C  
BRANCH   8   9
HETATM    9  N   UNL     1      -9.419   9.198  69.179  1.00  0.00    -0.154 NA 
HETATM   10  C   UNL     1      -8.062   9.425  68.621  1.00  0.00    -0.104 C  
HETATM   11  C   UNL     1      -8.089   9.572  67.081  1.00  0.00    -0.106 C  
HETATM   12  C   UNL     1      -9.273  10.386  66.665  1.00  0.00    -0.156 A  
HETATM   13  C   UNL     1     -10.286  10.752  67.526  1.00  0.00    -0.231 A  
HETATM   14  C   UNL     1     -11.307  11.473  66.835  1.00  0.00    -0.324 A  
HETATM   15  C   UNL     1     -10.250  10.407  68.990  1.00  0.00    -0.217 C  
HETATM   16  C   UNL     1     -11.032  11.601  65.490  1.00  0.00    -0.270 A  
HETATM   17  S   UNL     1      -9.538  10.879  65.064  1.00  0.00    -0.270 SA 
ENDBRANCH   8   9
ENDBRANCH   7   8
TORSDOF 2
ENDMDL
MODEL      190
REMARK 921   NORMALIZED FREE ENERGY PREDICTED BY IDOCK:   -3.03 KCAL/MOL
REMARK 922        TOTAL FREE ENERGY PREDICTED BY IDOCK:   -3.75 KCAL/MOL
REMARK 923 INTER-LIGAND FREE ENERGY PREDICTED BY IDOCK:   -3.91 KCAL/MOL
REMARK 924 INTRA-LIGAND FREE ENERGY PREDICTED BY IDOCK:    0.15 KCAL/MOL
REMARK 927      BINDING AFFINITY PREDICTED BY RF-SCORE:    0.00 PKD
ROOT
HETATM    1 CL   UNL     1     -11.400  15.992  68.273  1.00  0.00    -0.350 Cl 
HETATM    2  C   UNL     1      -9.790  16.300  67.725  1.00  0.00    -0.237 A  
HETATM    3  C   UNL     1      -9.583  17.457  66.965  1.00  0.00    -0.273 A  
HETATM    4  C   UNL     1      -8.308  17.779  66.501  1.00  0.00    -0.294 A  
HETATM    5  C   UNL     1      -7.230  16.958  66.815  1.00  0.00    -0.278 A  
HETATM    6  C   UNL     1      -7.433  15.800  67.565  1.00  0.00    -0.198 A  
HETATM    7  C   UNL     1      -8.720  15.436  68.008  1.00  0.00    -0.160 A  
ENDROOT
BRANCH   7   8
HETATM    8  C   UNL     1      -8.891  14.111  68.729  1.00  0.00    -0.061 C  
BRANCH   8   9
HETATM    9  N   UNL     1      -9.091  12.986  67.798  1.00  0.00    -0.190 NA 
HETATM   10  C   UNL     1      -7.856  12.183  67.608  1.00  0.00    -0.153 C  
HETATM   11  C   UNL     1      -8.135  10.873  66.833  1.00  0.00    -0.137 C  
HETATM   12  C   UNL     1      -9.102  11.130  65.722  1.00  0.00    -0.206 A  
HETATM   13  C   UNL     1      -9.790  12.316  65.571  1.00  0.00    -0.223 A  
HETATM   14  C   UNL     1     -10.683  12.249  64.458  1.00  0.00    -0.358 A  
HETATM   15  C   UNL     1      -9.573  13.485  66.492  1.00  0.00    -0.277 C  
HETATM   16  C   UNL     1     -10.645  11.019  63.835  1.00  0.00    -0.312 A  
HETATM   17  S   UNL     1      -9.519   9.957  64.571  1.00  0.00    -0.199 SA 
ENDBRANCH   8   9
ENDBRANCH   7   8
TORSDOF 2
ENDMDL
MODEL      191
REMARK 921   NORMALIZED FREE ENERGY PREDICTED BY IDOCK:   -3.02 KCAL/MOL
REMARK 922        TOTAL FREE ENERGY PREDICTED BY IDOCK:   -3.75 KCAL/MOL
REMARK 923 INTER-LIGAND FREE ENERGY PREDICTED BY IDOCK:   -3.63 KCAL/MOL
REMARK 924 INTRA-LIGAND FREE ENERGY PREDICTED BY IDOCK:   -0.12 KCAL/MOL
REMARK 927      BINDING AFFINITY PREDICTED BY RF-SCORE:    0.00 PKD
ROOT
HETATM    1 CL   UNL     1      -9.042   9.637  70.436  1.00  0.00    -0.285 Cl 
HETATM    2  C   UNL     1      -9.224   9.184  68.778  1.00  0.00    -0.136 A  
HETATM    3  C   UNL     1      -8.315   8.249  68.268  1.00  0.00    -0.132 A  
HETATM    4  C   UNL     1      -8.408   7.824  66.944  1.00  0.00    -0.124 A  
HETATM    5  C   UNL     1      -9.424   8.313  66.130  1.00  0.00    -0.241 A  
HETATM    6  C   UNL     1     -10.327   9.250  66.632  1.00  0.00    -0.292 A  
HETATM    7  C   UNL     1     -10.224   9.724  67.956  1.00  0.00    -0.229 A  
ENDROOT
BRANCH   7   8
HETATM    8  C   UNL     1     -11.170  10.820  68.409  1.00  0.00    -0.284 C  
BRANCH   8   9
HETATM    9  N   UNL     1     -10.475  12.095  68.661  1.00  0.00    -0.230 NA 
HETATM   10  C   UNL     1     -11.419  13.222  68.871  1.00  0.00    -0.298 C  
HETATM   11  C   UNL     1     -10.695  14.493  69.375  1.00  0.00    -0.213 C  
HETATM   12  C   UNL     1      -9.394  14.661  68.657  1.00  0.00    -0.206 A  
HETATM   13  C   UNL     1      -8.849  13.699  67.834  1.00  0.00    -0.188 A  
HETATM   14  C   UNL     1      -7.577  14.114  67.336  1.00  0.00    -0.179 A  
HETATM   15  C   UNL     1      -9.561  12.406  67.540  1.00  0.00    -0.185 C  
HETATM   16  C   UNL     1      -7.211  15.353  67.817  1.00  0.00    -0.163 A  
HETATM   17  S   UNL     1      -8.406  16.027  68.844  1.00  0.00    -0.243 SA 
ENDBRANCH   8   9
ENDBRANCH   7   8
TORSDOF 2
ENDMDL
MODEL      192
REMARK 921   NORMALIZED FREE ENERGY PREDICTED BY IDOCK:   -2.99 KCAL/MOL
REMARK 922        TOTAL FREE ENERGY PREDICTED BY IDOCK:   -3.71 KCAL/MOL
REMARK 923 INTER-LIGAND FREE ENERGY PREDICTED BY IDOCK:   -3.31 KCAL/MOL
REMARK 924 INTRA-LIGAND FREE ENERGY PREDICTED BY IDOCK:   -0.40 KCAL/MOL
REMARK 927      BINDING AFFINITY PREDICTED BY RF-SCORE:    0.00 PKD
ROOT
HETATM    1 CL   UNL     1      -8.324   7.963  72.425  1.00  0.00    -0.164 Cl 
HETATM    2  C   UNL     1      -9.779   8.634  71.776  1.00  0.00    -0.291 A  
HETATM    3  C   UNL     1     -10.987   8.201  72.334  1.00  0.00    -0.414 A  
HETATM    4  C   UNL     1     -12.201   8.709  71.873  1.00  0.00    -0.419 A  
HETATM    5  C   UNL     1     -12.211   9.671  70.868  1.00  0.00    -0.368 A  
HETATM    6  C   UNL     1     -11.009  10.100  70.305  1.00  0.00    -0.380 A  
HETATM    7  C   UNL     1      -9.775   9.568  70.728  1.00  0.00    -0.289 A  
ENDROOT
BRANCH   7   8
HETATM    8  C   UNL     1      -8.513   9.997  70.003  1.00  0.00    -0.097 C  
BRANCH   8   9
HETATM    9  N   UNL     1      -8.133   9.060  68.931  1.00  0.00    -0.103 NA 
HETATM   10  C   UNL     1      -6.723   8.606  69.049  1.00  0.00    -0.052 C  
HETATM   11  C   UNL     1      -6.409   7.445  68.076  1.00  0.00    -0.048 C  
HETATM   12  C   UNL     1      -7.062   7.694  66.754  1.00  0.00    -0.083 A  
HETATM   13  C   UNL     1      -7.976   8.702  66.533  1.00  0.00    -0.099 A  
HETATM   14  C   UNL     1      -8.472   8.658  65.195  1.00  0.00    -0.197 A  
HETATM   15  C   UNL     1      -8.350   9.686  67.608  1.00  0.00    -0.121 C  
HETATM   16  C   UNL     1      -7.930   7.615  64.475  1.00  0.00    -0.130 A  
HETATM   17  S   UNL     1      -6.808   6.706  65.398  1.00  0.00    -0.056 SA 
ENDBRANCH   8   9
ENDBRANCH   7   8
TORSDOF 2
ENDMDL
MODEL      193
REMARK 921   NORMALIZED FREE ENERGY PREDICTED BY IDOCK:   -2.98 KCAL/MOL
REMARK 922        TOTAL FREE ENERGY PREDICTED BY IDOCK:   -3.70 KCAL/MOL
REMARK 923 INTER-LIGAND FREE ENERGY PREDICTED BY IDOCK:   -3.87 KCAL/MOL
REMARK 924 INTRA-LIGAND FREE ENERGY PREDICTED BY IDOCK:    0.17 KCAL/MOL
REMARK 927      BINDING AFFINITY PREDICTED BY RF-SCORE:    0.00 PKD
ROOT
HETATM    1 CL   UNL     1     -12.125   6.562  70.532  1.00  0.00    -0.356 Cl 
HETATM    2  C   UNL     1     -10.579   6.826  71.259  1.00  0.00    -0.219 A  
HETATM    3  C   UNL     1      -9.663   5.769  71.211  1.00  0.00    -0.210 A  
HETATM    4  C   UNL     1      -8.390   5.913  71.762  1.00  0.00    -0.119 A  
HETATM    5  C   UNL     1      -8.020   7.122  72.344  1.00  0.00    -0.102 A  
HETATM    6  C   UNL     1      -8.934   8.174  72.400  1.00  0.00    -0.265 A  
HETATM    7  C   UNL     1     -10.238   8.034  71.885  1.00  0.00    -0.275 A  
ENDROOT
BRANCH   7   8
HETATM    8  C   UNL     1     -11.218   9.178  72.072  1.00  0.00    -0.240 C  
BRANCH   8   9
HETATM    9  N   UNL     1     -11.082  10.212  71.031  1.00  0.00    -0.274 NA 
HETATM   10  C   UNL     1     -12.383  10.563  70.407  1.00  0.00    -0.324 C  
HETATM   11  C   UNL     1     -12.270  11.811  69.500  1.00  0.00    -0.232 C  
HETATM   12  C   UNL     1     -10.995  11.764  68.720  1.00  0.00    -0.234 A  
HETATM   13  C   UNL     1      -9.992  10.846  68.954  1.00  0.00    -0.208 A  
HETATM   14  C   UNL     1      -8.875  11.081  68.097  1.00  0.00    -0.141 A  
HETATM   15  C   UNL     1     -10.129   9.764  69.991  1.00  0.00    -0.257 C  
HETATM   16  C   UNL     1      -9.073  12.169  67.273  1.00  0.00    -0.181 A  
HETATM   17  S   UNL     1     -10.608  12.890  67.512  1.00  0.00    -0.228 SA 
ENDBRANCH   8   9
ENDBRANCH   7   8
TORSDOF 2
ENDMDL
MODEL      194
REMARK 921   NORMALIZED FREE ENERGY PREDICTED BY IDOCK:   -2.98 KCAL/MOL
REMARK 922        TOTAL FREE ENERGY PREDICTED BY IDOCK:   -3.70 KCAL/MOL
REMARK 923 INTER-LIGAND FREE ENERGY PREDICTED BY IDOCK:   -4.24 KCAL/MOL
REMARK 924 INTRA-LIGAND FREE ENERGY PREDICTED BY IDOCK:    0.55 KCAL/MOL
REMARK 927      BINDING AFFINITY PREDICTED BY RF-SCORE:    0.00 PKD
ROOT
HETATM    1 CL   UNL     1      -6.806   6.162  69.694  1.00  0.00    -0.062 Cl 
HETATM    2  C   UNL     1      -8.371   6.082  68.965  1.00  0.00    -0.111 A  
HETATM    3  C   UNL     1      -8.421   5.897  67.579  1.00  0.00    -0.103 A  
HETATM    4  C   UNL     1      -9.649   5.807  66.923  1.00  0.00    -0.153 A  
HETATM    5  C   UNL     1     -10.831   5.879  67.653  1.00  0.00    -0.331 A  
HETATM    6  C   UNL     1     -10.784   6.071  69.033  1.00  0.00    -0.393 A  
HETATM    7  C   UNL     1      -9.555   6.206  69.709  1.00  0.00    -0.174 A  
ENDROOT
BRANCH   7   8
HETATM    8  C   UNL     1      -9.574   6.519  71.194  1.00  0.00    -0.171 C  
BRANCH   8   9
HETATM    9  N   UNL     1     -10.407   7.692  71.512  1.00  0.00    -0.196 NA 
HETATM   10  C   UNL     1     -11.744   7.311  72.036  1.00  0.00    -0.292 C  
HETATM   11  C   UNL     1     -12.513   8.532  72.594  1.00  0.00    -0.276 C  
HETATM   12  C   UNL     1     -12.309   9.717  71.704  1.00  0.00    -0.404 A  
HETATM   13  C   UNL     1     -11.396   9.745  70.671  1.00  0.00    -0.401 A  
HETATM   14  C   UNL     1     -11.383  11.024  70.037  1.00  0.00    -0.358 A  
HETATM   15  C   UNL     1     -10.562   8.546  70.313  1.00  0.00    -0.226 C  
HETATM   16  C   UNL     1     -12.265  11.905  70.627  1.00  0.00    -0.331 A  
HETATM   17  S   UNL     1     -13.125  11.187  71.923  1.00  0.00    -0.263 SA 
ENDBRANCH   8   9
ENDBRANCH   7   8
TORSDOF 2
ENDMDL
MODEL      195
REMARK 921   NORMALIZED FREE ENERGY PREDICTED BY IDOCK:   -2.97 KCAL/MOL
REMARK 922        TOTAL FREE ENERGY PREDICTED BY IDOCK:   -3.68 KCAL/MOL
REMARK 923 INTER-LIGAND FREE ENERGY PREDICTED BY IDOCK:   -3.43 KCAL/MOL
REMARK 924 INTRA-LIGAND FREE ENERGY PREDICTED BY IDOCK:   -0.25 KCAL/MOL
REMARK 927      BINDING AFFINITY PREDICTED BY RF-SCORE:    0.00 PKD
ROOT
HETATM    1 CL   UNL     1     -11.530  10.996  67.700  1.00  0.00    -0.349 Cl 
HETATM    2  C   UNL     1     -11.152  12.344  66.687  1.00  0.00    -0.289 A  
HETATM    3  C   UNL     1     -11.994  12.577  65.593  1.00  0.00    -0.492 A  
HETATM    4  C   UNL     1     -11.761  13.655  64.740  1.00  0.00    -0.399 A  
HETATM    5  C   UNL     1     -10.700  14.519  64.991  1.00  0.00    -0.444 A  
HETATM    6  C   UNL     1      -9.856  14.286  66.076  1.00  0.00    -0.336 A  
HETATM    7  C   UNL     1     -10.049  13.178  66.925  1.00  0.00    -0.245 A  
ENDROOT
BRANCH   7   8
HETATM    8  C   UNL     1      -9.034  12.920  68.023  1.00  0.00    -0.196 C  
BRANCH   8   9
HETATM    9  N   UNL     1      -8.447  11.571  67.941  1.00  0.00    -0.136 NA 
HETATM   10  C   UNL     1      -7.828  11.144  69.222  1.00  0.00    -0.001 C  
HETATM   11  C   UNL     1      -7.437   9.647  69.203  1.00  0.00    -0.079 C  
HETATM   12  C   UNL     1      -6.855   9.287  67.873  1.00  0.00    -0.072 A  
HETATM   13  C   UNL     1      -6.876  10.127  66.779  1.00  0.00    -0.086 A  
HETATM   14  C   UNL     1      -6.301   9.492  65.637  1.00  0.00    -0.070 A  
HETATM   15  C   UNL     1      -7.443  11.518  66.855  1.00  0.00    -0.145 C  
HETATM   16  C   UNL     1      -5.892   8.204  65.910  1.00  0.00    -0.037 A  
HETATM   17  S   UNL     1      -6.176   7.768  67.543  1.00  0.00    -0.052 SA 
ENDBRANCH   8   9
ENDBRANCH   7   8
TORSDOF 2
ENDMDL
MODEL      196
REMARK 921   NORMALIZED FREE ENERGY PREDICTED BY IDOCK:   -2.95 KCAL/MOL
REMARK 922        TOTAL FREE ENERGY PREDICTED BY IDOCK:   -3.66 KCAL/MOL
REMARK 923 INTER-LIGAND FREE ENERGY PREDICTED BY IDOCK:   -3.36 KCAL/MOL
REMARK 924 INTRA-LIGAND FREE ENERGY PREDICTED BY IDOCK:   -0.30 KCAL/MOL
REMARK 927      BINDING AFFINITY PREDICTED BY RF-SCORE:    0.00 PKD
ROOT
HETATM    1 CL   UNL     1      -6.681  10.393  67.737  1.00  0.00    -0.069 Cl 
HETATM    2  C   UNL     1      -8.096  11.218  67.185  1.00  0.00    -0.150 A  
HETATM    3  C   UNL     1      -8.074  12.617  67.216  1.00  0.00    -0.178 A  
HETATM    4  C   UNL     1      -9.173  13.351  66.772  1.00  0.00    -0.242 A  
HETATM    5  C   UNL     1     -10.291  12.690  66.274  1.00  0.00    -0.269 A  
HETATM    6  C   UNL     1     -10.320  11.295  66.249  1.00  0.00    -0.294 A  
HETATM    7  C   UNL     1      -9.236  10.535  66.731  1.00  0.00    -0.175 A  
ENDROOT
BRANCH   7   8
HETATM    8  C   UNL     1      -9.372   9.025  66.775  1.00  0.00    -0.165 C  
BRANCH   8   9
HETATM    9  N   UNL     1      -9.414   8.503  68.153  1.00  0.00    -0.140 NA 
HETATM   10  C   UNL     1      -9.123   7.048  68.216  1.00  0.00    -0.126 C  
HETATM   11  C   UNL     1      -8.926   6.562  69.672  1.00  0.00    -0.141 C  
HETATM   12  C   UNL     1      -9.925   7.219  70.571  1.00  0.00    -0.190 A  
HETATM   13  C   UNL     1     -10.741   8.257  70.173  1.00  0.00    -0.239 A  
HETATM   14  C   UNL     1     -11.545   8.719  71.258  1.00  0.00    -0.353 A  
HETATM   15  C   UNL     1     -10.733   8.779  68.762  1.00  0.00    -0.077 C  
HETATM   16  C   UNL     1     -11.290   8.028  72.424  1.00  0.00    -0.382 A  
HETATM   17  S   UNL     1     -10.104   6.811  72.207  1.00  0.00    -0.174 SA 
ENDBRANCH   8   9
ENDBRANCH   7   8
TORSDOF 2
ENDMDL
MODEL      197
REMARK 921   NORMALIZED FREE ENERGY PREDICTED BY IDOCK:   -2.91 KCAL/MOL
REMARK 922        TOTAL FREE ENERGY PREDICTED BY IDOCK:   -3.62 KCAL/MOL
REMARK 923 INTER-LIGAND FREE ENERGY PREDICTED BY IDOCK:   -3.93 KCAL/MOL
REMARK 924 INTRA-LIGAND FREE ENERGY PREDICTED BY IDOCK:    0.31 KCAL/MOL
REMARK 927      BINDING AFFINITY PREDICTED BY RF-SCORE:    0.00 PKD
ROOT
HETATM    1 CL   UNL     1      -7.897  13.587  67.857  1.00  0.00    -0.142 Cl 
HETATM    2  C   UNL     1      -9.477  13.100  67.353  1.00  0.00    -0.214 A  
HETATM    3  C   UNL     1     -10.202  14.002  66.567  1.00  0.00    -0.279 A  
HETATM    4  C   UNL     1     -11.478  13.673  66.109  1.00  0.00    -0.342 A  
HETATM    5  C   UNL     1     -12.025  12.432  66.417  1.00  0.00    -0.346 A  
HETATM    6  C   UNL     1     -11.307  11.533  67.207  1.00  0.00    -0.359 A  
HETATM    7  C   UNL     1     -10.034  11.864  67.713  1.00  0.00    -0.191 A  
ENDROOT
BRANCH   7   8
HETATM    8  C   UNL     1      -9.352  10.887  68.653  1.00  0.00    -0.187 C  
BRANCH   8   9
HETATM    9  N   UNL     1      -9.102   9.579  68.021  1.00  0.00    -0.123 NA 
HETATM   10  C   UNL     1      -8.487   9.708  66.675  1.00  0.00    -0.123 C  
HETATM   11  C   UNL     1      -8.004   8.344  66.129  1.00  0.00    -0.100 C  
HETATM   12  C   UNL     1      -9.003   7.279  66.454  1.00  0.00    -0.158 A  
HETATM   13  C   UNL     1     -10.075   7.473  67.301  1.00  0.00    -0.300 A  
HETATM   14  C   UNL     1     -10.819   6.266  67.467  1.00  0.00    -0.436 A  
HETATM   15  C   UNL     1     -10.362   8.810  67.927  1.00  0.00    -0.224 C  
HETATM   16  C   UNL     1     -10.270   5.217  66.760  1.00  0.00    -0.253 A  
HETATM   17  S   UNL     1      -8.879   5.689  65.878  1.00  0.00    -0.150 SA 
ENDBRANCH   8   9
ENDBRANCH   7   8
TORSDOF 2
ENDMDL
MODEL      198
REMARK 921   NORMALIZED FREE ENERGY PREDICTED BY IDOCK:   -2.91 KCAL/MOL
REMARK 922        TOTAL FREE ENERGY PREDICTED BY IDOCK:   -3.62 KCAL/MOL
REMARK 923 INTER-LIGAND FREE ENERGY PREDICTED BY IDOCK:   -3.93 KCAL/MOL
REMARK 924 INTRA-LIGAND FREE ENERGY PREDICTED BY IDOCK:    0.31 KCAL/MOL
REMARK 927      BINDING AFFINITY PREDICTED BY RF-SCORE:    0.00 PKD
ROOT
HETATM    1 CL   UNL     1      -6.604   9.884  63.541  1.00  0.00    -0.119 Cl 
HETATM    2  C   UNL     1      -6.619   9.909  65.269  1.00  0.00    -0.105 A  
HETATM    3  C   UNL     1      -5.421  10.236  65.914  1.00  0.00    -0.071 A  
HETATM    4  C   UNL     1      -5.360  10.291  67.306  1.00  0.00    -0.041 A  
HETATM    5  C   UNL     1      -6.503  10.042  68.059  1.00  0.00    -0.058 A  
HETATM    6  C   UNL     1      -7.697   9.708  67.420  1.00  0.00    -0.095 A  
HETATM    7  C   UNL     1      -7.768   9.607  66.016  1.00  0.00    -0.102 A  
ENDROOT
BRANCH   7   8
HETATM    8  C   UNL     1      -9.067   9.136  65.388  1.00  0.00    -0.214 C  
BRANCH   8   9
HETATM    9  N   UNL     1      -9.982  10.251  65.085  1.00  0.00    -0.319 NA 
HETATM   10  C   UNL     1      -9.676  10.897  63.782  1.00  0.00    -0.307 C  
HETATM   11  C   UNL     1     -10.781  11.893  63.359  1.00  0.00    -0.476 C  
HETATM   12  C   UNL     1     -11.253  12.670  64.547  1.00  0.00    -0.333 A  
HETATM   13  C   UNL     1     -10.893  12.371  65.845  1.00  0.00    -0.305 A  
HETATM   14  C   UNL     1     -11.542  13.245  66.768  1.00  0.00    -0.408 A  
HETATM   15  C   UNL     1      -9.935  11.257  66.168  1.00  0.00    -0.228 C  
HETATM   16  C   UNL     1     -12.371  14.147  66.135  1.00  0.00    -0.436 A  
HETATM   17  S   UNL     1     -12.350  13.958  64.432  1.00  0.00    -0.313 SA 
ENDBRANCH   8   9
ENDBRANCH   7   8
TORSDOF 2
ENDMDL
MODEL      199
REMARK 921   NORMALIZED FREE ENERGY PREDICTED BY IDOCK:   -2.85 KCAL/MOL
REMARK 922        TOTAL FREE ENERGY PREDICTED BY IDOCK:   -3.55 KCAL/MOL
REMARK 923 INTER-LIGAND FREE ENERGY PREDICTED BY IDOCK:   -3.72 KCAL/MOL
REMARK 924 INTRA-LIGAND FREE ENERGY PREDICTED BY IDOCK:    0.17 KCAL/MOL
REMARK 927      BINDING AFFINITY PREDICTED BY RF-SCORE:    0.00 PKD
ROOT
HETATM    1 CL   UNL     1     -11.014   9.250  71.644  1.00  0.00    -0.443 Cl 
HETATM    2  C   UNL     1     -10.665   7.632  72.141  1.00  0.00    -0.241 A  
HETATM    3  C   UNL     1     -10.099   7.462  73.410  1.00  0.00    -0.389 A  
HETATM    4  C   UNL     1      -9.804   6.185  73.886  1.00  0.00    -0.214 A  
HETATM    5  C   UNL     1     -10.096   5.071  73.105  1.00  0.00    -0.193 A  
HETATM    6  C   UNL     1     -10.653   5.238  71.837  1.00  0.00    -0.274 A  
HETATM    7  C   UNL     1     -10.920   6.522  71.322  1.00  0.00    -0.309 A  
ENDROOT
BRANCH   7   8
HETATM    8  C   UNL     1     -11.427   6.640  69.896  1.00  0.00    -0.354 C  
BRANCH   8   9
HETATM    9  N   UNL     1     -10.345   6.919  68.935  1.00  0.00    -0.181 NA 
HETATM   10  C   UNL     1      -9.001   6.616  69.491  1.00  0.00    -0.138 C  
HETATM   11  C   UNL     1      -7.902   6.676  68.404  1.00  0.00    -0.107 C  
HETATM   12  C   UNL     1      -8.147   7.833  67.490  1.00  0.00    -0.124 A  
HETATM   13  C   UNL     1      -9.304   8.584  67.506  1.00  0.00    -0.169 A  
HETATM   14  C   UNL     1      -9.279   9.581  66.483  1.00  0.00    -0.201 A  
HETATM   15  C   UNL     1     -10.403   8.333  68.501  1.00  0.00    -0.199 C  
HETATM   16  C   UNL     1      -8.123   9.527  65.734  1.00  0.00    -0.111 A  
HETATM   17  S   UNL     1      -7.059   8.297  66.274  1.00  0.00    -0.071 SA 
ENDBRANCH   8   9
ENDBRANCH   7   8
TORSDOF 2
ENDMDL
MODEL      200
REMARK 921   NORMALIZED FREE ENERGY PREDICTED BY IDOCK:   -2.83 KCAL/MOL
REMARK 922        TOTAL FREE ENERGY PREDICTED BY IDOCK:   -3.53 KCAL/MOL
REMARK 923 INTER-LIGAND FREE ENERGY PREDICTED BY IDOCK:   -3.46 KCAL/MOL
REMARK 924 INTRA-LIGAND FREE ENERGY PREDICTED BY IDOCK:   -0.06 KCAL/MOL
REMARK 927      BINDING AFFINITY PREDICTED BY RF-SCORE:    0.00 PKD
ROOT
HETATM    1 CL   UNL     1     -10.566  10.869  65.748  1.00  0.00    -0.268 Cl 
HETATM    2  C   UNL     1     -10.333  12.279  66.718  1.00  0.00    -0.217 A  
HETATM    3  C   UNL     1      -9.843  13.423  66.076  1.00  0.00    -0.273 A  
HETATM    4  C   UNL     1      -9.644  14.604  66.791  1.00  0.00    -0.266 A  
HETATM    5  C   UNL     1      -9.956  14.653  68.146  1.00  0.00    -0.224 A  
HETATM    6  C   UNL     1     -10.437  13.514  68.790  1.00  0.00    -0.212 A  
HETATM    7  C   UNL     1     -10.605  12.300  68.095  1.00  0.00    -0.232 A  
ENDROOT
BRANCH   7   8
HETATM    8  C   UNL     1     -11.030  11.070  68.875  1.00  0.00    -0.227 C  
BRANCH   8   9
HETATM    9  N   UNL     1      -9.882  10.262  69.323  1.00  0.00    -0.218 NA 
HETATM   10  C   UNL     1      -9.436   9.291  68.291  1.00  0.00    -0.138 C  
HETATM   11  C   UNL     1      -8.090   8.627  68.668  1.00  0.00    -0.117 C  
HETATM   12  C   UNL     1      -8.068   8.309  70.129  1.00  0.00    -0.112 A  
HETATM   13  C   UNL     1      -9.025   8.749  71.019  1.00  0.00    -0.269 A  
HETATM   14  C   UNL     1      -8.709   8.341  72.350  1.00  0.00    -0.279 A  
HETATM   15  C   UNL     1     -10.219   9.547  70.573  1.00  0.00    -0.287 C  
HETATM   16  C   UNL     1      -7.528   7.632  72.410  1.00  0.00    -0.079 A  
HETATM   17  S   UNL     1      -6.812   7.438  70.865  1.00  0.00    -0.048 SA 
ENDBRANCH   8   9
ENDBRANCH   7   8
TORSDOF 2
ENDMDL
MODEL      201
REMARK 921   NORMALIZED FREE ENERGY PREDICTED BY IDOCK:   -2.82 KCAL/MOL
REMARK 922        TOTAL FREE ENERGY PREDICTED BY IDOCK:   -3.52 KCAL/MOL
REMARK 923 INTER-LIGAND FREE ENERGY PREDICTED BY IDOCK:   -3.89 KCAL/MOL
REMARK 924 INTRA-LIGAND FREE ENERGY PREDICTED BY IDOCK:    0.37 KCAL/MOL
REMARK 927      BINDING AFFINITY PREDICTED BY RF-SCORE:    0.00 PKD
ROOT
HETATM    1 CL   UNL     1     -10.775  17.529  69.367  1.00  0.00     0.028 Cl 
HETATM    2  C   UNL     1     -10.028  18.468  68.123  1.00  0.00    -0.361 A  
HETATM    3  C   UNL     1     -10.874  19.194  67.276  1.00  0.00    -0.529 A  
HETATM    4  C   UNL     1     -10.344  19.987  66.259  1.00  0.00    -0.570 A  
HETATM    5  C   UNL     1      -8.964  20.075  66.098  1.00  0.00    -0.338 A  
HETATM    6  C   UNL     1      -8.119  19.347  66.936  1.00  0.00    -0.298 A  
HETATM    7  C   UNL     1      -8.637  18.508  67.943  1.00  0.00    -0.304 A  
ENDROOT
BRANCH   7   8
HETATM    8  C   UNL     1      -7.671  17.662  68.749  1.00  0.00    -0.246 C  
BRANCH   8   9
HETATM    9  N   UNL     1      -7.574  16.280  68.244  1.00  0.00    -0.148 NA 
HETATM   10  C   UNL     1      -8.761  15.887  67.443  1.00  0.00    -0.181 C  
HETATM   11  C   UNL     1      -8.545  14.538  66.717  1.00  0.00    -0.163 C  
HETATM   12  C   UNL     1      -7.833  13.579  67.618  1.00  0.00    -0.175 A  
HETATM   13  C   UNL     1      -7.275  13.941  68.826  1.00  0.00    -0.106 A  
HETATM   14  C   UNL     1      -6.613  12.832  69.435  1.00  0.00    -0.064 A  
HETATM   15  C   UNL     1      -7.393  15.338  69.371  1.00  0.00    -0.207 C  
HETATM   16  C   UNL     1      -6.683  11.696  68.657  1.00  0.00    -0.074 A  
HETATM   17  S   UNL     1      -7.563  11.955  67.210  1.00  0.00    -0.157 SA 
ENDBRANCH   8   9
ENDBRANCH   7   8
TORSDOF 2
ENDMDL
MODEL      202
REMARK 921   NORMALIZED FREE ENERGY PREDICTED BY IDOCK:   -2.82 KCAL/MOL
REMARK 922        TOTAL FREE ENERGY PREDICTED BY IDOCK:   -3.52 KCAL/MOL
REMARK 923 INTER-LIGAND FREE ENERGY PREDICTED BY IDOCK:   -3.14 KCAL/MOL
REMARK 924 INTRA-LIGAND FREE ENERGY PREDICTED BY IDOCK:   -0.39 KCAL/MOL
REMARK 927      BINDING AFFINITY PREDICTED BY RF-SCORE:    0.00 PKD
ROOT
HETATM    1 CL   UNL     1     -11.045  11.581  66.825  1.00  0.00    -0.350 Cl 
HETATM    2  C   UNL     1      -9.621  12.273  67.517  1.00  0.00    -0.184 A  
HETATM    3  C   UNL     1      -9.581  13.666  67.639  1.00  0.00    -0.221 A  
HETATM    4  C   UNL     1      -8.471  14.295  68.202  1.00  0.00    -0.167 A  
HETATM    5  C   UNL     1      -7.406  13.531  68.668  1.00  0.00    -0.112 A  
HETATM    6  C   UNL     1      -7.439  12.143  68.541  1.00  0.00    -0.117 A  
HETATM    7  C   UNL     1      -8.533  11.492  67.937  1.00  0.00    -0.142 A  
ENDROOT
BRANCH   7   8
HETATM    8  C   UNL     1      -8.461   9.990  67.733  1.00  0.00    -0.114 C  
BRANCH   8   9
HETATM    9  N   UNL     1      -8.428   9.250  69.007  1.00  0.00    -0.129 NA 
HETATM   10  C   UNL     1      -7.953   7.853  68.838  1.00  0.00    -0.123 C  
HETATM   11  C   UNL     1      -7.687   7.166  70.199  1.00  0.00    -0.095 C  
HETATM   12  C   UNL     1      -8.757   7.535  71.177  1.00  0.00    -0.136 A  
HETATM   13  C   UNL     1      -9.702   8.511  70.939  1.00  0.00    -0.231 A  
HETATM   14  C   UNL     1     -10.553   8.683  72.073  1.00  0.00    -0.421 A  
HETATM   15  C   UNL     1      -9.769   9.252  69.633  1.00  0.00    -0.182 C  
HETATM   16  C   UNL     1     -10.204   7.850  73.115  1.00  0.00    -0.291 A  
HETATM   17  S   UNL     1      -8.873   6.846  72.722  1.00  0.00    -0.119 SA 
ENDBRANCH   8   9
ENDBRANCH   7   8
TORSDOF 2
ENDMDL
MODEL      203
REMARK 921   NORMALIZED FREE ENERGY PREDICTED BY IDOCK:   -2.78 KCAL/MOL
REMARK 922        TOTAL FREE ENERGY PREDICTED BY IDOCK:   -3.47 KCAL/MOL
REMARK 923 INTER-LIGAND FREE ENERGY PREDICTED BY IDOCK:   -3.08 KCAL/MOL
REMARK 924 INTRA-LIGAND FREE ENERGY PREDICTED BY IDOCK:   -0.39 KCAL/MOL
REMARK 927      BINDING AFFINITY PREDICTED BY RF-SCORE:    0.00 PKD
ROOT
HETATM    1 CL   UNL     1      -9.196   5.420  69.496  1.00  0.00    -0.142 Cl 
HETATM    2  C   UNL     1      -8.951   5.654  67.801  1.00  0.00    -0.107 A  
HETATM    3  C   UNL     1      -9.289   4.592  66.954  1.00  0.00    -0.156 A  
HETATM    4  C   UNL     1      -9.133   4.712  65.574  1.00  0.00    -0.146 A  
HETATM    5  C   UNL     1      -8.661   5.904  65.032  1.00  0.00    -0.010 A  
HETATM    6  C   UNL     1      -8.317   6.961  65.873  1.00  0.00    -0.137 A  
HETATM    7  C   UNL     1      -8.428   6.844  67.273  1.00  0.00    -0.121 A  
ENDROOT
BRANCH   7   8
HETATM    8  C   UNL     1      -7.938   7.991  68.138  1.00  0.00    -0.128 C  
BRANCH   8   9
HETATM    9  N   UNL     1      -8.921   9.085  68.234  1.00  0.00    -0.133 NA 
HETATM   10  C   UNL     1      -8.339  10.402  67.868  1.00  0.00    -0.114 C  
HETATM   11  C   UNL     1      -9.427  11.494  67.732  1.00  0.00    -0.168 C  
HETATM   12  C   UNL     1     -10.444  11.341  68.817  1.00  0.00    -0.208 A  
HETATM   13  C   UNL     1     -10.498  10.254  69.664  1.00  0.00    -0.286 A  
HETATM   14  C   UNL     1     -11.608  10.356  70.556  1.00  0.00    -0.433 A  
HETATM   15  C   UNL     1      -9.483   9.145  69.601  1.00  0.00    -0.172 C  
HETATM   16  C   UNL     1     -12.349  11.497  70.334  1.00  0.00    -0.305 A  
HETATM   17  S   UNL     1     -11.698  12.455  69.071  1.00  0.00    -0.316 SA 
ENDBRANCH   8   9
ENDBRANCH   7   8
TORSDOF 2
ENDMDL
MODEL      204
REMARK 921   NORMALIZED FREE ENERGY PREDICTED BY IDOCK:   -2.76 KCAL/MOL
REMARK 922        TOTAL FREE ENERGY PREDICTED BY IDOCK:   -3.46 KCAL/MOL
REMARK 923 INTER-LIGAND FREE ENERGY PREDICTED BY IDOCK:   -3.25 KCAL/MOL
REMARK 924 INTRA-LIGAND FREE ENERGY PREDICTED BY IDOCK:   -0.20 KCAL/MOL
REMARK 927      BINDING AFFINITY PREDICTED BY RF-SCORE:    0.00 PKD
ROOT
HETATM    1 CL   UNL     1     -11.778  10.902  68.713  1.00  0.00    -0.374 Cl 
HETATM    2  C   UNL     1     -10.060  11.084  68.751  1.00  0.00    -0.203 A  
HETATM    3  C   UNL     1      -9.501  12.052  67.908  1.00  0.00    -0.196 A  
HETATM    4  C   UNL     1      -8.123  12.266  67.895  1.00  0.00    -0.155 A  
HETATM    5  C   UNL     1      -7.300  11.530  68.741  1.00  0.00    -0.115 A  
HETATM    6  C   UNL     1      -7.853  10.560  69.577  1.00  0.00    -0.134 A  
HETATM    7  C   UNL     1      -9.238  10.300  69.575  1.00  0.00    -0.191 A  
ENDROOT
BRANCH   7   8
HETATM    8  C   UNL     1      -9.763   9.160  70.428  1.00  0.00    -0.221 C  
BRANCH   8   9
HETATM    9  N   UNL     1      -9.552   7.843  69.801  1.00  0.00    -0.167 NA 
HETATM   10  C   UNL     1     -10.246   7.721  68.493  1.00  0.00    -0.204 C  
HETATM   11  C   UNL     1      -9.822   6.442  67.733  1.00  0.00    -0.136 C  
HETATM   12  C   UNL     1      -9.702   5.295  68.687  1.00  0.00    -0.145 A  
HETATM   13  C   UNL     1      -9.754   5.436  70.057  1.00  0.00    -0.248 A  
HETATM   14  C   UNL     1      -9.551   4.181  70.707  1.00  0.00    -0.260 A  
HETATM   15  C   UNL     1     -10.001   6.768  70.712  1.00  0.00    -0.187 C  
HETATM   16  C   UNL     1      -9.336   3.159  69.807  1.00  0.00    -0.153 A  
HETATM   17  S   UNL     1      -9.404   3.703  68.183  1.00  0.00    -0.165 SA 
ENDBRANCH   8   9
ENDBRANCH   7   8
TORSDOF 2
ENDMDL
MODEL      205
REMARK 921   NORMALIZED FREE ENERGY PREDICTED BY IDOCK:   -2.71 KCAL/MOL
REMARK 922        TOTAL FREE ENERGY PREDICTED BY IDOCK:   -3.40 KCAL/MOL
REMARK 923 INTER-LIGAND FREE ENERGY PREDICTED BY IDOCK:   -3.04 KCAL/MOL
REMARK 924 INTRA-LIGAND FREE ENERGY PREDICTED BY IDOCK:   -0.36 KCAL/MOL
REMARK 927      BINDING AFFINITY PREDICTED BY RF-SCORE:    0.00 PKD
ROOT
HETATM    1 CL   UNL     1      -6.996  12.905  66.717  1.00  0.00     0.480 Cl 
HETATM    2  C   UNL     1      -8.592  13.139  67.337  1.00  0.00    -0.204 A  
HETATM    3  C   UNL     1      -9.122  12.118  68.135  1.00  0.00    -0.196 A  
HETATM    4  C   UNL     1     -10.398  12.242  68.684  1.00  0.00    -0.204 A  
HETATM    5  C   UNL     1     -11.140  13.397  68.457  1.00  0.00    -0.299 A  
HETATM    6  C   UNL     1     -10.617  14.412  67.657  1.00  0.00    -0.260 A  
HETATM    7  C   UNL     1      -9.347  14.288  67.059  1.00  0.00    -0.249 A  
ENDROOT
BRANCH   7   8
HETATM    8  C   UNL     1      -8.880  15.380  66.114  1.00  0.00    -0.187 C  
BRANCH   8   9
HETATM    9  N   UNL     1      -8.487  16.610  66.824  1.00  0.00    -0.211 NA 
HETATM   10  C   UNL     1      -9.323  17.776  66.442  1.00  0.00    -0.249 C  
HETATM   11  C   UNL     1      -9.070  18.993  67.364  1.00  0.00    -0.325 C  
HETATM   12  C   UNL     1      -7.609  19.117  67.659  1.00  0.00    -0.239 A  
HETATM   13  C   UNL     1      -6.680  18.154  67.325  1.00  0.00    -0.205 A  
HETATM   14  C   UNL     1      -5.379  18.520  67.784  1.00  0.00    -0.168 A  
HETATM   15  C   UNL     1      -7.060  16.909  66.571  1.00  0.00    -0.246 C  
HETATM   16  C   UNL     1      -5.385  19.724  68.456  1.00  0.00    -0.194 A  
HETATM   17  S   UNL     1      -6.947  20.425  68.512  1.00  0.00    -0.084 SA 
ENDBRANCH   8   9
ENDBRANCH   7   8
TORSDOF 2
ENDMDL
MODEL      206
REMARK 921   NORMALIZED FREE ENERGY PREDICTED BY IDOCK:   -2.71 KCAL/MOL
REMARK 922        TOTAL FREE ENERGY PREDICTED BY IDOCK:   -3.39 KCAL/MOL
REMARK 923 INTER-LIGAND FREE ENERGY PREDICTED BY IDOCK:   -3.02 KCAL/MOL
REMARK 924 INTRA-LIGAND FREE ENERGY PREDICTED BY IDOCK:   -0.37 KCAL/MOL
REMARK 927      BINDING AFFINITY PREDICTED BY RF-SCORE:    0.00 PKD
ROOT
HETATM    1 CL   UNL     1      -7.041  12.401  69.118  1.00  0.00    -0.046 Cl 
HETATM    2  C   UNL     1      -8.302  13.149  68.204  1.00  0.00    -0.161 A  
HETATM    3  C   UNL     1      -7.992  14.346  67.548  1.00  0.00    -0.208 A  
HETATM    4  C   UNL     1      -8.954  14.999  66.778  1.00  0.00    -0.293 A  
HETATM    5  C   UNL     1     -10.223  14.447  66.643  1.00  0.00    -0.277 A  
HETATM    6  C   UNL     1     -10.538  13.259  67.301  1.00  0.00    -0.250 A  
HETATM    7  C   UNL     1      -9.593  12.605  68.117  1.00  0.00    -0.219 A  
ENDROOT
BRANCH   7   8
HETATM    8  C   UNL     1     -10.029  11.375  68.890  1.00  0.00    -0.131 C  
BRANCH   8   9
HETATM    9  N   UNL     1      -9.527  10.125  68.291  1.00  0.00    -0.139 NA 
HETATM   10  C   UNL     1     -10.556   9.439  67.468  1.00  0.00    -0.267 C  
HETATM   11  C   UNL     1      -9.954   8.271  66.651  1.00  0.00    -0.348 C  
HETATM   12  C   UNL     1      -8.962   7.521  67.482  1.00  0.00    -0.126 A  
HETATM   13  C   UNL     1      -8.513   7.958  68.710  1.00  0.00    -0.128 A  
HETATM   14  C   UNL     1      -7.529   7.069  69.239  1.00  0.00    -0.094 A  
HETATM   15  C   UNL     1      -9.039   9.214  69.350  1.00  0.00    -0.148 C  
HETATM   16  C   UNL     1      -7.266   6.019  68.385  1.00  0.00    -0.084 A  
HETATM   17  S   UNL     1      -8.218   6.088  66.963  1.00  0.00    -0.105 SA 
ENDBRANCH   8   9
ENDBRANCH   7   8
TORSDOF 2
ENDMDL
MODEL      207
REMARK 921   NORMALIZED FREE ENERGY PREDICTED BY IDOCK:   -2.70 KCAL/MOL
REMARK 922        TOTAL FREE ENERGY PREDICTED BY IDOCK:   -3.38 KCAL/MOL
REMARK 923 INTER-LIGAND FREE ENERGY PREDICTED BY IDOCK:   -3.07 KCAL/MOL
REMARK 924 INTRA-LIGAND FREE ENERGY PREDICTED BY IDOCK:   -0.31 KCAL/MOL
REMARK 927      BINDING AFFINITY PREDICTED BY RF-SCORE:    0.00 PKD
ROOT
HETATM    1 CL   UNL     1      -9.685  10.466  67.705  1.00  0.00    -0.185 Cl 
HETATM    2  C   UNL     1     -10.298   9.458  68.968  1.00  0.00    -0.210 A  
HETATM    3  C   UNL     1     -10.596  10.074  70.188  1.00  0.00    -0.350 A  
HETATM    4  C   UNL     1     -11.109   9.328  71.249  1.00  0.00    -0.427 A  
HETATM    5  C   UNL     1     -11.347   7.967  71.086  1.00  0.00    -0.289 A  
HETATM    6  C   UNL     1     -11.044   7.349  69.873  1.00  0.00    -0.208 A  
HETATM    7  C   UNL     1     -10.486   8.077  68.804  1.00  0.00    -0.196 A  
ENDROOT
BRANCH   7   8
HETATM    8  C   UNL     1     -10.080   7.327  67.549  1.00  0.00    -0.193 C  
BRANCH   8   9
HETATM    9  N   UNL     1      -9.183   6.194  67.836  1.00  0.00    -0.117 NA 
HETATM   10  C   UNL     1      -7.856   6.343  67.184  1.00  0.00    -0.108 C  
HETATM   11  C   UNL     1      -6.846   5.284  67.685  1.00  0.00    -0.060 C  
HETATM   12  C   UNL     1      -7.522   3.958  67.830  1.00  0.00    -0.067 A  
HETATM   13  C   UNL     1      -8.887   3.785  67.734  1.00  0.00    -0.136 A  
HETATM   14  C   UNL     1      -9.247   2.424  67.974  1.00  0.00    -0.254 A  
HETATM   15  C   UNL     1      -9.813   4.925  67.409  1.00  0.00    -0.178 C  
HETATM   16  C   UNL     1      -8.149   1.640  68.259  1.00  0.00    -0.056 A  
HETATM   17  S   UNL     1      -6.687   2.532  68.213  1.00  0.00    -0.036 SA 
ENDBRANCH   8   9
ENDBRANCH   7   8
TORSDOF 2
ENDMDL
MODEL      208
REMARK 921   NORMALIZED FREE ENERGY PREDICTED BY IDOCK:   -2.68 KCAL/MOL
REMARK 922        TOTAL FREE ENERGY PREDICTED BY IDOCK:   -3.37 KCAL/MOL
REMARK 923 INTER-LIGAND FREE ENERGY PREDICTED BY IDOCK:   -3.50 KCAL/MOL
REMARK 924 INTRA-LIGAND FREE ENERGY PREDICTED BY IDOCK:    0.13 KCAL/MOL
REMARK 927      BINDING AFFINITY PREDICTED BY RF-SCORE:    0.00 PKD
ROOT
HETATM    1 CL   UNL     1     -10.791   9.349  71.454  1.00  0.00    -0.429 Cl 
HETATM    2  C   UNL     1     -10.705   7.755  72.116  1.00  0.00    -0.248 A  
HETATM    3  C   UNL     1     -10.307   7.640  73.453  1.00  0.00    -0.374 A  
HETATM    4  C   UNL     1     -10.229   6.387  74.061  1.00  0.00    -0.349 A  
HETATM    5  C   UNL     1     -10.570   5.246  73.341  1.00  0.00    -0.300 A  
HETATM    6  C   UNL     1     -10.960   5.357  72.007  1.00  0.00    -0.244 A  
HETATM    7  C   UNL     1     -11.005   6.610  71.363  1.00  0.00    -0.291 A  
ENDROOT
BRANCH   7   8
HETATM    8  C   UNL     1     -11.334   6.653  69.882  1.00  0.00    -0.364 C  
BRANCH   8   9
HETATM    9  N   UNL     1     -10.170   6.329  69.037  1.00  0.00    -0.170 NA 
HETATM   10  C   UNL     1      -9.991   4.865  68.857  1.00  0.00    -0.149 C  
HETATM   11  C   UNL     1      -8.929   4.544  67.779  1.00  0.00    -0.131 C  
HETATM   12  C   UNL     1      -7.771   5.482  67.904  1.00  0.00    -0.092 A  
HETATM   13  C   UNL     1      -7.776   6.592  68.723  1.00  0.00    -0.109 A  
HETATM   14  C   UNL     1      -6.560   7.329  68.590  1.00  0.00    -0.045 A  
HETATM   15  C   UNL     1      -8.942   6.918  69.615  1.00  0.00    -0.144 C  
HETATM   16  C   UNL     1      -5.706   6.759  67.670  1.00  0.00    -0.019 A  
HETATM   17  S   UNL     1      -6.353   5.328  66.987  1.00  0.00    -0.041 SA 
ENDBRANCH   8   9
ENDBRANCH   7   8
TORSDOF 2
ENDMDL
MODEL      209
REMARK 921   NORMALIZED FREE ENERGY PREDICTED BY IDOCK:   -2.68 KCAL/MOL
REMARK 922        TOTAL FREE ENERGY PREDICTED BY IDOCK:   -3.37 KCAL/MOL
REMARK 923 INTER-LIGAND FREE ENERGY PREDICTED BY IDOCK:   -3.09 KCAL/MOL
REMARK 924 INTRA-LIGAND FREE ENERGY PREDICTED BY IDOCK:   -0.28 KCAL/MOL
REMARK 927      BINDING AFFINITY PREDICTED BY RF-SCORE:    0.00 PKD
ROOT
HETATM    1 CL   UNL     1      -7.397   8.842  68.933  1.00  0.00    -0.077 Cl 
HETATM    2  C   UNL     1      -8.476   9.305  67.665  1.00  0.00    -0.116 A  
HETATM    3  C   UNL     1      -7.956  10.112  66.646  1.00  0.00    -0.116 A  
HETATM    4  C   UNL     1      -8.762  10.513  65.582  1.00  0.00    -0.191 A  
HETATM    5  C   UNL     1     -10.086  10.089  65.519  1.00  0.00    -0.325 A  
HETATM    6  C   UNL     1     -10.609   9.292  66.536  1.00  0.00    -0.117 A  
HETATM    7  C   UNL     1      -9.822   8.910  67.641  1.00  0.00    -0.229 A  
ENDROOT
BRANCH   7   8
HETATM    8  C   UNL     1     -10.480   8.132  68.765  1.00  0.00    -0.174 C  
BRANCH   8   9
HETATM    9  N   UNL     1     -10.009   6.737  68.835  1.00  0.00    -0.151 NA 
HETATM   10  C   UNL     1     -10.541   5.904  67.727  1.00  0.00    -0.259 C  
HETATM   11  C   UNL     1      -9.853   4.519  67.666  1.00  0.00    -0.181 C  
HETATM   12  C   UNL     1      -9.656   3.983  69.048  1.00  0.00    -0.153 A  
HETATM   13  C   UNL     1      -9.868   4.726  70.190  1.00  0.00    -0.308 A  
HETATM   14  C   UNL     1      -9.544   3.970  71.358  1.00  0.00    -0.241 A  
HETATM   15  C   UNL     1     -10.380   6.139  70.137  1.00  0.00    -0.212 C  
HETATM   16  C   UNL     1      -9.086   2.707  71.048  1.00  0.00    -0.110 A  
HETATM   17  S   UNL     1      -9.071   2.422  69.358  1.00  0.00    -0.125 SA 
ENDBRANCH   8   9
ENDBRANCH   7   8
TORSDOF 2
ENDMDL
MODEL      210
REMARK 921   NORMALIZED FREE ENERGY PREDICTED BY IDOCK:   -2.67 KCAL/MOL
REMARK 922        TOTAL FREE ENERGY PREDICTED BY IDOCK:   -3.36 KCAL/MOL
REMARK 923 INTER-LIGAND FREE ENERGY PREDICTED BY IDOCK:   -3.06 KCAL/MOL
REMARK 924 INTRA-LIGAND FREE ENERGY PREDICTED BY IDOCK:   -0.30 KCAL/MOL
REMARK 927      BINDING AFFINITY PREDICTED BY RF-SCORE:    0.00 PKD
ROOT
HETATM    1 CL   UNL     1      -9.515  16.228  66.142  1.00  0.00    -0.348 Cl 
HETATM    2  C   UNL     1     -10.212  15.567  67.579  1.00  0.00    -0.254 A  
HETATM    3  C   UNL     1     -11.252  16.288  68.175  1.00  0.00    -0.298 A  
HETATM    4  C   UNL     1     -11.874  15.809  69.328  1.00  0.00    -0.358 A  
HETATM    5  C   UNL     1     -11.474  14.595  69.876  1.00  0.00    -0.320 A  
HETATM    6  C   UNL     1     -10.432  13.877  69.289  1.00  0.00    -0.001 A  
HETATM    7  C   UNL     1      -9.764  14.365  68.148  1.00  0.00    -0.223 A  
ENDROOT
BRANCH   7   8
HETATM    8  C   UNL     1      -8.571  13.590  67.620  1.00  0.00    -0.185 C  
BRANCH   8   9
HETATM    9  N   UNL     1      -8.186  12.475  68.505  1.00  0.00    -0.122 NA 
HETATM   10  C   UNL     1      -6.728  12.451  68.784  1.00  0.00    -0.092 C  
HETATM   11  C   UNL     1      -6.371  11.439  69.899  1.00  0.00    -0.141 C  
HETATM   12  C   UNL     1      -7.176  10.190  69.733  1.00  0.00    -0.141 A  
HETATM   13  C   UNL     1      -8.223  10.070  68.844  1.00  0.00    -0.121 A  
HETATM   14  C   UNL     1      -8.839   8.786  68.949  1.00  0.00    -0.137 A  
HETATM   15  C   UNL     1      -8.607  11.187  67.911  1.00  0.00    -0.135 C  
HETATM   16  C   UNL     1      -8.247   8.005  69.920  1.00  0.00    -0.119 A  
HETATM   17  S   UNL     1      -6.938   8.805  70.684  1.00  0.00    -0.061 SA 
ENDBRANCH   8   9
ENDBRANCH   7   8
TORSDOF 2
ENDMDL
MODEL      211
REMARK 921   NORMALIZED FREE ENERGY PREDICTED BY IDOCK:   -2.60 KCAL/MOL
REMARK 922        TOTAL FREE ENERGY PREDICTED BY IDOCK:   -3.28 KCAL/MOL
REMARK 923 INTER-LIGAND FREE ENERGY PREDICTED BY IDOCK:   -2.88 KCAL/MOL
REMARK 924 INTRA-LIGAND FREE ENERGY PREDICTED BY IDOCK:   -0.39 KCAL/MOL
REMARK 927      BINDING AFFINITY PREDICTED BY RF-SCORE:    0.00 PKD
ROOT
HETATM    1 CL   UNL     1      -9.236   6.469  72.170  1.00  0.00    -0.140 Cl 
HETATM    2  C   UNL     1      -9.699   7.870  71.271  1.00  0.00    -0.157 A  
HETATM    3  C   UNL     1     -10.846   8.552  71.694  1.00  0.00    -0.356 A  
HETATM    4  C   UNL     1     -11.272   9.700  71.028  1.00  0.00    -0.445 A  
HETATM    5  C   UNL     1     -10.540  10.185  69.948  1.00  0.00    -0.331 A  
HETATM    6  C   UNL     1      -9.402   9.504  69.519  1.00  0.00    -0.199 A  
HETATM    7  C   UNL     1      -8.978   8.319  70.153  1.00  0.00    -0.142 A  
ENDROOT
BRANCH   7   8
HETATM    8  C   UNL     1      -7.794   7.568  69.572  1.00  0.00    -0.120 C  
BRANCH   8   9
HETATM    9  N   UNL     1      -8.201   6.550  68.588  1.00  0.00    -0.118 NA 
HETATM   10  C   UNL     1      -7.754   5.185  68.968  1.00  0.00    -0.081 C  
HETATM   11  C   UNL     1      -8.391   4.099  68.068  1.00  0.00    -0.098 C  
HETATM   12  C   UNL     1      -8.423   4.565  66.647  1.00  0.00    -0.105 A  
HETATM   13  C   UNL     1      -8.124   5.855  66.262  1.00  0.00    -0.104 A  
HETATM   14  C   UNL     1      -8.297   6.020  64.854  1.00  0.00    -0.104 A  
HETATM   15  C   UNL     1      -7.675   6.897  67.249  1.00  0.00    -0.109 C  
HETATM   16  C   UNL     1      -8.734   4.863  64.246  1.00  0.00    -0.130 A  
HETATM   17  S   UNL     1      -8.912   3.574  65.361  1.00  0.00    -0.145 SA 
ENDBRANCH   8   9
ENDBRANCH   7   8
TORSDOF 2
ENDMDL
MODEL      212
REMARK 921   NORMALIZED FREE ENERGY PREDICTED BY IDOCK:   -2.55 KCAL/MOL
REMARK 922        TOTAL FREE ENERGY PREDICTED BY IDOCK:   -3.22 KCAL/MOL
REMARK 923 INTER-LIGAND FREE ENERGY PREDICTED BY IDOCK:   -2.84 KCAL/MOL
REMARK 924 INTRA-LIGAND FREE ENERGY PREDICTED BY IDOCK:   -0.38 KCAL/MOL
REMARK 927      BINDING AFFINITY PREDICTED BY RF-SCORE:    0.00 PKD
ROOT
HETATM    1 CL   UNL     1     -10.446   7.847  69.232  1.00  0.00    -0.222 Cl 
HETATM    2  C   UNL     1     -10.634   6.818  70.607  1.00  0.00    -0.224 A  
HETATM    3  C   UNL     1     -11.715   7.078  71.456  1.00  0.00    -0.337 A  
HETATM    4  C   UNL     1     -11.940   6.280  72.578  1.00  0.00    -0.146 A  
HETATM    5  C   UNL     1     -11.098   5.203  72.841  1.00  0.00    -0.359 A  
HETATM    6  C   UNL     1     -10.016   4.946  72.000  1.00  0.00    -0.245 A  
HETATM    7  C   UNL     1      -9.747   5.766  70.886  1.00  0.00    -0.218 A  
ENDROOT
BRANCH   7   8
HETATM    8  C   UNL     1      -8.495   5.497  70.073  1.00  0.00    -0.120 C  
BRANCH   8   9
HETATM    9  N   UNL     1      -8.750   4.615  68.920  1.00  0.00    -0.088 NA 
HETATM   10  C   UNL     1      -8.197   3.251  69.117  1.00  0.00    -0.059 C  
HETATM   11  C   UNL     1      -8.679   2.270  68.022  1.00  0.00    -0.127 C  
HETATM   12  C   UNL     1      -8.678   2.949  66.690  1.00  0.00    -0.124 A  
HETATM   13  C   UNL     1      -8.482   4.304  66.526  1.00  0.00    -0.108 A  
HETATM   14  C   UNL     1      -8.593   4.674  65.151  1.00  0.00    -0.135 A  
HETATM   15  C   UNL     1      -8.188   5.213  67.688  1.00  0.00    -0.099 C  
HETATM   16  C   UNL     1      -8.886   3.593  64.346  1.00  0.00    -0.117 A  
HETATM   17  S   UNL     1      -9.002   2.135  65.238  1.00  0.00    -0.110 SA 
ENDBRANCH   8   9
ENDBRANCH   7   8
TORSDOF 2
ENDMDL
MODEL      213
REMARK 921   NORMALIZED FREE ENERGY PREDICTED BY IDOCK:   -2.54 KCAL/MOL
REMARK 922        TOTAL FREE ENERGY PREDICTED BY IDOCK:   -3.21 KCAL/MOL
REMARK 923 INTER-LIGAND FREE ENERGY PREDICTED BY IDOCK:   -3.41 KCAL/MOL
REMARK 924 INTRA-LIGAND FREE ENERGY PREDICTED BY IDOCK:    0.20 KCAL/MOL
REMARK 927      BINDING AFFINITY PREDICTED BY RF-SCORE:    0.00 PKD
ROOT
HETATM    1 CL   UNL     1     -12.897  10.210  71.533  1.00  0.00    -0.506 Cl 
HETATM    2  C   UNL     1     -11.861  10.012  70.164  1.00  0.00    -0.173 A  
HETATM    3  C   UNL     1     -11.745  11.097  69.288  1.00  0.00    -0.401 A  
HETATM    4  C   UNL     1     -10.917  11.017  68.169  1.00  0.00    -0.301 A  
HETATM    5  C   UNL     1     -10.182   9.859  67.934  1.00  0.00    -0.234 A  
HETATM    6  C   UNL     1     -10.301   8.773  68.800  1.00  0.00    -0.234 A  
HETATM    7  C   UNL     1     -11.165   8.819  69.913  1.00  0.00    -0.059 A  
ENDROOT
BRANCH   7   8
HETATM    8  C   UNL     1     -11.330   7.568  70.756  1.00  0.00    -0.280 C  
BRANCH   8   9
HETATM    9  N   UNL     1     -10.259   7.419  71.758  1.00  0.00    -0.191 NA 
HETATM   10  C   UNL     1      -9.200   8.449  71.612  1.00  0.00    -0.206 C  
HETATM   11  C   UNL     1      -8.217   8.438  72.807  1.00  0.00    -0.186 C  
HETATM   12  C   UNL     1      -7.915   7.029  73.209  1.00  0.00    -0.097 A  
HETATM   13  C   UNL     1      -8.591   5.934  72.713  1.00  0.00    -0.122 A  
HETATM   14  C   UNL     1      -8.126   4.729  73.322  1.00  0.00    -0.100 A  
HETATM   15  C   UNL     1      -9.664   6.067  71.667  1.00  0.00    -0.158 C  
HETATM   16  C   UNL     1      -7.140   4.967  74.256  1.00  0.00    -0.077 A  
HETATM   17  S   UNL     1      -6.758   6.632  74.384  1.00  0.00    -0.080 SA 
ENDBRANCH   8   9
ENDBRANCH   7   8
TORSDOF 2
ENDMDL
MODEL      214
REMARK 921   NORMALIZED FREE ENERGY PREDICTED BY IDOCK:   -2.54 KCAL/MOL
REMARK 922        TOTAL FREE ENERGY PREDICTED BY IDOCK:   -3.21 KCAL/MOL
REMARK 923 INTER-LIGAND FREE ENERGY PREDICTED BY IDOCK:   -3.13 KCAL/MOL
REMARK 924 INTRA-LIGAND FREE ENERGY PREDICTED BY IDOCK:   -0.08 KCAL/MOL
REMARK 927      BINDING AFFINITY PREDICTED BY RF-SCORE:    0.00 PKD
ROOT
HETATM    1 CL   UNL     1      -8.378   8.254  69.408  1.00  0.00    -0.120 Cl 
HETATM    2  C   UNL     1      -7.822   7.889  67.813  1.00  0.00    -0.123 A  
HETATM    3  C   UNL     1      -7.752   6.539  67.454  1.00  0.00    -0.101 A  
HETATM    4  C   UNL     1      -7.328   6.168  66.178  1.00  0.00    -0.080 A  
HETATM    5  C   UNL     1      -6.994   7.147  65.248  1.00  0.00    -0.056 A  
HETATM    6  C   UNL     1      -7.055   8.494  65.605  1.00  0.00    -0.079 A  
HETATM    7  C   UNL     1      -7.442   8.887  66.902  1.00  0.00    -0.083 A  
ENDROOT
BRANCH   7   8
HETATM    8  C   UNL     1      -7.386  10.361  67.260  1.00  0.00    -0.090 C  
BRANCH   8   9
HETATM    9  N   UNL     1      -8.670  11.046  67.027  1.00  0.00    -0.138 NA 
HETATM   10  C   UNL     1      -9.078  11.015  65.600  1.00  0.00    -0.206 C  
HETATM   11  C   UNL     1     -10.529  11.513  65.404  1.00  0.00    -0.333 C  
HETATM   12  C   UNL     1     -10.789  12.693  66.286  1.00  0.00    -0.273 A  
HETATM   13  C   UNL     1      -9.920  13.114  67.270  1.00  0.00    -0.230 A  
HETATM   14  C   UNL     1     -10.460  14.225  67.987  1.00  0.00    -0.235 A  
HETATM   15  C   UNL     1      -8.592  12.446  67.499  1.00  0.00    -0.177 C  
HETATM   16  C   UNL     1     -11.712  14.578  67.529  1.00  0.00    -0.386 A  
HETATM   17  S   UNL     1     -12.225  13.593  66.225  1.00  0.00    -0.418 SA 
ENDBRANCH   8   9
ENDBRANCH   7   8
TORSDOF 2
ENDMDL
MODEL      215
REMARK 921   NORMALIZED FREE ENERGY PREDICTED BY IDOCK:   -2.49 KCAL/MOL
REMARK 922        TOTAL FREE ENERGY PREDICTED BY IDOCK:   -3.15 KCAL/MOL
REMARK 923 INTER-LIGAND FREE ENERGY PREDICTED BY IDOCK:   -2.77 KCAL/MOL
REMARK 924 INTRA-LIGAND FREE ENERGY PREDICTED BY IDOCK:   -0.38 KCAL/MOL
REMARK 927      BINDING AFFINITY PREDICTED BY RF-SCORE:    0.00 PKD
ROOT
HETATM    1 CL   UNL     1     -11.257   8.484  70.224  1.00  0.00    -0.225 Cl 
HETATM    2  C   UNL     1     -10.360   7.652  71.445  1.00  0.00    -0.196 A  
HETATM    3  C   UNL     1      -9.753   8.433  72.435  1.00  0.00    -0.376 A  
HETATM    4  C   UNL     1      -9.026   7.831  73.462  1.00  0.00    -0.327 A  
HETATM    5  C   UNL     1      -8.923   6.445  73.516  1.00  0.00    -0.133 A  
HETATM    6  C   UNL     1      -9.520   5.664  72.526  1.00  0.00    -0.157 A  
HETATM    7  C   UNL     1     -10.224   6.256  71.458  1.00  0.00    -0.233 A  
ENDROOT
BRANCH   7   8
HETATM    8  C   UNL     1     -10.759   5.359  70.357  1.00  0.00    -0.206 C  
BRANCH   8   9
HETATM    9  N   UNL     1      -9.769   5.123  69.291  1.00  0.00    -0.156 NA 
HETATM   10  C   UNL     1     -10.138   5.792  68.018  1.00  0.00    -0.161 C  
HETATM   11  C   UNL     1      -8.984   5.746  66.988  1.00  0.00    -0.114 C  
HETATM   12  C   UNL     1      -8.316   4.409  67.025  1.00  0.00    -0.101 A  
HETATM   13  C   UNL     1      -8.570   3.457  67.991  1.00  0.00    -0.116 A  
HETATM   14  C   UNL     1      -7.744   2.308  67.805  1.00  0.00    -0.059 A  
HETATM   15  C   UNL     1      -9.600   3.670  69.066  1.00  0.00    -0.095 C  
HETATM   16  C   UNL     1      -6.894   2.448  66.728  1.00  0.00    -0.044 A  
HETATM   17  S   UNL     1      -7.109   3.948  65.927  1.00  0.00    -0.068 SA 
ENDBRANCH   8   9
ENDBRANCH   7   8
TORSDOF 2
ENDMDL
MODEL      216
REMARK 921   NORMALIZED FREE ENERGY PREDICTED BY IDOCK:   -2.49 KCAL/MOL
REMARK 922        TOTAL FREE ENERGY PREDICTED BY IDOCK:   -3.15 KCAL/MOL
REMARK 923 INTER-LIGAND FREE ENERGY PREDICTED BY IDOCK:   -3.36 KCAL/MOL
REMARK 924 INTRA-LIGAND FREE ENERGY PREDICTED BY IDOCK:    0.22 KCAL/MOL
REMARK 927      BINDING AFFINITY PREDICTED BY RF-SCORE:    0.00 PKD
ROOT
HETATM    1 CL   UNL     1      -7.903   9.702  65.484  1.00  0.00    -0.108 Cl 
HETATM    2  C   UNL     1      -9.300  10.611  65.941  1.00  0.00    -0.190 A  
HETATM    3  C   UNL     1     -10.230  10.902  64.936  1.00  0.00    -0.381 A  
HETATM    4  C   UNL     1     -11.389  11.619  65.232  1.00  0.00    -0.220 A  
HETATM    5  C   UNL     1     -11.634  12.028  66.539  1.00  0.00    -0.384 A  
HETATM    6  C   UNL     1     -10.706  11.746  67.541  1.00  0.00    -0.262 A  
HETATM    7  C   UNL     1      -9.510  11.059  67.254  1.00  0.00    -0.179 A  
ENDROOT
BRANCH   7   8
HETATM    8  C   UNL     1      -8.493  10.877  68.366  1.00  0.00    -0.141 C  
BRANCH   8   9
HETATM    9  N   UNL     1      -8.545   9.530  68.961  1.00  0.00    -0.128 NA 
HETATM   10  C   UNL     1      -7.383   8.693  68.568  1.00  0.00    -0.085 C  
HETATM   11  C   UNL     1      -7.316   7.380  69.386  1.00  0.00    -0.086 C  
HETATM   12  C   UNL     1      -8.689   6.814  69.559  1.00  0.00    -0.133 A  
HETATM   13  C   UNL     1      -9.841   7.492  69.219  1.00  0.00    -0.170 A  
HETATM   14  C   UNL     1     -11.000   6.727  69.552  1.00  0.00    -0.325 A  
HETATM   15  C   UNL     1      -9.804   8.853  68.581  1.00  0.00    -0.167 C  
HETATM   16  C   UNL     1     -10.676   5.524  70.141  1.00  0.00    -0.278 A  
HETATM   17  S   UNL     1      -8.981   5.303  70.271  1.00  0.00    -0.128 SA 
ENDBRANCH   8   9
ENDBRANCH   7   8
TORSDOF 2
ENDMDL
MODEL      217
REMARK 921   NORMALIZED FREE ENERGY PREDICTED BY IDOCK:   -2.41 KCAL/MOL
REMARK 922        TOTAL FREE ENERGY PREDICTED BY IDOCK:   -3.06 KCAL/MOL
REMARK 923 INTER-LIGAND FREE ENERGY PREDICTED BY IDOCK:   -2.77 KCAL/MOL
REMARK 924 INTRA-LIGAND FREE ENERGY PREDICTED BY IDOCK:   -0.29 KCAL/MOL
REMARK 927      BINDING AFFINITY PREDICTED BY RF-SCORE:    0.00 PKD
ROOT
HETATM    1 CL   UNL     1      -7.650  17.206  69.146  1.00  0.00    -0.186 Cl 
HETATM    2  C   UNL     1      -8.962  16.150  68.758  1.00  0.00    -0.236 A  
HETATM    3  C   UNL     1     -10.230  16.727  68.631  1.00  0.00    -0.298 A  
HETATM    4  C   UNL     1     -11.335  15.940  68.304  1.00  0.00    -0.342 A  
HETATM    5  C   UNL     1     -11.171  14.577  68.081  1.00  0.00    -0.301 A  
HETATM    6  C   UNL     1      -9.910  13.997  68.215  1.00  0.00    -0.233 A  
HETATM    7  C   UNL     1      -8.789  14.768  68.584  1.00  0.00    -0.180 A  
ENDROOT
BRANCH   7   8
HETATM    8  C   UNL     1      -7.467  14.060  68.816  1.00  0.00    -0.124 C  
BRANCH   8   9
HETATM    9  N   UNL     1      -7.524  12.630  68.467  1.00  0.00    -0.121 NA 
HETATM   10  C   UNL     1      -6.800  11.779  69.445  1.00  0.00    -0.067 C  
HETATM   11  C   UNL     1      -7.071  10.273  69.211  1.00  0.00    -0.083 C  
HETATM   12  C   UNL     1      -7.082   9.977  67.745  1.00  0.00    -0.086 A  
HETATM   13  C   UNL     1      -7.068  10.952  66.770  1.00  0.00    -0.129 A  
HETATM   14  C   UNL     1      -7.145  10.373  65.467  1.00  0.00    -0.133 A  
HETATM   15  C   UNL     1      -6.976  12.415  67.109  1.00  0.00    -0.077 C  
HETATM   16  C   UNL     1      -7.233   8.998  65.515  1.00  0.00    -0.085 A  
HETATM   17  S   UNL     1      -7.198   8.404  67.122  1.00  0.00    -0.085 SA 
ENDBRANCH   8   9
ENDBRANCH   7   8
TORSDOF 2
ENDMDL
MODEL      218
REMARK 921   NORMALIZED FREE ENERGY PREDICTED BY IDOCK:   -2.41 KCAL/MOL
REMARK 922        TOTAL FREE ENERGY PREDICTED BY IDOCK:   -3.06 KCAL/MOL
REMARK 923 INTER-LIGAND FREE ENERGY PREDICTED BY IDOCK:   -2.99 KCAL/MOL
REMARK 924 INTRA-LIGAND FREE ENERGY PREDICTED BY IDOCK:   -0.07 KCAL/MOL
REMARK 927      BINDING AFFINITY PREDICTED BY RF-SCORE:    0.00 PKD
ROOT
HETATM    1 CL   UNL     1     -11.004   6.096  67.065  1.00  0.00    -0.426 Cl 
HETATM    2  C   UNL     1     -10.226   5.901  68.596  1.00  0.00    -0.192 A  
HETATM    3  C   UNL     1      -9.511   4.716  68.803  1.00  0.00    -0.214 A  
HETATM    4  C   UNL     1      -8.845   4.495  70.008  1.00  0.00    -0.125 A  
HETATM    5  C   UNL     1      -8.871   5.467  71.002  1.00  0.00    -0.148 A  
HETATM    6  C   UNL     1      -9.589   6.646  70.802  1.00  0.00    -0.183 A  
HETATM    7  C   UNL     1     -10.303   6.871  69.608  1.00  0.00    -0.224 A  
ENDROOT
BRANCH   7   8
HETATM    8  C   UNL     1     -11.150   8.124  69.495  1.00  0.00     0.052 C  
BRANCH   8   9
HETATM    9  N   UNL     1     -10.352   9.314  69.149  1.00  0.00    -0.206 NA 
HETATM   10  C   UNL     1     -11.199  10.466  68.746  1.00  0.00    -0.241 C  
HETATM   11  C   UNL     1     -10.376  11.771  68.625  1.00  0.00    -0.228 C  
HETATM   12  C   UNL     1      -9.054  11.486  67.986  1.00  0.00    -0.174 A  
HETATM   13  C   UNL     1      -8.581  10.213  67.750  1.00  0.00    -0.118 A  
HETATM   14  C   UNL     1      -7.270  10.252  67.185  1.00  0.00    -0.090 A  
HETATM   15  C   UNL     1      -9.397   8.989  68.067  1.00  0.00    -0.141 C  
HETATM   16  C   UNL     1      -6.807  11.542  67.039  1.00  0.00    -0.147 A  
HETATM   17  S   UNL     1      -7.955  12.704  67.556  1.00  0.00    -0.185 SA 
ENDBRANCH   8   9
ENDBRANCH   7   8
TORSDOF 2
ENDMDL
MODEL      219
REMARK 921   NORMALIZED FREE ENERGY PREDICTED BY IDOCK:   -2.38 KCAL/MOL
REMARK 922        TOTAL FREE ENERGY PREDICTED BY IDOCK:   -3.03 KCAL/MOL
REMARK 923 INTER-LIGAND FREE ENERGY PREDICTED BY IDOCK:   -2.84 KCAL/MOL
REMARK 924 INTRA-LIGAND FREE ENERGY PREDICTED BY IDOCK:   -0.19 KCAL/MOL
REMARK 927      BINDING AFFINITY PREDICTED BY RF-SCORE:    0.00 PKD
ROOT
HETATM    1 CL   UNL     1      -8.604  18.735  65.940  1.00  0.00    -0.006 Cl 
HETATM    2  C   UNL     1      -9.089  17.088  66.143  1.00  0.00    -0.204 A  
HETATM    3  C   UNL     1     -10.423  16.776  65.859  1.00  0.00    -0.311 A  
HETATM    4  C   UNL     1     -10.883  15.465  65.985  1.00  0.00    -0.315 A  
HETATM    5  C   UNL     1     -10.006  14.458  66.374  1.00  0.00    -0.305 A  
HETATM    6  C   UNL     1      -8.678  14.768  66.666  1.00  0.00    -0.229 A  
HETATM    7  C   UNL     1      -8.204  16.092  66.584  1.00  0.00    -0.321 A  
ENDROOT
BRANCH   7   8
HETATM    8  C   UNL     1      -6.778  16.380  67.017  1.00  0.00    -0.204 C  
BRANCH   8   9
HETATM    9  N   UNL     1      -6.514  15.956  68.403  1.00  0.00    -0.112 NA 
HETATM   10  C   UNL     1      -5.786  16.991  69.183  1.00  0.00    -0.170 C  
HETATM   11  C   UNL     1      -5.731  16.644  70.689  1.00  0.00     0.044 C  
HETATM   12  C   UNL     1      -5.479  15.181  70.870  1.00  0.00    -0.105 A  
HETATM   13  C   UNL     1      -5.512  14.269  69.836  1.00  0.00    -0.098 A  
HETATM   14  C   UNL     1      -5.293  12.943  70.317  1.00  0.00    -0.121 A  
HETATM   15  C   UNL     1      -5.748  14.690  68.411  1.00  0.00    -0.106 C  
HETATM   16  C   UNL     1      -5.125  12.909  71.686  1.00  0.00    -0.139 A  
HETATM   17  S   UNL     1      -5.206  14.471  72.386  1.00  0.00    -0.135 SA 
ENDBRANCH   8   9
ENDBRANCH   7   8
TORSDOF 2
ENDMDL
MODEL      220
REMARK 921   NORMALIZED FREE ENERGY PREDICTED BY IDOCK:   -2.34 KCAL/MOL
REMARK 922        TOTAL FREE ENERGY PREDICTED BY IDOCK:   -2.99 KCAL/MOL
REMARK 923 INTER-LIGAND FREE ENERGY PREDICTED BY IDOCK:   -2.60 KCAL/MOL
REMARK 924 INTRA-LIGAND FREE ENERGY PREDICTED BY IDOCK:   -0.38 KCAL/MOL
REMARK 927      BINDING AFFINITY PREDICTED BY RF-SCORE:    0.00 PKD
ROOT
HETATM    1 CL   UNL     1      -7.230   9.100  69.149  1.00  0.00    -0.066 Cl 
HETATM    2  C   UNL     1      -8.542   9.757  68.236  1.00  0.00    -0.119 A  
HETATM    3  C   UNL     1      -8.523  11.135  67.992  1.00  0.00    -0.135 A  
HETATM    4  C   UNL     1      -9.540  11.734  67.249  1.00  0.00    -0.182 A  
HETATM    5  C   UNL     1     -10.568  10.955  66.728  1.00  0.00    -0.313 A  
HETATM    6  C   UNL     1     -10.594   9.583  66.977  1.00  0.00    -0.271 A  
HETATM    7  C   UNL     1      -9.598   8.965  67.759  1.00  0.00    -0.176 A  
ENDROOT
BRANCH   7   8
HETATM    8  C   UNL     1      -9.740   7.489  68.081  1.00  0.00    -0.154 C  
BRANCH   8   9
HETATM    9  N   UNL     1      -9.789   6.650  66.870  1.00  0.00    -0.162 NA 
HETATM   10  C   UNL     1     -10.274   5.275  67.152  1.00  0.00    -0.220 C  
HETATM   11  C   UNL     1     -10.556   4.485  65.852  1.00  0.00    -0.194 C  
HETATM   12  C   UNL     1      -9.490   4.766  64.841  1.00  0.00    -0.043 A  
HETATM   13  C   UNL     1      -8.536   5.750  64.994  1.00  0.00    -0.124 A  
HETATM   14  C   UNL     1      -7.691   5.824  63.845  1.00  0.00    -0.094 A  
HETATM   15  C   UNL     1      -8.452   6.592  66.237  1.00  0.00    -0.130 C  
HETATM   16  C   UNL     1      -8.054   4.915  62.874  1.00  0.00    -0.089 A  
HETATM   17  S   UNL     1      -9.391   3.956  63.354  1.00  0.00    -0.130 SA 
ENDBRANCH   8   9
ENDBRANCH   7   8
TORSDOF 2
ENDMDL
MODEL      221
REMARK 921   NORMALIZED FREE ENERGY PREDICTED BY IDOCK:   -2.33 KCAL/MOL
REMARK 922        TOTAL FREE ENERGY PREDICTED BY IDOCK:   -2.97 KCAL/MOL
REMARK 923 INTER-LIGAND FREE ENERGY PREDICTED BY IDOCK:   -3.21 KCAL/MOL
REMARK 924 INTRA-LIGAND FREE ENERGY PREDICTED BY IDOCK:    0.25 KCAL/MOL
REMARK 927      BINDING AFFINITY PREDICTED BY RF-SCORE:    0.00 PKD
ROOT
HETATM    1 CL   UNL     1      -7.740  10.311  66.092  1.00  0.00    -0.117 Cl 
HETATM    2  C   UNL     1      -9.161  11.016  66.775  1.00  0.00    -0.161 A  
HETATM    3  C   UNL     1      -9.217  12.414  66.831  1.00  0.00    -0.209 A  
HETATM    4  C   UNL     1     -10.339  13.055  67.355  1.00  0.00    -0.234 A  
HETATM    5  C   UNL     1     -11.420  12.302  67.805  1.00  0.00    -0.392 A  
HETATM    6  C   UNL     1     -11.364  10.910  67.757  1.00  0.00    -0.366 A  
HETATM    7  C   UNL     1     -10.222  10.242  67.270  1.00  0.00    -0.267 A  
ENDROOT
BRANCH   7   8
HETATM    8  C   UNL     1     -10.181   8.727  67.343  1.00  0.00    -0.252 C  
BRANCH   8   9
HETATM    9  N   UNL     1      -9.868   8.237  68.697  1.00  0.00    -0.171 NA 
HETATM   10  C   UNL     1     -10.863   8.684  69.705  1.00  0.00    -0.183 C  
HETATM   11  C   UNL     1     -10.668   7.970  71.064  1.00  0.00    -0.245 C  
HETATM   12  C   UNL     1      -9.210   7.851  71.376  1.00  0.00    -0.136 A  
HETATM   13  C   UNL     1      -8.212   8.147  70.472  1.00  0.00    -0.117 A  
HETATM   14  C   UNL     1      -6.924   7.883  71.029  1.00  0.00    -0.049 A  
HETATM   15  C   UNL     1      -8.514   8.678  69.098  1.00  0.00    -0.124 C  
HETATM   16  C   UNL     1      -7.007   7.385  72.313  1.00  0.00    -0.063 A  
HETATM   17  S   UNL     1      -8.627   7.259  72.854  1.00  0.00    -0.127 SA 
ENDBRANCH   8   9
ENDBRANCH   7   8
TORSDOF 2
ENDMDL
MODEL      222
REMARK 921   NORMALIZED FREE ENERGY PREDICTED BY IDOCK:   -2.32 KCAL/MOL
REMARK 922        TOTAL FREE ENERGY PREDICTED BY IDOCK:   -2.96 KCAL/MOL
REMARK 923 INTER-LIGAND FREE ENERGY PREDICTED BY IDOCK:   -2.67 KCAL/MOL
REMARK 924 INTRA-LIGAND FREE ENERGY PREDICTED BY IDOCK:   -0.28 KCAL/MOL
REMARK 927      BINDING AFFINITY PREDICTED BY RF-SCORE:    0.00 PKD
ROOT
HETATM    1 CL   UNL     1      -6.145   4.447  65.532  1.00  0.00    -0.026 Cl 
HETATM    2  C   UNL     1      -7.420   3.709  66.435  1.00  0.00    -0.077 A  
HETATM    3  C   UNL     1      -7.222   2.390  66.860  1.00  0.00    -0.053 A  
HETATM    4  C   UNL     1      -8.200   1.733  67.606  1.00  0.00    -0.073 A  
HETATM    5  C   UNL     1      -9.370   2.400  67.952  1.00  0.00    -0.237 A  
HETATM    6  C   UNL     1      -9.574   3.712  67.525  1.00  0.00    -0.194 A  
HETATM    7  C   UNL     1      -8.616   4.379  66.734  1.00  0.00    -0.107 A  
ENDROOT
BRANCH   7   8
HETATM    8  C   UNL     1      -8.944   5.765  66.213  1.00  0.00    -0.146 C  
BRANCH   8   9
HETATM    9  N   UNL     1      -9.478   6.651  67.264  1.00  0.00    -0.130 NA 
HETATM   10  C   UNL     1      -9.975   7.940  66.719  1.00  0.00    -0.263 C  
HETATM   11  C   UNL     1     -10.752   8.753  67.782  1.00  0.00    -0.193 C  
HETATM   12  C   UNL     1     -10.062   8.656  69.105  1.00  0.00    -0.199 A  
HETATM   13  C   UNL     1      -9.019   7.791  69.359  1.00  0.00    -0.142 A  
HETATM   14  C   UNL     1      -8.603   7.878  70.722  1.00  0.00    -0.132 A  
HETATM   15  C   UNL     1      -8.442   6.905  68.289  1.00  0.00    -0.125 C  
HETATM   16  C   UNL     1      -9.358   8.784  71.437  1.00  0.00    -0.258 A  
HETATM   17  S   UNL     1     -10.546   9.545  70.466  1.00  0.00    -0.320 SA 
ENDBRANCH   8   9
ENDBRANCH   7   8
TORSDOF 2
ENDMDL
MODEL      223
REMARK 921   NORMALIZED FREE ENERGY PREDICTED BY IDOCK:   -2.28 KCAL/MOL
REMARK 922        TOTAL FREE ENERGY PREDICTED BY IDOCK:   -2.91 KCAL/MOL
REMARK 923 INTER-LIGAND FREE ENERGY PREDICTED BY IDOCK:   -3.50 KCAL/MOL
REMARK 924 INTRA-LIGAND FREE ENERGY PREDICTED BY IDOCK:    0.59 KCAL/MOL
REMARK 927      BINDING AFFINITY PREDICTED BY RF-SCORE:    0.00 PKD
ROOT
HETATM    1 CL   UNL     1      -9.281  11.028  66.263  1.00  0.00    -0.191 Cl 
HETATM    2  C   UNL     1      -8.616  12.332  67.183  1.00  0.00    -0.187 A  
HETATM    3  C   UNL     1      -7.243  12.568  67.057  1.00  0.00     0.019 A  
HETATM    4  C   UNL     1      -6.638  13.612  67.756  1.00  0.00    -0.178 A  
HETATM    5  C   UNL     1      -7.409  14.439  68.567  1.00  0.00    -0.122 A  
HETATM    6  C   UNL     1      -8.777  14.202  68.700  1.00  0.00    -0.126 A  
HETATM    7  C   UNL     1      -9.399  13.127  68.034  1.00  0.00    -0.219 A  
ENDROOT
BRANCH   7   8
HETATM    8  C   UNL     1     -10.867  12.859  68.304  1.00  0.00    -0.242 C  
BRANCH   8   9
HETATM    9  N   UNL     1     -11.072  11.759  69.264  1.00  0.00    -0.238 NA 
HETATM   10  C   UNL     1     -10.596  10.454  68.738  1.00  0.00    -0.208 C  
HETATM   11  C   UNL     1     -10.587   9.361  69.834  1.00  0.00    -0.258 C  
HETATM   12  C   UNL     1     -11.807   9.483  70.689  1.00  0.00    -0.233 A  
HETATM   13  C   UNL     1     -12.680  10.549  70.624  1.00  0.00    -0.441 A  
HETATM   14  C   UNL     1     -13.716  10.420  71.598  1.00  0.00    -0.060 A  
HETATM   15  C   UNL     1     -12.503  11.663  69.629  1.00  0.00     0.015 C  
HETATM   16  C   UNL     1     -13.571   9.282  72.363  1.00  0.00    -0.463 A  
HETATM   17  S   UNL     1     -12.206   8.358  71.894  1.00  0.00    -0.367 SA 
ENDBRANCH   8   9
ENDBRANCH   7   8
TORSDOF 2
ENDMDL
MODEL      224
REMARK 921   NORMALIZED FREE ENERGY PREDICTED BY IDOCK:   -2.27 KCAL/MOL
REMARK 922        TOTAL FREE ENERGY PREDICTED BY IDOCK:   -2.90 KCAL/MOL
REMARK 923 INTER-LIGAND FREE ENERGY PREDICTED BY IDOCK:   -3.40 KCAL/MOL
REMARK 924 INTRA-LIGAND FREE ENERGY PREDICTED BY IDOCK:    0.49 KCAL/MOL
REMARK 927      BINDING AFFINITY PREDICTED BY RF-SCORE:    0.00 PKD
ROOT
HETATM    1 CL   UNL     1     -12.372  16.060  70.019  1.00  0.00    -0.147 Cl 
HETATM    2  C   UNL     1     -11.998  14.996  68.711  1.00  0.00    -0.249 A  
HETATM    3  C   UNL     1     -12.254  13.633  68.902  1.00  0.00    -0.221 A  
HETATM    4  C   UNL     1     -11.992  12.715  67.885  1.00  0.00    -0.307 A  
HETATM    5  C   UNL     1     -11.494  13.159  66.664  1.00  0.00    -0.389 A  
HETATM    6  C   UNL     1     -11.231  14.515  66.473  1.00  0.00    -0.344 A  
HETATM    7  C   UNL     1     -11.450  15.452  67.502  1.00  0.00    -0.228 A  
ENDROOT
BRANCH   7   8
HETATM    8  C   UNL     1     -11.044  16.895  67.267  1.00  0.00     0.091 C  
BRANCH   8   9
HETATM    9  N   UNL     1      -9.581  17.072  67.240  1.00  0.00    -0.240 NA 
HETATM   10  C   UNL     1      -9.120  17.792  66.025  1.00  0.00    -0.003 C  
HETATM   11  C   UNL     1      -7.628  18.188  66.122  1.00  0.00    -0.278 C  
HETATM   12  C   UNL     1      -6.842  17.076  66.740  1.00  0.00    -0.230 A  
HETATM   13  C   UNL     1      -7.419  15.968  67.323  1.00  0.00    -0.236 A  
HETATM   14  C   UNL     1      -6.424  15.107  67.879  1.00  0.00    -0.176 A  
HETATM   15  C   UNL     1      -8.908  15.757  67.331  1.00  0.00    -0.186 C  
HETATM   16  C   UNL     1      -5.151  15.609  67.711  1.00  0.00    -0.101 A  
HETATM   17  S   UNL     1      -5.150  17.098  66.863  1.00  0.00    -0.153 SA 
ENDBRANCH   8   9
ENDBRANCH   7   8
TORSDOF 2
ENDMDL
MODEL      225
REMARK 921   NORMALIZED FREE ENERGY PREDICTED BY IDOCK:   -2.25 KCAL/MOL
REMARK 922        TOTAL FREE ENERGY PREDICTED BY IDOCK:   -2.88 KCAL/MOL
REMARK 923 INTER-LIGAND FREE ENERGY PREDICTED BY IDOCK:   -2.53 KCAL/MOL
REMARK 924 INTRA-LIGAND FREE ENERGY PREDICTED BY IDOCK:   -0.35 KCAL/MOL
REMARK 927      BINDING AFFINITY PREDICTED BY RF-SCORE:    0.00 PKD
ROOT
HETATM    1 CL   UNL     1      -6.798   7.935  67.030  1.00  0.00    -0.071 Cl 
HETATM    2  C   UNL     1      -8.398   7.358  67.335  1.00  0.00    -0.116 A  
HETATM    3  C   UNL     1      -9.447   8.002  66.667  1.00  0.00    -0.273 A  
HETATM    4  C   UNL     1     -10.764   7.582  66.851  1.00  0.00    -0.299 A  
HETATM    5  C   UNL     1     -11.036   6.502  67.685  1.00  0.00    -0.426 A  
HETATM    6  C   UNL     1      -9.994   5.864  68.357  1.00  0.00    -0.184 A  
HETATM    7  C   UNL     1      -8.661   6.299  68.217  1.00  0.00    -0.115 A  
ENDROOT
BRANCH   7   8
HETATM    8  C   UNL     1      -7.588   5.632  69.056  1.00  0.00    -0.088 C  
BRANCH   8   9
HETATM    9  N   UNL     1      -7.184   6.453  70.212  1.00  0.00    -0.078 NA 
HETATM   10  C   UNL     1      -5.759   6.252  70.579  1.00  0.00    -0.018 C  
HETATM   11  C   UNL     1      -5.281   7.289  71.623  1.00  0.00    -0.028 C  
HETATM   12  C   UNL     1      -6.348   7.514  72.647  1.00  0.00    -0.058 A  
HETATM   13  C   UNL     1      -7.631   7.023  72.530  1.00  0.00    -0.089 A  
HETATM   14  C   UNL     1      -8.441   7.447  73.627  1.00  0.00    -0.202 A  
HETATM   15  C   UNL     1      -8.050   6.157  71.374  1.00  0.00    -0.118 C  
HETATM   16  C   UNL     1      -7.745   8.250  74.506  1.00  0.00    -0.244 A  
HETATM   17  S   UNL     1      -6.115   8.471  74.027  1.00  0.00    -0.124 SA 
ENDBRANCH   8   9
ENDBRANCH   7   8
TORSDOF 2
ENDMDL
MODEL      226
REMARK 921   NORMALIZED FREE ENERGY PREDICTED BY IDOCK:   -2.24 KCAL/MOL
REMARK 922        TOTAL FREE ENERGY PREDICTED BY IDOCK:   -2.87 KCAL/MOL
REMARK 923 INTER-LIGAND FREE ENERGY PREDICTED BY IDOCK:   -2.79 KCAL/MOL
REMARK 924 INTRA-LIGAND FREE ENERGY PREDICTED BY IDOCK:   -0.08 KCAL/MOL
REMARK 927      BINDING AFFINITY PREDICTED BY RF-SCORE:    0.00 PKD
ROOT
HETATM    1 CL   UNL     1      -7.800   7.220  69.496  1.00  0.00    -0.116 Cl 
HETATM    2  C   UNL     1      -8.955   6.623  68.358  1.00  0.00    -0.123 A  
HETATM    3  C   UNL     1      -9.825   7.556  67.781  1.00  0.00    -0.191 A  
HETATM    4  C   UNL     1     -10.774   7.151  66.843  1.00  0.00    -0.363 A  
HETATM    5  C   UNL     1     -10.842   5.816  66.459  1.00  0.00    -0.227 A  
HETATM    6  C   UNL     1      -9.981   4.883  67.037  1.00  0.00    -0.238 A  
HETATM    7  C   UNL     1      -9.044   5.265  68.017  1.00  0.00    -0.118 A  
ENDROOT
BRANCH   7   8
HETATM    8  C   UNL     1      -8.210   4.186  68.684  1.00  0.00    -0.082 C  
BRANCH   8   9
HETATM    9  N   UNL     1      -8.285   4.244  70.154  1.00  0.00    -0.058 NA 
HETATM   10  C   UNL     1      -7.480   3.178  70.805  1.00  0.00    -0.037 C  
HETATM   11  C   UNL     1      -7.365   3.395  72.332  1.00  0.00    -0.049 C  
HETATM   12  C   UNL     1      -8.676   3.858  72.884  1.00  0.00    -0.098 A  
HETATM   13  C   UNL     1      -9.744   4.234  72.097  1.00  0.00    -0.221 A  
HETATM   14  C   UNL     1     -10.836   4.685  72.899  1.00  0.00    -0.295 A  
HETATM   15  C   UNL     1      -9.695   4.150  70.596  1.00  0.00    -0.203 C  
HETATM   16  C   UNL     1     -10.540   4.648  74.246  1.00  0.00    -0.274 A  
HETATM   17  S   UNL     1      -8.963   4.049  74.545  1.00  0.00    -0.099 SA 
ENDBRANCH   8   9
ENDBRANCH   7   8
TORSDOF 2
ENDMDL
MODEL      227
REMARK 921   NORMALIZED FREE ENERGY PREDICTED BY IDOCK:   -2.23 KCAL/MOL
REMARK 922        TOTAL FREE ENERGY PREDICTED BY IDOCK:   -2.85 KCAL/MOL
REMARK 923 INTER-LIGAND FREE ENERGY PREDICTED BY IDOCK:   -3.16 KCAL/MOL
REMARK 924 INTRA-LIGAND FREE ENERGY PREDICTED BY IDOCK:    0.30 KCAL/MOL
REMARK 927      BINDING AFFINITY PREDICTED BY RF-SCORE:    0.00 PKD
ROOT
HETATM    1 CL   UNL     1      -8.932  13.549  67.021  1.00  0.00    -0.235 Cl 
HETATM    2  C   UNL     1      -8.708  11.854  66.768  1.00  0.00    -0.193 A  
HETATM    3  C   UNL     1      -7.831  11.471  65.747  1.00  0.00     0.408 A  
HETATM    4  C   UNL     1      -7.588  10.121  65.494  1.00  0.00    -0.146 A  
HETATM    5  C   UNL     1      -8.203   9.149  66.276  1.00  0.00    -0.111 A  
HETATM    6  C   UNL     1      -9.083   9.527  67.290  1.00  0.00    -0.146 A  
HETATM    7  C   UNL     1      -9.374  10.884  67.534  1.00  0.00    -0.164 A  
ENDROOT
BRANCH   7   8
HETATM    8  C   UNL     1     -10.420  11.226  68.578  1.00  0.00    -0.197 C  
BRANCH   8   9
HETATM    9  N   UNL     1     -10.617  10.139  69.554  1.00  0.00    -0.228 NA 
HETATM   10  C   UNL     1     -11.553  10.519  70.643  1.00  0.00    -0.352 C  
HETATM   11  C   UNL     1     -11.944   9.303  71.517  1.00  0.00    -0.439 C  
HETATM   12  C   UNL     1     -10.748   8.437  71.754  1.00  0.00    -0.285 A  
HETATM   13  C   UNL     1      -9.545   8.605  71.102  1.00  0.00    -0.281 A  
HETATM   14  C   UNL     1      -8.610   7.596  71.488  1.00  0.00    -0.126 A  
HETATM   15  C   UNL     1      -9.317   9.728  70.128  1.00  0.00    -0.215 C  
HETATM   16  C   UNL     1      -9.151   6.707  72.393  1.00  0.00    -0.135 A  
HETATM   17  S   UNL     1     -10.769   7.098  72.796  1.00  0.00    -0.317 SA 
ENDBRANCH   8   9
ENDBRANCH   7   8
TORSDOF 2
ENDMDL
MODEL      228
REMARK 921   NORMALIZED FREE ENERGY PREDICTED BY IDOCK:   -2.22 KCAL/MOL
REMARK 922        TOTAL FREE ENERGY PREDICTED BY IDOCK:   -2.85 KCAL/MOL
REMARK 923 INTER-LIGAND FREE ENERGY PREDICTED BY IDOCK:   -2.81 KCAL/MOL
REMARK 924 INTRA-LIGAND FREE ENERGY PREDICTED BY IDOCK:   -0.03 KCAL/MOL
REMARK 927      BINDING AFFINITY PREDICTED BY RF-SCORE:    0.00 PKD
ROOT
HETATM    1 CL   UNL     1     -10.183   5.861  72.201  1.00  0.00    -0.220 Cl 
HETATM    2  C   UNL     1     -10.427   4.168  72.448  1.00  0.00    -0.102 A  
HETATM    3  C   UNL     1     -11.359   3.793  73.422  1.00  0.00    -0.224 A  
HETATM    4  C   UNL     1     -11.621   2.445  73.667  1.00  0.00    -0.220 A  
HETATM    5  C   UNL     1     -10.969   1.467  72.922  1.00  0.00    -0.239 A  
HETATM    6  C   UNL     1     -10.035   1.838  71.956  1.00  0.00    -0.215 A  
HETATM    7  C   UNL     1      -9.726   3.193  71.723  1.00  0.00    -0.234 A  
ENDROOT
BRANCH   7   8
HETATM    8  C   UNL     1      -8.624   3.526  70.734  1.00  0.00    -0.071 C  
BRANCH   8   9
HETATM    9  N   UNL     1      -9.024   4.571  69.775  1.00  0.00    -0.093 NA 
HETATM   10  C   UNL     1      -9.362   4.014  68.440  1.00  0.00    -0.160 C  
HETATM   11  C   UNL     1     -10.013   5.076  67.521  1.00  0.00    -0.209 C  
HETATM   12  C   UNL     1      -9.321   6.392  67.689  1.00  0.00    -0.117 A  
HETATM   13  C   UNL     1      -8.393   6.643  68.677  1.00  0.00    -0.123 A  
HETATM   14  C   UNL     1      -7.949   8.000  68.626  1.00  0.00    -0.123 A  
HETATM   15  C   UNL     1      -7.949   5.579  69.642  1.00  0.00    -0.093 C  
HETATM   16  C   UNL     1      -8.572   8.712  67.623  1.00  0.00    -0.136 A  
HETATM   17  S   UNL     1      -9.668   7.746  66.729  1.00  0.00    -0.233 SA 
ENDBRANCH   8   9
ENDBRANCH   7   8
TORSDOF 2
ENDMDL
MODEL      229
REMARK 921   NORMALIZED FREE ENERGY PREDICTED BY IDOCK:   -2.21 KCAL/MOL
REMARK 922        TOTAL FREE ENERGY PREDICTED BY IDOCK:   -2.84 KCAL/MOL
REMARK 923 INTER-LIGAND FREE ENERGY PREDICTED BY IDOCK:   -2.61 KCAL/MOL
REMARK 924 INTRA-LIGAND FREE ENERGY PREDICTED BY IDOCK:   -0.22 KCAL/MOL
REMARK 927      BINDING AFFINITY PREDICTED BY RF-SCORE:    0.00 PKD
ROOT
HETATM    1 CL   UNL     1      -6.608  13.961  68.503  1.00  0.00    -0.090 Cl 
HETATM    2  C   UNL     1      -8.082  14.075  67.608  1.00  0.00    -0.174 A  
HETATM    3  C   UNL     1      -8.221  15.166  66.742  1.00  0.00    -0.172 A  
HETATM    4  C   UNL     1      -9.376  15.317  65.975  1.00  0.00    -0.346 A  
HETATM    5  C   UNL     1     -10.387  14.364  66.053  1.00  0.00    -0.319 A  
HETATM    6  C   UNL     1     -10.254  13.279  66.920  1.00  0.00    -0.250 A  
HETATM    7  C   UNL     1      -9.114  13.132  67.734  1.00  0.00    -0.200 A  
ENDROOT
BRANCH   7   8
HETATM    8  C   UNL     1      -9.077  11.990  68.732  1.00  0.00     0.083 C  
BRANCH   8   9
HETATM    9  N   UNL     1      -9.090  10.669  68.077  1.00  0.00    -0.144 NA 
HETATM   10  C   UNL     1      -8.875   9.558  69.039  1.00  0.00    -0.143 C  
HETATM   11  C   UNL     1      -9.135   8.177  68.392  1.00  0.00    -0.136 C  
HETATM   12  C   UNL     1      -8.583   8.151  67.002  1.00  0.00    -0.123 A  
HETATM   13  C   UNL     1      -8.114   9.270  66.348  1.00  0.00    -0.107 A  
HETATM   14  C   UNL     1      -7.706   8.950  65.017  1.00  0.00    -0.103 A  
HETATM   15  C   UNL     1      -8.063  10.619  67.013  1.00  0.00    -0.120 C  
HETATM   16  C   UNL     1      -7.902   7.618  64.721  1.00  0.00    -0.129 A  
HETATM   17  S   UNL     1      -8.550   6.749  66.048  1.00  0.00    -0.141 SA 
ENDBRANCH   8   9
ENDBRANCH   7   8
TORSDOF 2
ENDMDL
MODEL      230
REMARK 921   NORMALIZED FREE ENERGY PREDICTED BY IDOCK:   -2.19 KCAL/MOL
REMARK 922        TOTAL FREE ENERGY PREDICTED BY IDOCK:   -2.82 KCAL/MOL
REMARK 923 INTER-LIGAND FREE ENERGY PREDICTED BY IDOCK:   -2.48 KCAL/MOL
REMARK 924 INTRA-LIGAND FREE ENERGY PREDICTED BY IDOCK:   -0.34 KCAL/MOL
REMARK 927      BINDING AFFINITY PREDICTED BY RF-SCORE:    0.00 PKD
ROOT
HETATM    1 CL   UNL     1      -7.354  10.061  68.041  1.00  0.00    -0.086 Cl 
HETATM    2  C   UNL     1      -8.687  10.403  66.995  1.00  0.00    -0.130 A  
HETATM    3  C   UNL     1      -9.775  11.086  67.549  1.00  0.00    -0.190 A  
HETATM    4  C   UNL     1     -10.880  11.410  66.763  1.00  0.00    -0.336 A  
HETATM    5  C   UNL     1     -10.892  11.074  65.413  1.00  0.00    -0.168 A  
HETATM    6  C   UNL     1      -9.812  10.386  64.860  1.00  0.00    -0.400 A  
HETATM    7  C   UNL     1      -8.705  10.013  65.647  1.00  0.00    -0.171 A  
ENDROOT
BRANCH   7   8
HETATM    8  C   UNL     1      -7.612   9.174  65.010  1.00  0.00    -0.106 C  
BRANCH   8   9
HETATM    9  N   UNL     1      -8.062   7.806  64.697  1.00  0.00    -0.143 NA 
HETATM   10  C   UNL     1      -8.308   6.997  65.918  1.00  0.00    -0.141 C  
HETATM   11  C   UNL     1      -9.010   5.658  65.590  1.00  0.00    -0.139 C  
HETATM   12  C   UNL     1      -8.433   5.069  64.341  1.00  0.00    -0.142 A  
HETATM   13  C   UNL     1      -7.562   5.745  63.513  1.00  0.00    -0.079 A  
HETATM   14  C   UNL     1      -7.227   4.955  62.371  1.00  0.00    -0.034 A  
HETATM   15  C   UNL     1      -7.068   7.129  63.835  1.00  0.00    -0.061 C  
HETATM   16  C   UNL     1      -7.870   3.736  62.378  1.00  0.00    -0.062 A  
HETATM   17  S   UNL     1      -8.854   3.531  63.766  1.00  0.00    -0.096 SA 
ENDBRANCH   8   9
ENDBRANCH   7   8
TORSDOF 2
ENDMDL
MODEL      231
REMARK 921   NORMALIZED FREE ENERGY PREDICTED BY IDOCK:   -2.19 KCAL/MOL
REMARK 922        TOTAL FREE ENERGY PREDICTED BY IDOCK:   -2.81 KCAL/MOL
REMARK 923 INTER-LIGAND FREE ENERGY PREDICTED BY IDOCK:   -3.10 KCAL/MOL
REMARK 924 INTRA-LIGAND FREE ENERGY PREDICTED BY IDOCK:    0.29 KCAL/MOL
REMARK 927      BINDING AFFINITY PREDICTED BY RF-SCORE:    0.00 PKD
ROOT
HETATM    1 CL   UNL     1      -9.397   9.413  65.096  1.00  0.00    -0.310 Cl 
HETATM    2  C   UNL     1      -9.731   9.720  66.763  1.00  0.00    -0.194 A  
HETATM    3  C   UNL     1      -9.303  10.946  67.286  1.00  0.00    -0.168 A  
HETATM    4  C   UNL     1      -9.550  11.270  68.619  1.00  0.00    -0.195 A  
HETATM    5  C   UNL     1     -10.247  10.380  69.430  1.00  0.00    -0.257 A  
HETATM    6  C   UNL     1     -10.668   9.155  68.915  1.00  0.00    -0.167 A  
HETATM    7  C   UNL     1     -10.392   8.791  67.582  1.00  0.00    -0.317 A  
ENDROOT
BRANCH   7   8
HETATM    8  C   UNL     1     -10.784   7.402  67.113  1.00  0.00    -0.330 C  
BRANCH   8   9
HETATM    9  N   UNL     1     -10.089   6.338  67.860  1.00  0.00    -0.133 NA 
HETATM   10  C   UNL     1     -10.657   6.137  69.218  1.00  0.00    -0.285 C  
HETATM   11  C   UNL     1     -10.091   4.866  69.896  1.00  0.00    -0.332 C  
HETATM   12  C   UNL     1      -8.628   4.743  69.613  1.00  0.00    -0.082 A  
HETATM   13  C   UNL     1      -7.958   5.536  68.706  1.00  0.00    -0.095 A  
HETATM   14  C   UNL     1      -6.587   5.150  68.605  1.00  0.00    -0.048 A  
HETATM   15  C   UNL     1      -8.645   6.646  67.960  1.00  0.00    -0.118 C  
HETATM   16  C   UNL     1      -6.288   4.079  69.420  1.00  0.00    -0.029 A  
HETATM   17  S   UNL     1      -7.647   3.554  70.323  1.00  0.00    -0.044 SA 
ENDBRANCH   8   9
ENDBRANCH   7   8
TORSDOF 2
ENDMDL
MODEL      232
REMARK 921   NORMALIZED FREE ENERGY PREDICTED BY IDOCK:   -2.12 KCAL/MOL
REMARK 922        TOTAL FREE ENERGY PREDICTED BY IDOCK:   -2.74 KCAL/MOL
REMARK 923 INTER-LIGAND FREE ENERGY PREDICTED BY IDOCK:   -2.35 KCAL/MOL
REMARK 924 INTRA-LIGAND FREE ENERGY PREDICTED BY IDOCK:   -0.39 KCAL/MOL
REMARK 927      BINDING AFFINITY PREDICTED BY RF-SCORE:    0.00 PKD
ROOT
HETATM    1 CL   UNL     1      -5.297  11.234  68.145  1.00  0.00    -0.043 Cl 
HETATM    2  C   UNL     1      -6.970  11.665  68.099  1.00  0.00    -0.071 A  
HETATM    3  C   UNL     1      -7.301  12.872  67.474  1.00  0.00    -0.154 A  
HETATM    4  C   UNL     1      -8.632  13.279  67.385  1.00  0.00    -0.204 A  
HETATM    5  C   UNL     1      -9.639  12.469  67.900  1.00  0.00    -0.206 A  
HETATM    6  C   UNL     1      -9.311  11.269  68.531  1.00  0.00    -0.182 A  
HETATM    7  C   UNL     1      -7.970  10.861  68.667  1.00  0.00    -0.140 A  
ENDROOT
BRANCH   7   8
HETATM    8  C   UNL     1      -7.673   9.599  69.456  1.00  0.00    -0.109 C  
BRANCH   8   9
HETATM    9  N   UNL     1      -8.345   8.413  68.896  1.00  0.00    -0.119 NA 
HETATM   10  C   UNL     1      -8.495   7.323  69.894  1.00  0.00    -0.140 C  
HETATM   11  C   UNL     1      -9.412   6.190  69.375  1.00  0.00    -0.153 C  
HETATM   12  C   UNL     1      -9.127   5.920  67.932  1.00  0.00    -0.109 A  
HETATM   13  C   UNL     1      -8.320   6.722  67.152  1.00  0.00    -0.121 A  
HETATM   14  C   UNL     1      -8.282   6.251  65.805  1.00  0.00    -0.136 A  
HETATM   15  C   UNL     1      -7.601   7.917  67.717  1.00  0.00    -0.109 C  
HETATM   16  C   UNL     1      -9.071   5.135  65.623  1.00  0.00    -0.157 A  
HETATM   17  S   UNL     1      -9.836   4.640  67.074  1.00  0.00    -0.196 SA 
ENDBRANCH   8   9
ENDBRANCH   7   8
TORSDOF 2
ENDMDL
MODEL      233
REMARK 921   NORMALIZED FREE ENERGY PREDICTED BY IDOCK:   -2.12 KCAL/MOL
REMARK 922        TOTAL FREE ENERGY PREDICTED BY IDOCK:   -2.74 KCAL/MOL
REMARK 923 INTER-LIGAND FREE ENERGY PREDICTED BY IDOCK:   -2.85 KCAL/MOL
REMARK 924 INTRA-LIGAND FREE ENERGY PREDICTED BY IDOCK:    0.12 KCAL/MOL
REMARK 927      BINDING AFFINITY PREDICTED BY RF-SCORE:    0.00 PKD
ROOT
HETATM    1 CL   UNL     1     -10.602   7.639  66.941  1.00  0.00    -0.411 Cl 
HETATM    2  C   UNL     1     -10.146   6.978  68.471  1.00  0.00    -0.165 A  
HETATM    3  C   UNL     1     -11.113   6.237  69.161  1.00  0.00    -0.457 A  
HETATM    4  C   UNL     1     -10.813   5.660  70.395  1.00  0.00    -0.326 A  
HETATM    5  C   UNL     1      -9.538   5.802  70.933  1.00  0.00    -0.205 A  
HETATM    6  C   UNL     1      -8.575   6.546  70.252  1.00  0.00    -0.136 A  
HETATM    7  C   UNL     1      -8.871   7.171  69.024  1.00  0.00    -0.131 A  
ENDROOT
BRANCH   7   8
HETATM    8  C   UNL     1      -7.814   8.054  68.387  1.00  0.00    -0.122 C  
BRANCH   8   9
HETATM    9  N   UNL     1      -7.853   8.004  66.914  1.00  0.00    -0.102 NA 
HETATM   10  C   UNL     1      -6.867   7.045  66.353  1.00  0.00    -0.061 C  
HETATM   11  C   UNL     1      -7.082   6.818  64.838  1.00  0.00    -0.060 C  
HETATM   12  C   UNL     1      -7.409   8.114  64.167  1.00  0.00    -0.095 A  
HETATM   13  C   UNL     1      -7.685   9.279  64.853  1.00  0.00    -0.110 A  
HETATM   14  C   UNL     1      -8.019  10.334  63.952  1.00  0.00    -0.126 A  
HETATM   15  C   UNL     1      -7.617   9.354  66.353  1.00  0.00    -0.097 C  
HETATM   16  C   UNL     1      -8.001   9.920  62.637  1.00  0.00    -0.129 A  
HETATM   17  S   UNL     1      -7.558   8.271  62.485  1.00  0.00    -0.119 SA 
ENDBRANCH   8   9
ENDBRANCH   7   8
TORSDOF 2
ENDMDL
MODEL      234
REMARK 921   NORMALIZED FREE ENERGY PREDICTED BY IDOCK:   -2.12 KCAL/MOL
REMARK 922        TOTAL FREE ENERGY PREDICTED BY IDOCK:   -2.73 KCAL/MOL
REMARK 923 INTER-LIGAND FREE ENERGY PREDICTED BY IDOCK:   -2.38 KCAL/MOL
REMARK 924 INTRA-LIGAND FREE ENERGY PREDICTED BY IDOCK:   -0.35 KCAL/MOL
REMARK 927      BINDING AFFINITY PREDICTED BY RF-SCORE:    0.00 PKD
ROOT
HETATM    1 CL   UNL     1      -9.033   2.855  66.922  1.00  0.00    -0.162 Cl 
HETATM    2  C   UNL     1      -8.810   3.540  65.351  1.00  0.00    -0.126 A  
HETATM    3  C   UNL     1      -9.301   2.812  64.261  1.00  0.00    -0.131 A  
HETATM    4  C   UNL     1      -9.172   3.309  62.964  1.00  0.00    -0.092 A  
HETATM    5  C   UNL     1      -8.571   4.546  62.754  1.00  0.00    -0.109 A  
HETATM    6  C   UNL     1      -8.074   5.270  63.837  1.00  0.00    -0.117 A  
HETATM    7  C   UNL     1      -8.158   4.766  65.151  1.00  0.00    -0.106 A  
ENDROOT
BRANCH   7   8
HETATM    8  C   UNL     1      -7.504   5.552  66.272  1.00  0.00    -0.086 C  
BRANCH   8   9
HETATM    9  N   UNL     1      -8.484   6.294  67.086  1.00  0.00    -0.108 NA 
HETATM   10  C   UNL     1      -8.716   7.670  66.577  1.00  0.00    -0.149 C  
HETATM   11  C   UNL     1      -9.916   8.350  67.280  1.00  0.00    -0.291 C  
HETATM   12  C   UNL     1      -9.903   8.027  68.740  1.00  0.00    -0.172 A  
HETATM   13  C   UNL     1      -9.065   7.090  69.306  1.00  0.00    -0.137 A  
HETATM   14  C   UNL     1      -9.320   6.956  70.705  1.00  0.00    -0.162 A  
HETATM   15  C   UNL     1      -8.038   6.348  68.496  1.00  0.00    -0.110 C  
HETATM   16  C   UNL     1     -10.345   7.777  71.126  1.00  0.00    -0.200 A  
HETATM   17  S   UNL     1     -10.981   8.725  69.849  1.00  0.00    -0.122 SA 
ENDBRANCH   8   9
ENDBRANCH   7   8
TORSDOF 2
ENDMDL
MODEL      235
REMARK 921   NORMALIZED FREE ENERGY PREDICTED BY IDOCK:   -2.06 KCAL/MOL
REMARK 922        TOTAL FREE ENERGY PREDICTED BY IDOCK:   -2.67 KCAL/MOL
REMARK 923 INTER-LIGAND FREE ENERGY PREDICTED BY IDOCK:   -2.30 KCAL/MOL
REMARK 924 INTRA-LIGAND FREE ENERGY PREDICTED BY IDOCK:   -0.37 KCAL/MOL
REMARK 927      BINDING AFFINITY PREDICTED BY RF-SCORE:    0.00 PKD
ROOT
HETATM    1 CL   UNL     1      -6.882  10.952  68.245  1.00  0.00    -0.066 Cl 
HETATM    2  C   UNL     1      -8.392  11.168  67.433  1.00  0.00    -0.135 A  
HETATM    3  C   UNL     1      -9.413  11.809  68.144  1.00  0.00    -0.193 A  
HETATM    4  C   UNL     1     -10.655  12.032  67.550  1.00  0.00    -0.250 A  
HETATM    5  C   UNL     1     -10.873  11.637  66.234  1.00  0.00    -0.333 A  
HETATM    6  C   UNL     1      -9.860  10.992  65.525  1.00  0.00    -0.292 A  
HETATM    7  C   UNL     1      -8.613  10.720  66.122  1.00  0.00    -0.171 A  
ENDROOT
BRANCH   7   8
HETATM    8  C   UNL     1      -7.591   9.921  65.334  1.00  0.00    -0.131 C  
BRANCH   8   9
HETATM    9  N   UNL     1      -7.407   8.560  65.868  1.00  0.00    -0.076 NA 
HETATM   10  C   UNL     1      -5.975   8.226  66.084  1.00  0.00    -0.041 C  
HETATM   11  C   UNL     1      -5.805   6.903  66.869  1.00  0.00    -0.022 C  
HETATM   12  C   UNL     1      -6.800   5.893  66.393  1.00  0.00    -0.059 A  
HETATM   13  C   UNL     1      -7.840   6.193  65.539  1.00  0.00    -0.103 A  
HETATM   14  C   UNL     1      -8.658   5.045  65.309  1.00  0.00    -0.145 A  
HETATM   15  C   UNL     1      -8.023   7.569  64.959  1.00  0.00    -0.132 C  
HETATM   16  C   UNL     1      -8.216   3.944  66.010  1.00  0.00    -0.101 A  
HETATM   17  S   UNL     1      -6.805   4.282  66.922  1.00  0.00    -0.052 SA 
ENDBRANCH   8   9
ENDBRANCH   7   8
TORSDOF 2
ENDMDL
MODEL      236
REMARK 921   NORMALIZED FREE ENERGY PREDICTED BY IDOCK:   -2.05 KCAL/MOL
REMARK 922        TOTAL FREE ENERGY PREDICTED BY IDOCK:   -2.66 KCAL/MOL
REMARK 923 INTER-LIGAND FREE ENERGY PREDICTED BY IDOCK:   -2.67 KCAL/MOL
REMARK 924 INTRA-LIGAND FREE ENERGY PREDICTED BY IDOCK:    0.01 KCAL/MOL
REMARK 927      BINDING AFFINITY PREDICTED BY RF-SCORE:    0.00 PKD
ROOT
HETATM    1 CL   UNL     1     -11.782  10.931  68.695  1.00  0.00    -0.369 Cl 
HETATM    2  C   UNL     1     -10.086  11.239  68.564  1.00  0.00    -0.204 A  
HETATM    3  C   UNL     1      -9.698  12.387  67.863  1.00  0.00    -0.204 A  
HETATM    4  C   UNL     1      -8.348  12.710  67.729  1.00  0.00    -0.172 A  
HETATM    5  C   UNL     1      -7.381  11.898  68.315  1.00  0.00    -0.093 A  
HETATM    6  C   UNL     1      -7.764  10.750  69.007  1.00  0.00    -0.133 A  
HETATM    7  C   UNL     1      -9.121  10.385  69.118  1.00  0.00    -0.197 A  
ENDROOT
BRANCH   7   8
HETATM    8  C   UNL     1      -9.465   9.069  69.791  1.00  0.00    -0.175 C  
BRANCH   8   9
HETATM    9  N   UNL     1      -9.371   7.923  68.870  1.00  0.00    -0.150 NA 
HETATM   10  C   UNL     1      -9.982   6.692  69.433  1.00  0.00    -0.156 C  
HETATM   11  C   UNL     1     -10.100   5.570  68.374  1.00  0.00    -0.234 C  
HETATM   12  C   UNL     1      -8.870   5.537  67.523  1.00  0.00    -0.105 A  
HETATM   13  C   UNL     1      -7.892   6.509  67.560  1.00  0.00    -0.113 A  
HETATM   14  C   UNL     1      -6.871   6.242  66.599  1.00  0.00    -0.062 A  
HETATM   15  C   UNL     1      -7.957   7.667  68.518  1.00  0.00    -0.123 C  
HETATM   16  C   UNL     1      -7.130   5.101  65.870  1.00  0.00    -0.068 A  
HETATM   17  S   UNL     1      -8.585   4.338  66.359  1.00  0.00    -0.113 SA 
ENDBRANCH   8   9
ENDBRANCH   7   8
TORSDOF 2
ENDMDL
MODEL      237
REMARK 921   NORMALIZED FREE ENERGY PREDICTED BY IDOCK:   -2.01 KCAL/MOL
REMARK 922        TOTAL FREE ENERGY PREDICTED BY IDOCK:   -2.61 KCAL/MOL
REMARK 923 INTER-LIGAND FREE ENERGY PREDICTED BY IDOCK:   -2.34 KCAL/MOL
REMARK 924 INTRA-LIGAND FREE ENERGY PREDICTED BY IDOCK:   -0.27 KCAL/MOL
REMARK 927      BINDING AFFINITY PREDICTED BY RF-SCORE:    0.00 PKD
ROOT
HETATM    1 CL   UNL     1      -7.162   8.173  66.799  1.00  0.00    -0.081 Cl 
HETATM    2  C   UNL     1      -8.597   7.398  67.372  1.00  0.00    -0.118 A  
HETATM    3  C   UNL     1      -9.788   7.675  66.692  1.00  0.00    -0.283 A  
HETATM    4  C   UNL     1     -10.983   7.076  67.087  1.00  0.00    -0.393 A  
HETATM    5  C   UNL     1     -10.988   6.178  68.150  1.00  0.00    -0.398 A  
HETATM    6  C   UNL     1      -9.805   5.906  68.835  1.00  0.00    -0.183 A  
HETATM    7  C   UNL     1      -8.595   6.533  68.477  1.00  0.00    -0.123 A  
ENDROOT
BRANCH   7   8
HETATM    8  C   UNL     1      -7.365   6.276  69.328  1.00  0.00    -0.092 C  
BRANCH   8   9
HETATM    9  N   UNL     1      -7.700   5.702  70.644  1.00  0.00    -0.090 NA 
HETATM   10  C   UNL     1      -7.039   6.423  71.761  1.00  0.00    -0.085 C  
HETATM   11  C   UNL     1      -7.585   5.976  73.138  1.00  0.00    -0.098 C  
HETATM   12  C   UNL     1      -7.791   4.495  73.152  1.00  0.00    -0.091 A  
HETATM   13  C   UNL     1      -7.705   3.704  72.025  1.00  0.00    -0.059 A  
HETATM   14  C   UNL     1      -8.006   2.342  72.333  1.00  0.00    -0.054 A  
HETATM   15  C   UNL     1      -7.332   4.269  70.682  1.00  0.00    -0.048 C  
HETATM   16  C   UNL     1      -8.324   2.170  73.664  1.00  0.00    -0.062 A  
HETATM   17  S   UNL     1      -8.234   3.636  74.545  1.00  0.00    -0.085 SA 
ENDBRANCH   8   9
ENDBRANCH   7   8
TORSDOF 2
ENDMDL
MODEL      238
REMARK 921   NORMALIZED FREE ENERGY PREDICTED BY IDOCK:   -2.01 KCAL/MOL
REMARK 922        TOTAL FREE ENERGY PREDICTED BY IDOCK:   -2.61 KCAL/MOL
REMARK 923 INTER-LIGAND FREE ENERGY PREDICTED BY IDOCK:   -2.28 KCAL/MOL
REMARK 924 INTRA-LIGAND FREE ENERGY PREDICTED BY IDOCK:   -0.33 KCAL/MOL
REMARK 927      BINDING AFFINITY PREDICTED BY RF-SCORE:    0.00 PKD
ROOT
HETATM    1 CL   UNL     1      -9.063   2.865  66.946  1.00  0.00    -0.180 Cl 
HETATM    2  C   UNL     1      -8.897   3.719  65.452  1.00  0.00    -0.121 A  
HETATM    3  C   UNL     1      -9.444   3.122  64.311  1.00  0.00    -0.142 A  
HETATM    4  C   UNL     1      -9.363   3.759  63.073  1.00  0.00    -0.110 A  
HETATM    5  C   UNL     1      -8.753   5.006  62.975  1.00  0.00    -0.094 A  
HETATM    6  C   UNL     1      -8.200   5.599  64.109  1.00  0.00    -0.111 A  
HETATM    7  C   UNL     1      -8.236   4.954  65.361  1.00  0.00    -0.121 A  
ENDROOT
BRANCH   7   8
HETATM    8  C   UNL     1      -7.523   5.603  66.533  1.00  0.00    -0.087 C  
BRANCH   8   9
HETATM    9  N   UNL     1      -7.752   7.058  66.595  1.00  0.00    -0.092 NA 
HETATM   10  C   UNL     1      -6.748   7.752  67.442  1.00  0.00    -0.068 C  
HETATM   11  C   UNL     1      -6.845   9.290  67.304  1.00  0.00    -0.080 C  
HETATM   12  C   UNL     1      -8.279   9.711  67.253  1.00  0.00    -0.114 A  
HETATM   13  C   UNL     1      -9.329   8.826  67.130  1.00  0.00    -0.188 A  
HETATM   14  C   UNL     1     -10.574   9.519  67.048  1.00  0.00    -0.271 A  
HETATM   15  C   UNL     1      -9.115   7.337  67.098  1.00  0.00    -0.130 C  
HETATM   16  C   UNL     1     -10.410  10.887  67.093  1.00  0.00    -0.220 A  
HETATM   17  S   UNL     1      -8.765  11.336  67.258  1.00  0.00    -0.148 SA 
ENDBRANCH   8   9
ENDBRANCH   7   8
TORSDOF 2
ENDMDL
MODEL      239
REMARK 921   NORMALIZED FREE ENERGY PREDICTED BY IDOCK:   -2.00 KCAL/MOL
REMARK 922        TOTAL FREE ENERGY PREDICTED BY IDOCK:   -2.60 KCAL/MOL
REMARK 923 INTER-LIGAND FREE ENERGY PREDICTED BY IDOCK:   -2.31 KCAL/MOL
REMARK 924 INTRA-LIGAND FREE ENERGY PREDICTED BY IDOCK:   -0.29 KCAL/MOL
REMARK 927      BINDING AFFINITY PREDICTED BY RF-SCORE:    0.00 PKD
ROOT
HETATM    1 CL   UNL     1     -11.333   7.712  70.152  1.00  0.00    -0.204 Cl 
HETATM    2  C   UNL     1      -9.625   7.648  70.413  1.00  0.00    -0.168 A  
HETATM    3  C   UNL     1      -9.021   8.782  70.970  1.00  0.00    -0.269 A  
HETATM    4  C   UNL     1      -7.650   8.798  71.224  1.00  0.00    -0.134 A  
HETATM    5  C   UNL     1      -6.881   7.673  70.945  1.00  0.00    -0.042 A  
HETATM    6  C   UNL     1      -7.479   6.545  70.384  1.00  0.00    -0.094 A  
HETATM    7  C   UNL     1      -8.855   6.523  70.081  1.00  0.00    -0.144 A  
ENDROOT
BRANCH   7   8
HETATM    8  C   UNL     1      -9.423   5.307  69.374  1.00  0.00    -0.138 C  
BRANCH   8   9
HETATM    9  N   UNL     1      -9.040   5.251  67.952  1.00  0.00    -0.109 NA 
HETATM   10  C   UNL     1      -9.621   6.369  67.165  1.00  0.00    -0.134 C  
HETATM   11  C   UNL     1      -9.020   6.444  65.741  1.00  0.00    -0.068 C  
HETATM   12  C   UNL     1      -8.861   5.067  65.179  1.00  0.00    -0.153 A  
HETATM   13  C   UNL     1      -9.028   3.918  65.922  1.00  0.00    -0.132 A  
HETATM   14  C   UNL     1      -8.754   2.758  65.135  1.00  0.00    -0.115 A  
HETATM   15  C   UNL     1      -9.450   3.956  67.365  1.00  0.00    -0.195 C  
HETATM   16  C   UNL     1      -8.375   3.080  63.849  1.00  0.00    -0.086 A  
HETATM   17  S   UNL     1      -8.374   4.773  63.581  1.00  0.00    -0.124 SA 
ENDBRANCH   8   9
ENDBRANCH   7   8
TORSDOF 2
ENDMDL
MODEL      240
REMARK 921   NORMALIZED FREE ENERGY PREDICTED BY IDOCK:   -1.94 KCAL/MOL
REMARK 922        TOTAL FREE ENERGY PREDICTED BY IDOCK:   -2.53 KCAL/MOL
REMARK 923 INTER-LIGAND FREE ENERGY PREDICTED BY IDOCK:   -2.32 KCAL/MOL
REMARK 924 INTRA-LIGAND FREE ENERGY PREDICTED BY IDOCK:   -0.22 KCAL/MOL
REMARK 927      BINDING AFFINITY PREDICTED BY RF-SCORE:    0.00 PKD
ROOT
HETATM    1 CL   UNL     1      -9.944   4.394  69.943  1.00  0.00    -0.288 Cl 
HETATM    2  C   UNL     1      -8.551   4.302  70.962  1.00  0.00    -0.088 A  
HETATM    3  C   UNL     1      -7.786   3.132  70.896  1.00  0.00    -0.046 A  
HETATM    4  C   UNL     1      -6.640   2.992  71.677  1.00  0.00    -0.019 A  
HETATM    5  C   UNL     1      -6.240   4.031  72.511  1.00  0.00    -0.016 A  
HETATM    6  C   UNL     1      -7.004   5.196  72.585  1.00  0.00    -0.084 A  
HETATM    7  C   UNL     1      -8.188   5.340  71.835  1.00  0.00    -0.118 A  
ENDROOT
BRANCH   7   8
HETATM    8  C   UNL     1      -9.029   6.586  72.039  1.00  0.00    -0.140 C  
BRANCH   8   9
HETATM    9  N   UNL     1      -8.888   7.549  70.933  1.00  0.00    -0.143 NA 
HETATM   10  C   UNL     1      -7.510   8.096  70.831  1.00  0.00    -0.061 C  
HETATM   11  C   UNL     1      -7.308   8.908  69.530  1.00  0.00    -0.071 C  
HETATM   12  C   UNL     1      -8.521   9.737  69.249  1.00  0.00    -0.152 A  
HETATM   13  C   UNL     1      -9.706   9.610  69.942  1.00  0.00    -0.262 A  
HETATM   14  C   UNL     1     -10.701  10.489  69.415  1.00  0.00    -0.277 A  
HETATM   15  C   UNL     1      -9.857   8.655  71.094  1.00  0.00    -0.222 C  
HETATM   16  C   UNL     1     -10.233  11.219  68.344  1.00  0.00    -0.195 A  
HETATM   17  S   UNL     1      -8.594  10.869  67.989  1.00  0.00    -0.136 SA 
ENDBRANCH   8   9
ENDBRANCH   7   8
TORSDOF 2
ENDMDL
MODEL      241
REMARK 921   NORMALIZED FREE ENERGY PREDICTED BY IDOCK:   -1.84 KCAL/MOL
REMARK 922        TOTAL FREE ENERGY PREDICTED BY IDOCK:   -2.42 KCAL/MOL
REMARK 923 INTER-LIGAND FREE ENERGY PREDICTED BY IDOCK:   -2.71 KCAL/MOL
REMARK 924 INTRA-LIGAND FREE ENERGY PREDICTED BY IDOCK:    0.30 KCAL/MOL
REMARK 927      BINDING AFFINITY PREDICTED BY RF-SCORE:    0.00 PKD
ROOT
HETATM    1 CL   UNL     1     -10.257   8.069  68.668  1.00  0.00    -0.217 Cl 
HETATM    2  C   UNL     1     -10.793   7.151  70.030  1.00  0.00    -0.254 A  
HETATM    3  C   UNL     1     -11.963   7.579  70.669  1.00  0.00    -0.161 A  
HETATM    4  C   UNL     1     -12.465   6.880  71.766  1.00  0.00    -0.397 A  
HETATM    5  C   UNL     1     -11.813   5.736  72.214  1.00  0.00    -0.215 A  
HETATM    6  C   UNL     1     -10.644   5.311  71.585  1.00  0.00    -0.261 A  
HETATM    7  C   UNL     1     -10.097   6.027  70.502  1.00  0.00    -0.244 A  
ENDROOT
BRANCH   7   8
HETATM    8  C   UNL     1      -8.767   5.574  69.929  1.00  0.00    -0.123 C  
BRANCH   8   9
HETATM    9  N   UNL     1      -8.660   5.829  68.482  1.00  0.00    -0.109 NA 
HETATM   10  C   UNL     1      -8.689   4.577  67.683  1.00  0.00    -0.104 C  
HETATM   11  C   UNL     1      -8.826   4.863  66.168  1.00  0.00    -0.122 C  
HETATM   12  C   UNL     1      -7.977   6.035  65.790  1.00  0.00    -0.113 A  
HETATM   13  C   UNL     1      -7.351   6.850  66.709  1.00  0.00    -0.078 A  
HETATM   14  C   UNL     1      -6.662   7.918  66.058  1.00  0.00    -0.053 A  
HETATM   15  C   UNL     1      -7.423   6.585  68.188  1.00  0.00    -0.095 C  
HETATM   16  C   UNL     1      -6.814   7.875  64.688  1.00  0.00    -0.062 A  
HETATM   17  S   UNL     1      -7.761   6.539  64.185  1.00  0.00    -0.106 SA 
ENDBRANCH   8   9
ENDBRANCH   7   8
TORSDOF 2
ENDMDL
MODEL      242
REMARK 921   NORMALIZED FREE ENERGY PREDICTED BY IDOCK:   -1.68 KCAL/MOL
REMARK 922        TOTAL FREE ENERGY PREDICTED BY IDOCK:   -2.24 KCAL/MOL
REMARK 923 INTER-LIGAND FREE ENERGY PREDICTED BY IDOCK:   -2.24 KCAL/MOL
REMARK 924 INTRA-LIGAND FREE ENERGY PREDICTED BY IDOCK:   -0.01 KCAL/MOL
REMARK 927      BINDING AFFINITY PREDICTED BY RF-SCORE:    0.00 PKD
ROOT
HETATM    1 CL   UNL     1     -10.078   7.822  66.821  1.00  0.00    -0.340 Cl 
HETATM    2  C   UNL     1      -9.581   6.282  67.429  1.00  0.00    -0.119 A  
HETATM    3  C   UNL     1      -9.943   5.154  66.683  1.00  0.00    -0.235 A  
HETATM    4  C   UNL     1      -9.565   3.879  67.103  1.00  0.00    -0.226 A  
HETATM    5  C   UNL     1      -8.804   3.728  68.258  1.00  0.00    -0.147 A  
HETATM    6  C   UNL     1      -8.448   4.849  69.007  1.00  0.00    -0.086 A  
HETATM    7  C   UNL     1      -8.856   6.142  68.622  1.00  0.00    -0.114 A  
ENDROOT
BRANCH   7   8
HETATM    8  C   UNL     1      -8.527   7.309  69.535  1.00  0.00    -0.133 C  
BRANCH   8   9
HETATM    9  N   UNL     1      -7.857   8.411  68.823  1.00  0.00    -0.112 NA 
HETATM   10  C   UNL     1      -6.430   8.552  69.213  1.00  0.00    -0.042 C  
HETATM   11  C   UNL     1      -5.676   9.539  68.290  1.00  0.00    -0.037 C  
HETATM   12  C   UNL     1      -6.543  10.718  67.984  1.00  0.00    -0.063 A  
HETATM   13  C   UNL     1      -7.881  10.785  68.310  1.00  0.00    -0.115 A  
HETATM   14  C   UNL     1      -8.460  12.003  67.841  1.00  0.00    -0.160 A  
HETATM   15  C   UNL     1      -8.572   9.683  69.065  1.00  0.00    -0.133 C  
HETATM   16  C   UNL     1      -7.546  12.788  67.170  1.00  0.00    -0.043 A  
HETATM   17  S   UNL     1      -5.990  12.073  67.127  1.00  0.00    -0.131 SA 
ENDBRANCH   8   9
ENDBRANCH   7   8
TORSDOF 2
ENDMDL
MODEL      243
REMARK 921   NORMALIZED FREE ENERGY PREDICTED BY IDOCK:   -1.66 KCAL/MOL
REMARK 922        TOTAL FREE ENERGY PREDICTED BY IDOCK:   -2.23 KCAL/MOL
REMARK 923 INTER-LIGAND FREE ENERGY PREDICTED BY IDOCK:   -1.86 KCAL/MOL
REMARK 924 INTRA-LIGAND FREE ENERGY PREDICTED BY IDOCK:   -0.36 KCAL/MOL
REMARK 927      BINDING AFFINITY PREDICTED BY RF-SCORE:    0.00 PKD
ROOT
HETATM    1 CL   UNL     1      -5.896   7.927  65.192  1.00  0.00    -0.037 Cl 
HETATM    2  C   UNL     1      -7.295   8.569  65.978  1.00  0.00    -0.081 A  
HETATM    3  C   UNL     1      -7.381   9.961  66.096  1.00  0.00    -0.104 A  
HETATM    4  C   UNL     1      -8.487  10.552  66.704  1.00  0.00    -0.129 A  
HETATM    5  C   UNL     1      -9.525   9.754  67.178  1.00  0.00    -0.189 A  
HETATM    6  C   UNL     1      -9.439   8.367  67.069  1.00  0.00    -0.225 A  
HETATM    7  C   UNL     1      -8.311   7.749  66.495  1.00  0.00    -0.128 A  
ENDROOT
BRANCH   7   8
HETATM    8  C   UNL     1      -8.231   6.233  66.502  1.00  0.00    -0.112 C  
BRANCH   8   9
HETATM    9  N   UNL     1      -8.293   5.673  67.864  1.00  0.00    -0.101 NA 
HETATM   10  C   UNL     1      -7.018   5.847  68.606  1.00  0.00    -0.072 C  
HETATM   11  C   UNL     1      -7.168   5.483  70.103  1.00  0.00    -0.067 C  
HETATM   12  C   UNL     1      -8.020   4.262  70.250  1.00  0.00    -0.055 A  
HETATM   13  C   UNL     1      -8.728   3.698  69.209  1.00  0.00    -0.130 A  
HETATM   14  C   UNL     1      -9.495   2.581  69.661  1.00  0.00    -0.124 A  
HETATM   15  C   UNL     1      -8.650   4.238  67.808  1.00  0.00    -0.099 C  
HETATM   16  C   UNL     1      -9.349   2.365  71.015  1.00  0.00    -0.142 A  
HETATM   17  S   UNL     1      -8.274   3.487  71.736  1.00  0.00    -0.066 SA 
ENDBRANCH   8   9
ENDBRANCH   7   8
TORSDOF 2
ENDMDL
MODEL      244
REMARK 921   NORMALIZED FREE ENERGY PREDICTED BY IDOCK:   -1.55 KCAL/MOL
REMARK 922        TOTAL FREE ENERGY PREDICTED BY IDOCK:   -2.10 KCAL/MOL
REMARK 923 INTER-LIGAND FREE ENERGY PREDICTED BY IDOCK:   -1.91 KCAL/MOL
REMARK 924 INTRA-LIGAND FREE ENERGY PREDICTED BY IDOCK:   -0.19 KCAL/MOL
REMARK 927      BINDING AFFINITY PREDICTED BY RF-SCORE:    0.00 PKD
ROOT
HETATM    1 CL   UNL     1      -5.869   4.262  65.261  1.00  0.00    -0.021 Cl 
HETATM    2  C   UNL     1      -7.203   3.602  66.140  1.00  0.00    -0.068 A  
HETATM    3  C   UNL     1      -7.021   2.345  66.727  1.00  0.00    -0.048 A  
HETATM    4  C   UNL     1      -8.047   1.755  67.464  1.00  0.00    -0.066 A  
HETATM    5  C   UNL     1      -9.251   2.430  67.637  1.00  0.00    -0.218 A  
HETATM    6  C   UNL     1      -9.438   3.680  67.047  1.00  0.00    -0.219 A  
HETATM    7  C   UNL     1      -8.428   4.274  66.264  1.00  0.00    -0.112 A  
ENDROOT
BRANCH   7   8
HETATM    8  C   UNL     1      -8.732   5.585  65.562  1.00  0.00    -0.154 C  
BRANCH   8   9
HETATM    9  N   UNL     1      -8.103   6.739  66.229  1.00  0.00    -0.108 NA 
HETATM   10  C   UNL     1      -8.545   6.888  67.639  1.00  0.00    -0.121 C  
HETATM   11  C   UNL     1      -7.703   7.941  68.398  1.00  0.00    -0.114 C  
HETATM   12  C   UNL     1      -7.436   9.117  67.515  1.00  0.00    -0.088 A  
HETATM   13  C   UNL     1      -7.723   9.137  66.166  1.00  0.00    -0.095 A  
HETATM   14  C   UNL     1      -7.305  10.368  65.574  1.00  0.00    -0.139 A  
HETATM   15  C   UNL     1      -8.394   7.980  65.477  1.00  0.00    -0.147 C  
HETATM   16  C   UNL     1      -6.708  11.208  66.490  1.00  0.00    -0.128 A  
HETATM   17  S   UNL     1      -6.673  10.529  68.063  1.00  0.00    -0.065 SA 
ENDBRANCH   8   9
ENDBRANCH   7   8
TORSDOF 2
ENDMDL
MODEL      245
REMARK 921   NORMALIZED FREE ENERGY PREDICTED BY IDOCK:   -1.55 KCAL/MOL
REMARK 922        TOTAL FREE ENERGY PREDICTED BY IDOCK:   -2.10 KCAL/MOL
REMARK 923 INTER-LIGAND FREE ENERGY PREDICTED BY IDOCK:   -2.51 KCAL/MOL
REMARK 924 INTRA-LIGAND FREE ENERGY PREDICTED BY IDOCK:    0.41 KCAL/MOL
REMARK 927      BINDING AFFINITY PREDICTED BY RF-SCORE:    0.00 PKD
ROOT
HETATM    1 CL   UNL     1      -9.040  10.687  66.554  1.00  0.00    -0.173 Cl 
HETATM    2  C   UNL     1      -9.592   9.767  67.909  1.00  0.00    -0.138 A  
HETATM    3  C   UNL     1      -9.522  10.378  69.166  1.00  0.00    -0.220 A  
HETATM    4  C   UNL     1      -9.964   9.704  70.304  1.00  0.00    -0.326 A  
HETATM    5  C   UNL     1     -10.500   8.425  70.187  1.00  0.00    -0.230 A  
HETATM    6  C   UNL     1     -10.564   7.811  68.936  1.00  0.00    -0.168 A  
HETATM    7  C   UNL     1     -10.085   8.459  67.781  1.00  0.00    -0.263 A  
ENDROOT
BRANCH   7   8
HETATM    8  C   UNL     1     -10.085   7.697  66.469  1.00  0.00    -0.135 C  
BRANCH   8   9
HETATM    9  N   UNL     1      -9.191   6.525  66.498  1.00  0.00    -0.154 NA 
HETATM   10  C   UNL     1      -9.940   5.242  66.487  1.00  0.00    -0.204 C  
HETATM   11  C   UNL     1      -9.003   4.031  66.269  1.00  0.00    -0.127 C  
HETATM   12  C   UNL     1      -7.739   4.214  67.047  1.00  0.00    -0.092 A  
HETATM   13  C   UNL     1      -7.397   5.391  67.679  1.00  0.00    -0.076 A  
HETATM   14  C   UNL     1      -6.110   5.288  68.289  1.00  0.00    -0.026 A  
HETATM   15  C   UNL     1      -8.312   6.585  67.686  1.00  0.00    -0.121 C  
HETATM   16  C   UNL     1      -5.533   4.054  68.077  1.00  0.00    -0.016 A  
HETATM   17  S   UNL     1      -6.546   3.014  67.168  1.00  0.00    -0.037 SA 
ENDBRANCH   8   9
ENDBRANCH   7   8
TORSDOF 2
ENDMDL
MODEL      246
REMARK 921   NORMALIZED FREE ENERGY PREDICTED BY IDOCK:   -1.32 KCAL/MOL
REMARK 922        TOTAL FREE ENERGY PREDICTED BY IDOCK:   -1.84 KCAL/MOL
REMARK 923 INTER-LIGAND FREE ENERGY PREDICTED BY IDOCK:   -1.50 KCAL/MOL
REMARK 924 INTRA-LIGAND FREE ENERGY PREDICTED BY IDOCK:   -0.34 KCAL/MOL
REMARK 927      BINDING AFFINITY PREDICTED BY RF-SCORE:    0.00 PKD
ROOT
HETATM    1 CL   UNL     1     -10.207  15.380  72.630  1.00  0.00     2.751 Cl 
HETATM    2  C   UNL     1     -11.790  15.163  71.973  1.00  0.00    -0.416 A  
HETATM    3  C   UNL     1     -12.755  14.588  72.808  1.00  0.00    -0.461 A  
HETATM    4  C   UNL     1     -14.059  14.396  72.352  1.00  0.00    -0.544 A  
HETATM    5  C   UNL     1     -14.409  14.798  71.067  1.00  0.00    -0.101 A  
HETATM    6  C   UNL     1     -13.448  15.364  70.230  1.00  0.00     0.229 A  
HETATM    7  C   UNL     1     -12.116  15.529  70.657  1.00  0.00    -0.430 A  
ENDROOT
BRANCH   7   8
HETATM    8  C   UNL     1     -11.095  16.052  69.664  1.00  0.00    -0.331 C  
BRANCH   8   9
HETATM    9  N   UNL     1     -10.787  15.074  68.605  1.00  0.00    -0.241 NA 
HETATM   10  C   UNL     1      -9.370  14.631  68.638  1.00  0.00    -0.206 C  
HETATM   11  C   UNL     1      -9.119  13.433  67.691  1.00  0.00    -0.203 C  
HETATM   12  C   UNL     1      -9.869  13.626  66.411  1.00  0.00    -0.296 A  
HETATM   13  C   UNL     1     -10.803  14.622  66.218  1.00  0.00    -0.321 A  
HETATM   14  C   UNL     1     -11.395  14.522  64.923  1.00  0.00    -0.394 A  
HETATM   15  C   UNL     1     -11.105  15.646  67.277  1.00  0.00    -0.238 C  
HETATM   16  C   UNL     1     -10.900  13.453  64.207  1.00  0.00    -0.363 A  
HETATM   17  S   UNL     1      -9.708  12.586  65.081  1.00  0.00     0.065 SA 
ENDBRANCH   8   9
ENDBRANCH   7   8
TORSDOF 2
ENDMDL
MODEL      247
REMARK 921   NORMALIZED FREE ENERGY PREDICTED BY IDOCK:   -1.06 KCAL/MOL
REMARK 922        TOTAL FREE ENERGY PREDICTED BY IDOCK:   -1.56 KCAL/MOL
REMARK 923 INTER-LIGAND FREE ENERGY PREDICTED BY IDOCK:   -2.16 KCAL/MOL
REMARK 924 INTRA-LIGAND FREE ENERGY PREDICTED BY IDOCK:    0.60 KCAL/MOL
REMARK 927      BINDING AFFINITY PREDICTED BY RF-SCORE:    0.00 PKD
ROOT
HETATM    1 CL   UNL     1      -7.762   6.890  65.498  1.00  0.00    -0.095 Cl 
HETATM    2  C   UNL     1      -7.763   8.568  65.909  1.00  0.00    -0.097 A  
HETATM    3  C   UNL     1      -6.640   9.317  65.540  1.00  0.00    -0.069 A  
HETATM    4  C   UNL     1      -6.576  10.681  65.824  1.00  0.00    -0.105 A  
HETATM    5  C   UNL     1      -7.644  11.306  66.459  1.00  0.00    -0.111 A  
HETATM    6  C   UNL     1      -8.761  10.561  66.835  1.00  0.00    -0.130 A  
HETATM    7  C   UNL     1      -8.828   9.174  66.594  1.00  0.00    -0.147 A  
ENDROOT
BRANCH   7   8
HETATM    8  C   UNL     1     -10.022   8.402  67.122  1.00  0.00    -0.238 C  
BRANCH   8   9
HETATM    9  N   UNL     1      -9.730   7.711  68.391  1.00  0.00    -0.155 NA 
HETATM   10  C   UNL     1     -10.099   8.525  69.577  1.00  0.00    -0.200 C  
HETATM   11  C   UNL     1     -10.021   7.703  70.886  1.00  0.00    -0.183 C  
HETATM   12  C   UNL     1      -8.815   6.819  70.865  1.00  0.00    -0.146 A  
HETATM   13  C   UNL     1      -8.031   6.627  69.747  1.00  0.00    -0.120 A  
HETATM   14  C   UNL     1      -6.988   5.688  70.010  1.00  0.00    -0.065 A  
HETATM   15  C   UNL     1      -8.296   7.350  68.455  1.00  0.00    -0.125 C  
HETATM   16  C   UNL     1      -7.042   5.201  71.299  1.00  0.00    -0.057 A  
HETATM   17  S   UNL     1      -8.327   5.891  72.198  1.00  0.00    -0.118 SA 
ENDBRANCH   8   9
ENDBRANCH   7   8
TORSDOF 2
ENDMDL
MODEL      248
REMARK 921   NORMALIZED FREE ENERGY PREDICTED BY IDOCK:   -0.65 KCAL/MOL
REMARK 922        TOTAL FREE ENERGY PREDICTED BY IDOCK:   -1.10 KCAL/MOL
REMARK 923 INTER-LIGAND FREE ENERGY PREDICTED BY IDOCK:   -1.68 KCAL/MOL
REMARK 924 INTRA-LIGAND FREE ENERGY PREDICTED BY IDOCK:    0.58 KCAL/MOL
REMARK 927      BINDING AFFINITY PREDICTED BY RF-SCORE:    0.00 PKD
ROOT
HETATM    1 CL   UNL     1      -7.598   7.273  65.370  1.00  0.00    -0.093 Cl 
HETATM    2  C   UNL     1      -8.827   7.305  66.585  1.00  0.00    -0.139 A  
HETATM    3  C   UNL     1      -9.504   8.514  66.777  1.00  0.00    -0.253 A  
HETATM    4  C   UNL     1     -10.519   8.612  67.729  1.00  0.00    -0.287 A  
HETATM    5  C   UNL     1     -10.876   7.494  68.477  1.00  0.00    -0.032 A  
HETATM    6  C   UNL     1     -10.197   6.290  68.293  1.00  0.00    -0.198 A  
HETATM    7  C   UNL     1      -9.142   6.182  67.366  1.00  0.00    -0.110 A  
ENDROOT
BRANCH   7   8
HETATM    8  C   UNL     1      -8.374   4.875  67.289  1.00  0.00    -0.106 C  
BRANCH   8   9
HETATM    9  N   UNL     1      -7.532   4.646  68.476  1.00  0.00    -0.065 NA 
HETATM   10  C   UNL     1      -7.119   3.226  68.612  1.00  0.00    -0.049 C  
HETATM   11  C   UNL     1      -6.044   3.040  69.709  1.00  0.00    -0.024 C  
HETATM   12  C   UNL     1      -6.366   3.897  70.892  1.00  0.00    -0.019 A  
HETATM   13  C   UNL     1      -7.355   4.857  70.890  1.00  0.00    -0.064 A  
HETATM   14  C   UNL     1      -7.392   5.555  72.135  1.00  0.00    -0.090 A  
HETATM   15  C   UNL     1      -8.245   5.081  69.698  1.00  0.00    -0.088 C  
HETATM   16  C   UNL     1      -6.423   5.108  73.009  1.00  0.00    -0.060 A  
HETATM   17  S   UNL     1      -5.489   3.836  72.342  1.00  0.00     0.000 SA 
ENDBRANCH   8   9
ENDBRANCH   7   8
TORSDOF 2
ENDMDL
MODEL      249
REMARK 921   NORMALIZED FREE ENERGY PREDICTED BY IDOCK:   -0.61 KCAL/MOL
REMARK 922        TOTAL FREE ENERGY PREDICTED BY IDOCK:   -1.05 KCAL/MOL
REMARK 923 INTER-LIGAND FREE ENERGY PREDICTED BY IDOCK:   -1.05 KCAL/MOL
REMARK 924 INTRA-LIGAND FREE ENERGY PREDICTED BY IDOCK:    0.00 KCAL/MOL
REMARK 927      BINDING AFFINITY PREDICTED BY RF-SCORE:    0.00 PKD
ROOT
HETATM    1 CL   UNL     1     -10.667  15.351  72.380  1.00  0.00     0.569 Cl 
HETATM    2  C   UNL     1     -11.292  15.335  70.769  1.00  0.00    -0.331 A  
HETATM    3  C   UNL     1     -12.662  15.097  70.617  1.00  0.00    -0.451 A  
HETATM    4  C   UNL     1     -13.241  15.084  69.349  1.00  0.00     1.153 A  
HETATM    5  C   UNL     1     -12.456  15.333  68.228  1.00  0.00     0.563 A  
HETATM    6  C   UNL     1     -11.089  15.563  68.374  1.00  0.00    -0.315 A  
HETATM    7  C   UNL     1     -10.478  15.539  69.644  1.00  0.00    -0.289 A  
ENDROOT
BRANCH   7   8
HETATM    8  C   UNL     1      -8.970  15.691  69.726  1.00  0.00    -0.006 C  
BRANCH   8   9
HETATM    9  N   UNL     1      -8.429  16.533  68.645  1.00  0.00    -0.232 NA 
HETATM   10  C   UNL     1      -8.063  15.744  67.441  1.00  0.00    -0.169 C  
HETATM   11  C   UNL     1      -7.731  16.653  66.235  1.00  0.00    -0.273 C  
HETATM   12  C   UNL     1      -6.937  17.837  66.688  1.00  0.00    -0.213 A  
HETATM   13  C   UNL     1      -6.734  18.155  68.014  1.00  0.00    -0.206 A  
HETATM   14  C   UNL     1      -5.991  19.368  68.140  1.00  0.00    -0.231 A  
HETATM   15  C   UNL     1      -7.251  17.288  69.129  1.00  0.00    -0.182 C  
HETATM   16  C   UNL     1      -5.685  19.919  66.913  1.00  0.00    -0.171 A  
HETATM   17  S   UNL     1      -6.269  18.967  65.614  1.00  0.00    -0.267 SA 
ENDBRANCH   8   9
ENDBRANCH   7   8
TORSDOF 2
ENDMDL
MODEL      250
REMARK 921   NORMALIZED FREE ENERGY PREDICTED BY IDOCK:    0.21 KCAL/MOL
REMARK 922        TOTAL FREE ENERGY PREDICTED BY IDOCK:   -0.14 KCAL/MOL
REMARK 923 INTER-LIGAND FREE ENERGY PREDICTED BY IDOCK:   -1.47 KCAL/MOL
REMARK 924 INTRA-LIGAND FREE ENERGY PREDICTED BY IDOCK:    1.33 KCAL/MOL
REMARK 927      BINDING AFFINITY PREDICTED BY RF-SCORE:    0.00 PKD
ROOT
HETATM    1 CL   UNL     1     -11.350  15.091  74.060  1.00  0.00     0.571 Cl 
HETATM    2  C   UNL     1     -12.205  15.023  72.560  1.00  0.00    -0.351 A  
HETATM    3  C   UNL     1     -13.598  14.897  72.624  1.00  0.00    -0.563 A  
HETATM    4  C   UNL     1     -14.357  14.852  71.456  1.00  0.00    -0.631 A  
HETATM    5  C   UNL     1     -13.730  14.955  70.218  1.00  0.00     0.595 A  
HETATM    6  C   UNL     1     -12.342  15.073  70.151  1.00  0.00    -0.380 A  
HETATM    7  C   UNL     1     -11.553  15.079  71.319  1.00  0.00    -0.384 A  
ENDROOT
BRANCH   7   8
HETATM    8  C   UNL     1     -10.043  15.103  71.174  1.00  0.00     1.170 C  
BRANCH   8   9
HETATM    9  N   UNL     1      -9.602  15.868  69.995  1.00  0.00     0.051 NA 
HETATM   10  C   UNL     1     -10.458  15.621  68.807  1.00  0.00    -0.225 C  
HETATM   11  C   UNL     1     -10.143  16.605  67.655  1.00  0.00    -0.272 C  
HETATM   12  C   UNL     1      -8.666  16.813  67.548  1.00  0.00    -0.199 A  
HETATM   13  C   UNL     1      -7.763  16.356  68.484  1.00  0.00    -0.195 A  
HETATM   14  C   UNL     1      -6.434  16.754  68.148  1.00  0.00    -0.147 A  
HETATM   15  C   UNL     1      -8.193  15.545  69.676  1.00  0.00    -0.117 C  
HETATM   16  C   UNL     1      -6.394  17.505  66.992  1.00  0.00    -0.161 A  
HETATM   17  S   UNL     1      -7.948  17.709  66.300  1.00  0.00    -0.228 SA 
ENDBRANCH   8   9
ENDBRANCH   7   8
TORSDOF 2
ENDMDL
MODEL      251
REMARK 921   NORMALIZED FREE ENERGY PREDICTED BY IDOCK:    2.91 KCAL/MOL
REMARK 922        TOTAL FREE ENERGY PREDICTED BY IDOCK:    2.88 KCAL/MOL
REMARK 923 INTER-LIGAND FREE ENERGY PREDICTED BY IDOCK:    1.59 KCAL/MOL
REMARK 924 INTRA-LIGAND FREE ENERGY PREDICTED BY IDOCK:    1.28 KCAL/MOL
REMARK 927      BINDING AFFINITY PREDICTED BY RF-SCORE:    0.00 PKD
ROOT
HETATM    1 CL   UNL     1     -11.660  14.893  73.474  1.00  0.00    -0.126 Cl 
HETATM    2  C   UNL     1     -12.213  15.069  71.846  1.00  0.00    -0.355 A  
HETATM    3  C   UNL     1     -13.597  15.043  71.636  1.00  0.00    -0.530 A  
HETATM    4  C   UNL     1     -14.119  15.194  70.351  1.00  0.00     0.754 A  
HETATM    5  C   UNL     1     -13.261  15.396  69.275  1.00  0.00     1.347 A  
HETATM    6  C   UNL     1     -11.882  15.416  69.481  1.00  0.00    -0.370 A  
HETATM    7  C   UNL     1     -11.333  15.223  70.764  1.00  0.00    -0.365 A  
ENDROOT
BRANCH   7   8
HETATM    8  C   UNL     1      -9.824  15.149  70.905  1.00  0.00     1.195 C  
BRANCH   8   9
HETATM    9  N   UNL     1      -9.213  14.218  69.940  1.00  0.00     0.917 NA 
HETATM   10  C   UNL     1      -7.812  14.583  69.609  1.00  0.00     0.186 C  
HETATM   11  C   UNL     1      -7.104  13.473  68.796  1.00  0.00    -0.103 C  
HETATM   12  C   UNL     1      -8.043  12.902  67.782  1.00  0.00    -0.166 A  
HETATM   13  C   UNL     1      -9.391  13.189  67.746  1.00  0.00    -0.206 A  
HETATM   14  C   UNL     1     -10.042  12.455  66.709  1.00  0.00    -0.226 A  
HETATM   15  C   UNL     1     -10.024  14.162  68.703  1.00  0.00    -0.222 C  
HETATM   16  C   UNL     1      -9.167  11.637  66.025  1.00  0.00    -0.208 A  
HETATM   17  S   UNL     1      -7.563  11.771  66.613  1.00  0.00     0.071 SA 
ENDBRANCH   8   9
ENDBRANCH   7   8
TORSDOF 2
ENDMDL
MODEL      252
REMARK 921   NORMALIZED FREE ENERGY PREDICTED BY IDOCK:   10.84 KCAL/MOL
REMARK 922        TOTAL FREE ENERGY PREDICTED BY IDOCK:   11.74 KCAL/MOL
REMARK 923 INTER-LIGAND FREE ENERGY PREDICTED BY IDOCK:   11.46 KCAL/MOL
REMARK 924 INTRA-LIGAND FREE ENERGY PREDICTED BY IDOCK:    0.28 KCAL/MOL
REMARK 927      BINDING AFFINITY PREDICTED BY RF-SCORE:    0.00 PKD
ROOT
HETATM    1 CL   UNL     1     -14.018  13.867  68.851  1.00  0.00     6.409 Cl 
HETATM    2  C   UNL     1     -13.365  13.390  70.378  1.00  0.00     0.683 A  
HETATM    3  C   UNL     1     -13.450  14.314  71.426  1.00  0.00    -0.402 A  
HETATM    4  C   UNL     1     -12.958  13.995  72.691  1.00  0.00    -0.481 A  
HETATM    5  C   UNL     1     -12.400  12.741  72.920  1.00  0.00     2.651 A  
HETATM    6  C   UNL     1     -12.307  11.821  71.876  1.00  0.00     0.410 A  
HETATM    7  C   UNL     1     -12.761  12.140  70.581  1.00  0.00    -0.150 A  
ENDROOT
BRANCH   7   8
HETATM    8  C   UNL     1     -12.535  11.136  69.465  1.00  0.00    -0.074 C  
BRANCH   8   9
HETATM    9  N   UNL     1     -11.190  11.247  68.871  1.00  0.00    -0.229 NA 
HETATM   10  C   UNL     1     -10.131  11.420  69.898  1.00  0.00     0.975 C  
HETATM   11  C   UNL     1      -8.714  11.288  69.291  1.00  0.00     0.240 C  
HETATM   12  C   UNL     1      -8.660  11.971  67.961  1.00  0.00    -0.170 A  
HETATM   13  C   UNL     1      -9.775  12.448  67.305  1.00  0.00    -0.201 A  
HETATM   14  C   UNL     1      -9.424  12.996  66.034  1.00  0.00    -0.108 A  
HETATM   15  C   UNL     1     -11.149  12.372  67.911  1.00  0.00    -0.239 C  
HETATM   16  C   UNL     1      -8.072  12.892  65.780  1.00  0.00     2.152 A  
HETATM   17  S   UNL     1      -7.225  12.160  67.077  1.00  0.00    -0.005 SA 
ENDBRANCH   8   9
ENDBRANCH   7   8
TORSDOF 2
ENDMDL
MODEL      253
REMARK 921   NORMALIZED FREE ENERGY PREDICTED BY IDOCK:   19.68 KCAL/MOL
REMARK 922        TOTAL FREE ENERGY PREDICTED BY IDOCK:   21.61 KCAL/MOL
REMARK 923 INTER-LIGAND FREE ENERGY PREDICTED BY IDOCK:   19.74 KCAL/MOL
REMARK 924 INTRA-LIGAND FREE ENERGY PREDICTED BY IDOCK:    1.88 KCAL/MOL
REMARK 927      BINDING AFFINITY PREDICTED BY RF-SCORE:    0.00 PKD
ROOT
HETATM    1 CL   UNL     1     -10.113  15.680  73.332  1.00  0.00     5.552 Cl 
HETATM    2  C   UNL     1     -10.083  15.737  71.605  1.00  0.00     2.346 A  
HETATM    3  C   UNL     1     -11.053  16.525  70.975  1.00  0.00     0.116 A  
HETATM    4  C   UNL     1     -11.082  16.632  69.585  1.00  0.00    -0.146 A  
HETATM    5  C   UNL     1     -10.126  15.971  68.820  1.00  0.00    -0.225 A  
HETATM    6  C   UNL     1      -9.163  15.179  69.444  1.00  0.00    -0.175 A  
HETATM    7  C   UNL     1      -9.142  15.025  70.845  1.00  0.00     2.241 A  
ENDROOT
BRANCH   7   8
HETATM    8  C   UNL     1      -8.136  14.067  71.455  1.00  0.00     5.911 C  
BRANCH   8   9
HETATM    9  N   UNL     1      -7.563  13.143  70.459  1.00  0.00     2.504 NA 
HETATM   10  C   UNL     1      -6.213  12.660  70.847  1.00  0.00     0.708 C  
HETATM   11  C   UNL     1      -5.727  11.512  69.931  1.00  0.00    -0.104 C  
HETATM   12  C   UNL     1      -6.098  11.798  68.511  1.00  0.00    -0.050 A  
HETATM   13  C   UNL     1      -6.934  12.828  68.135  1.00  0.00    -0.096 A  
HETATM   14  C   UNL     1      -7.152  12.819  66.723  1.00  0.00     0.553 A  
HETATM   15  C   UNL     1      -7.501  13.798  69.134  1.00  0.00     0.062 C  
HETATM   16  C   UNL     1      -6.492  11.779  66.103  1.00  0.00     0.586 A  
HETATM   17  S   UNL     1      -5.592  10.831  67.212  1.00  0.00    -0.045 SA 
ENDBRANCH   8   9
ENDBRANCH   7   8
TORSDOF 2
ENDMDL
MODEL      254
REMARK 921   NORMALIZED FREE ENERGY PREDICTED BY IDOCK:   22.33 KCAL/MOL
REMARK 922        TOTAL FREE ENERGY PREDICTED BY IDOCK:   24.57 KCAL/MOL
REMARK 923 INTER-LIGAND FREE ENERGY PREDICTED BY IDOCK:   14.23 KCAL/MOL
REMARK 924 INTRA-LIGAND FREE ENERGY PREDICTED BY IDOCK:   10.34 KCAL/MOL
REMARK 927      BINDING AFFINITY PREDICTED BY RF-SCORE:    0.00 PKD
ROOT
HETATM    1 CL   UNL     1     -10.427  12.089  67.585  1.00  0.00    -0.216 Cl 
HETATM    2  C   UNL     1     -11.345  13.546  67.442  1.00  0.00    -0.311 A  
HETATM    3  C   UNL     1     -11.581  14.028  66.150  1.00  0.00    -0.374 A  
HETATM    4  C   UNL     1     -12.328  15.190  65.955  1.00  0.00     0.486 A  
HETATM    5  C   UNL     1     -12.861  15.861  67.050  1.00  0.00     3.221 A  
HETATM    6  C   UNL     1     -12.622  15.387  68.340  1.00  0.00     0.815 A  
HETATM    7  C   UNL     1     -11.836  14.239  68.560  1.00  0.00    -0.382 A  
ENDROOT
BRANCH   7   8
HETATM    8  C   UNL     1     -11.524  13.836  69.989  1.00  0.00    -0.118 C  
BRANCH   8   9
HETATM    9  N   UNL     1     -11.016  12.456  70.088  1.00  0.00     0.635 NA 
HETATM   10  C   UNL     1      -9.653  12.395  70.674  1.00  0.00     6.883 C  
HETATM   11  C   UNL     1      -9.230  10.943  71.000  1.00  0.00     4.785 C  
HETATM   12  C   UNL     1      -9.674  10.023  69.908  1.00  0.00    -0.203 A  
HETATM   13  C   UNL     1     -10.518  10.404  68.886  1.00  0.00    -0.232 A  
HETATM   14  C   UNL     1     -10.812   9.302  68.029  1.00  0.00    -0.166 A  
HETATM   15  C   UNL     1     -11.019  11.816  68.753  1.00  0.00    -0.234 C  
HETATM   16  C   UNL     1     -10.199   8.140  68.448  1.00  0.00    -0.209 A  
HETATM   17  S   UNL     1      -9.251   8.381  69.855  1.00  0.00    -0.151 SA 
ENDBRANCH   8   9
ENDBRANCH   7   8
TORSDOF 2
ENDMDL
MODEL      255
REMARK 921   NORMALIZED FREE ENERGY PREDICTED BY IDOCK:   30.08 KCAL/MOL
REMARK 922        TOTAL FREE ENERGY PREDICTED BY IDOCK:   33.23 KCAL/MOL
REMARK 923 INTER-LIGAND FREE ENERGY PREDICTED BY IDOCK:   32.27 KCAL/MOL
REMARK 924 INTRA-LIGAND FREE ENERGY PREDICTED BY IDOCK:    0.96 KCAL/MOL
REMARK 927      BINDING AFFINITY PREDICTED BY RF-SCORE:    0.00 PKD
ROOT
HETATM    1 CL   UNL     1     -10.111  15.679  73.349  1.00  0.00     5.552 Cl 
HETATM    2  C   UNL     1     -10.061  15.693  71.622  1.00  0.00     2.157 A  
HETATM    3  C   UNL     1     -10.995  16.501  70.962  1.00  0.00     0.271 A  
HETATM    4  C   UNL     1     -11.006  16.576  69.570  1.00  0.00    -0.289 A  
HETATM    5  C   UNL     1     -10.068  15.861  68.831  1.00  0.00    -0.225 A  
HETATM    6  C   UNL     1      -9.141  15.050  69.485  1.00  0.00    -0.064 A  
HETATM    7  C   UNL     1      -9.141  14.929  70.889  1.00  0.00     2.379 A  
ENDROOT
BRANCH   7   8
HETATM    8  C   UNL     1      -8.177  13.949  71.532  1.00  0.00     7.392 C  
BRANCH   8   9
HETATM    9  N   UNL     1      -8.388  12.565  71.070  1.00  0.00     8.350 NA 
HETATM   10  C   UNL     1      -7.157  11.741  71.171  1.00  0.00     4.221 C  
HETATM   11  C   UNL     1      -7.446  10.241  70.921  1.00  0.00     0.991 C  
HETATM   12  C   UNL     1      -8.423  10.088  69.799  1.00  0.00    -0.172 A  
HETATM   13  C   UNL     1      -9.110  11.144  69.237  1.00  0.00     0.156 A  
HETATM   14  C   UNL     1     -10.013  10.687  68.230  1.00  0.00    -0.173 A  
HETATM   15  C   UNL     1      -8.882  12.565  69.675  1.00  0.00     2.043 C  
HETATM   16  C   UNL     1      -9.984   9.316  68.090  1.00  0.00    -0.177 A  
HETATM   17  S   UNL     1      -8.854   8.582  69.150  1.00  0.00    -0.142 SA 
ENDBRANCH   8   9
ENDBRANCH   7   8
TORSDOF 2
ENDMDL
