MODEL        1
REMARK 921   NORMALIZED FREE ENERGY PREDICTED BY IDOCK:   -8.48 KCAL/MOL
REMARK 922        TOTAL FREE ENERGY PREDICTED BY IDOCK:  -11.83 KCAL/MOL
REMARK 923 INTER-LIGAND FREE ENERGY PREDICTED BY IDOCK:  -11.45 KCAL/MOL
REMARK 924 INTRA-LIGAND FREE ENERGY PREDICTED BY IDOCK:   -0.38 KCAL/MOL
REMARK 927      BINDING AFFINITY PREDICTED BY RF-SCORE:    0.00 PKD
ROOT
HETATM    1  C   UNL     1     -10.479  15.589  68.545  1.00  0.00    -0.238 C  
HETATM    2  C   UNL     1     -11.156  15.188  69.845  1.00  0.00    -0.302 C  
HETATM    3  C   UNL     1     -11.459  13.739  70.024  1.00  0.00    -0.188 A  
HETATM    4  C   UNL     1     -10.696  12.802  69.281  1.00  0.00     0.040 A  
HETATM    5  C   UNL     1      -9.568  13.234  68.394  1.00  0.00    -0.185 C  
HETATM    6  C   UNL     1     -10.981  11.437  69.400  1.00  0.00    -0.205 A  
HETATM    7  O   UNL     1     -10.320  10.460  68.700  1.00  0.00    -0.167 OA 
HETATM    8  C   UNL     1     -12.028  11.022  70.220  1.00  0.00    -0.365 A  
HETATM    9  C   UNL     1      -9.368  14.691  68.123  1.00  0.00    -0.197 C  
HETATM   10  O   UNL     1      -8.827  12.394  67.873  1.00  0.00    -0.164 OA 
HETATM   11  C   UNL     1      -8.297  15.171  67.441  1.00  0.00    -0.186 C  
HETATM   12  H   UNL     1     -10.514   9.533  68.782  1.00  0.00     0.000 HD 
HETATM   13  C   UNL     1     -12.749  11.947  70.983  1.00  0.00    -0.354 A  
HETATM   14  C   UNL     1      -9.935  16.972  68.818  1.00  0.00    -0.293 C  
HETATM   15  C   UNL     1     -12.473  13.332  70.940  1.00  0.00    -0.342 A  
HETATM   16  C   UNL     1      -8.139  16.654  67.031  1.00  0.00    -0.195 C  
HETATM   17  C   UNL     1      -9.207  17.609  67.636  1.00  0.00    -0.245 C  
HETATM   18  H   UNL     1      -7.166  20.602  69.493  1.00  0.00     0.000 HD 
HETATM   19  O   UNL     1      -7.353  14.321  66.877  1.00  0.00    -0.317 OA 
HETATM   20  C   UNL     1      -8.706  18.974  68.240  1.00  0.00    -0.331 C  
HETATM   21  H   UNL     1      -6.603  14.657  66.400  1.00  0.00     0.000 HD 
HETATM   22  C   UNL     1      -6.734  17.289  67.188  1.00  0.00    -0.175 C  
HETATM   23  O   UNL     1      -8.317  16.616  65.592  1.00  0.00    -0.280 OA 
HETATM   24  O   UNL     1      -6.660  20.110  68.856  1.00  0.00    -0.309 OA 
HETATM   25  C   UNL     1      -7.338  19.456  67.820  1.00  0.00    -0.254 C  
HETATM   26  C   UNL     1      -6.622  18.761  66.921  1.00  0.00    -0.202 C  
HETATM   27  O   UNL     1      -5.726  16.685  67.548  1.00  0.00    -0.128 OA 
HETATM   28  H   UNL     1      -8.219  17.527  65.340  1.00  0.00     0.000 HD 
ENDROOT
BRANCH   8  29
HETATM   29  N   UNL     1     -12.282   9.640  70.305  1.00  0.00    -0.472 N  
HETATM   30  H   UNL     1     -12.856   9.215  69.577  1.00  0.00     0.000 HD 
HETATM   31  C   UNL     1     -11.802   8.824  71.311  1.00  0.00    -0.303 C  
HETATM   32  O   UNL     1     -11.089   9.181  72.246  1.00  0.00    -0.226 OA 
BRANCH  31  33
HETATM   33  C   UNL     1     -12.287   7.376  71.175  1.00  0.00    -0.314 C  
BRANCH  33  34
HETATM   34  N   UNL     1     -11.879   6.861  69.860  1.00  0.00    -0.631 NA 
HETATM   35  C   UNL     1      -9.438   7.269  70.226  1.00  0.00    -0.165 C  
HETATM   36  C   UNL     1     -10.291   5.916  68.310  1.00  0.00    -0.263 C  
HETATM   37  C   UNL     1     -10.434   4.990  70.624  1.00  0.00    -0.227 C  
HETATM   38  H   UNL     1     -11.976   7.593  69.155  1.00  0.00     0.000 HD 
HETATM   39  C   UNL     1     -10.529   6.276  69.790  1.00  0.00    -0.232 C  
ENDBRANCH  33  34
ENDBRANCH  31  33
ENDBRANCH   8  29
BRANCH  15  40
HETATM   40  N   UNL     1     -13.160  14.189  71.801  1.00  0.00    -0.338 NA 
HETATM   41  C   UNL     1     -14.376  14.870  71.353  1.00  0.00    -0.468 C  
HETATM   42  C   UNL     1     -12.668  14.650  73.099  1.00  0.00    -0.444 C  
ENDBRANCH  15  40
BRANCH  26  43
HETATM   43  C   UNL     1      -6.800  19.361  65.564  1.00  0.00    -0.274 C  
HETATM   44  N   UNL     1      -7.516  20.502  65.470  1.00  0.00    -0.528 N  
HETATM   45  H2  UNL     1      -7.921  20.939  66.298  1.00  0.00     0.000 HD 
HETATM   46  H1  UNL     1      -7.637  20.911  64.544  1.00  0.00     0.000 HD 
HETATM   47  O   UNL     1      -6.373  18.839  64.531  1.00  0.00    -0.462 OA 
ENDBRANCH  26  43
BRANCH  20  48
HETATM   48  N   UNL     1      -9.829  19.939  68.168  1.00  0.00    -0.396 NA 
HETATM   49  C   UNL     1     -10.528  20.167  69.431  1.00  0.00     0.282 C  
HETATM   50  C   UNL     1     -10.788  19.630  67.111  1.00  0.00    -0.405 C  
ENDBRANCH  20  48
TORSDOF 6
ENDMDL
MODEL        2
REMARK 921   NORMALIZED FREE ENERGY PREDICTED BY IDOCK:   -8.10 KCAL/MOL
REMARK 922        TOTAL FREE ENERGY PREDICTED BY IDOCK:  -11.32 KCAL/MOL
REMARK 923 INTER-LIGAND FREE ENERGY PREDICTED BY IDOCK:  -11.35 KCAL/MOL
REMARK 924 INTRA-LIGAND FREE ENERGY PREDICTED BY IDOCK:    0.02 KCAL/MOL
REMARK 927      BINDING AFFINITY PREDICTED BY RF-SCORE:    0.00 PKD
ROOT
HETATM    1  C   UNL     1     -10.530  15.496  68.642  1.00  0.00    -0.237 C  
HETATM    2  C   UNL     1     -11.228  15.109  69.935  1.00  0.00    -0.305 C  
HETATM    3  C   UNL     1     -11.561  13.667  70.113  1.00  0.00    -0.208 A  
HETATM    4  C   UNL     1     -10.806  12.714  69.379  1.00  0.00     0.044 A  
HETATM    5  C   UNL     1      -9.662  13.124  68.504  1.00  0.00    -0.137 C  
HETATM    6  C   UNL     1     -11.118  11.355  69.497  1.00  0.00    -0.211 A  
HETATM    7  O   UNL     1     -10.467  10.365  68.805  1.00  0.00    -0.178 OA 
HETATM    8  C   UNL     1     -12.182  10.961  70.306  1.00  0.00    -0.348 A  
HETATM    9  C   UNL     1      -9.431  14.577  68.233  1.00  0.00    -0.207 C  
HETATM   10  O   UNL     1      -8.930  12.270  67.993  1.00  0.00    -0.176 OA 
HETATM   11  C   UNL     1      -8.345  15.036  67.563  1.00  0.00    -0.176 C  
HETATM   12  H   UNL     1     -10.680   9.442  68.886  1.00  0.00     0.000 HD 
HETATM   13  C   UNL     1     -12.894  11.900  71.059  1.00  0.00    -0.291 A  
HETATM   14  C   UNL     1      -9.964  16.869  68.920  1.00  0.00    -0.279 C  
HETATM   15  C   UNL     1     -12.591  13.280  71.018  1.00  0.00    -0.324 A  
HETATM   16  C   UNL     1      -8.154  16.515  67.153  1.00  0.00    -0.183 C  
HETATM   17  C   UNL     1      -9.211  17.491  67.745  1.00  0.00    -0.253 C  
HETATM   18  H   UNL     1      -7.135  20.447  69.620  1.00  0.00     0.000 HD 
HETATM   19  O   UNL     1      -7.410  14.168  67.011  1.00  0.00    -0.321 OA 
HETATM   20  C   UNL     1      -8.692  18.847  68.353  1.00  0.00    -0.345 C  
HETATM   21  H   UNL     1      -6.648  14.489  66.541  1.00  0.00     0.000 HD 
HETATM   22  C   UNL     1      -6.740  17.124  67.324  1.00  0.00    -0.160 C  
HETATM   23  O   UNL     1      -8.317  16.479  65.712  1.00  0.00    -0.337 OA 
HETATM   24  O   UNL     1      -6.631  19.946  68.990  1.00  0.00    -0.304 OA 
HETATM   25  C   UNL     1      -7.309  19.303  67.948  1.00  0.00    -0.256 C  
HETATM   26  C   UNL     1      -6.597  18.594  67.057  1.00  0.00    -0.201 C  
HETATM   27  O   UNL     1      -5.746  16.503  67.696  1.00  0.00    -0.116 OA 
HETATM   28  H   UNL     1      -8.199  17.387  65.460  1.00  0.00     0.000 HD 
ENDROOT
BRANCH   8  29
HETATM   29  N   UNL     1     -12.462   9.584  70.389  1.00  0.00    -0.475 N  
HETATM   30  H   UNL     1     -12.580   9.067  69.518  1.00  0.00     0.000 HD 
HETATM   31  C   UNL     1     -12.588   8.889  71.577  1.00  0.00    -0.331 C  
HETATM   32  O   UNL     1     -12.462   9.364  72.703  1.00  0.00    -0.174 OA 
BRANCH  31  33
HETATM   33  C   UNL     1     -12.953   7.415  71.360  1.00  0.00    -0.356 C  
BRANCH  33  34
HETATM   34  N   UNL     1     -12.037   6.581  72.153  1.00  0.00    -0.462 NA 
HETATM   35  C   UNL     1     -10.728   5.777  70.179  1.00  0.00    -0.390 C  
HETATM   36  C   UNL     1      -9.964   5.407  72.527  1.00  0.00    -0.201 C  
HETATM   37  C   UNL     1      -9.903   7.711  71.566  1.00  0.00    -0.192 C  
HETATM   38  H   UNL     1     -12.466   5.674  72.338  1.00  0.00     0.000 HD 
HETATM   39  C   UNL     1     -10.690   6.392  71.588  1.00  0.00    -0.232 C  
ENDBRANCH  33  34
ENDBRANCH  31  33
ENDBRANCH   8  29
BRANCH  15  40
HETATM   40  N   UNL     1     -13.272  14.150  71.870  1.00  0.00    -0.360 NA 
HETATM   41  C   UNL     1     -14.403  14.937  71.376  1.00  0.00    -0.468 C  
HETATM   42  C   UNL     1     -12.837  14.521  73.217  1.00  0.00    -0.399 C  
ENDBRANCH  15  40
BRANCH  26  43
HETATM   43  C   UNL     1      -6.749  19.195  65.697  1.00  0.00    -0.279 C  
HETATM   44  N   UNL     1      -7.235  20.452  65.617  1.00  0.00    -0.496 N  
HETATM   45  H2  UNL     1      -7.491  20.972  66.456  1.00  0.00     0.000 HD 
HETATM   46  H1  UNL     1      -7.339  20.862  64.689  1.00  0.00     0.000 HD 
HETATM   47  O   UNL     1      -6.504  18.583  64.655  1.00  0.00    -0.371 OA 
ENDBRANCH  26  43
BRANCH  20  48
HETATM   48  N   UNL     1      -9.795  19.833  68.267  1.00  0.00    -0.410 NA 
HETATM   49  C   UNL     1     -10.382  20.214  69.551  1.00  0.00     0.211 C  
HETATM   50  C   UNL     1     -10.844  19.443  67.330  1.00  0.00    -0.448 C  
ENDBRANCH  20  48
TORSDOF 6
ENDMDL
MODEL        3
REMARK 921   NORMALIZED FREE ENERGY PREDICTED BY IDOCK:   -7.99 KCAL/MOL
REMARK 922        TOTAL FREE ENERGY PREDICTED BY IDOCK:  -11.17 KCAL/MOL
REMARK 923 INTER-LIGAND FREE ENERGY PREDICTED BY IDOCK:  -10.18 KCAL/MOL
REMARK 924 INTRA-LIGAND FREE ENERGY PREDICTED BY IDOCK:   -0.99 KCAL/MOL
REMARK 927      BINDING AFFINITY PREDICTED BY RF-SCORE:    0.00 PKD
ROOT
HETATM    1  C   UNL     1      -8.847  14.150  68.557  1.00  0.00    -0.173 C  
HETATM    2  C   UNL     1      -7.849  13.004  68.525  1.00  0.00    -0.105 C  
HETATM    3  C   UNL     1      -8.409  11.625  68.615  1.00  0.00    -0.100 A  
HETATM    4  C   UNL     1      -9.759  11.426  68.225  1.00  0.00    -0.202 A  
HETATM    5  C   UNL     1     -10.588  12.543  67.670  1.00  0.00    -0.217 C  
HETATM    6  C   UNL     1     -10.322  10.150  68.332  1.00  0.00    -0.183 A  
HETATM    7  O   UNL     1     -11.626   9.868  68.010  1.00  0.00    -0.602 OA 
HETATM    8  C   UNL     1      -9.562   9.103  68.850  1.00  0.00    -0.152 A  
HETATM    9  C   UNL     1     -10.057  13.941  67.713  1.00  0.00    -0.241 C  
HETATM   10  O   UNL     1     -11.708  12.316  67.202  1.00  0.00    -0.419 OA 
HETATM   11  C   UNL     1     -10.685  14.985  67.116  1.00  0.00    -0.303 C  
HETATM   12  H   UNL     1     -12.008   9.001  68.083  1.00  0.00     0.000 HD 
HETATM   13  C   UNL     1      -8.220   9.296  69.192  1.00  0.00    -0.111 A  
HETATM   14  C   UNL     1      -8.069  15.337  68.040  1.00  0.00    -0.141 C  
HETATM   15  C   UNL     1      -7.583  10.550  69.058  1.00  0.00    -0.117 A  
HETATM   16  C   UNL     1     -10.229  16.456  67.264  1.00  0.00    -0.278 C  
HETATM   17  C   UNL     1      -8.865  16.640  67.988  1.00  0.00    -0.206 C  
HETATM   18  H   UNL     1      -6.535  18.885  65.518  1.00  0.00     0.000 HD 
HETATM   19  O   UNL     1     -11.916  14.831  66.488  1.00  0.00    -0.309 OA 
HETATM   20  C   UNL     1      -7.832  17.645  67.354  1.00  0.00    -0.205 C  
HETATM   21  H   UNL     1     -12.355  15.562  66.069  1.00  0.00     0.000 HD 
HETATM   22  C   UNL     1     -10.259  17.340  65.991  1.00  0.00    -0.304 C  
HETATM   23  O   UNL     1     -11.271  17.040  68.087  1.00  0.00    -0.272 OA 
HETATM   24  O   UNL     1      -7.467  18.928  65.334  1.00  0.00    -0.452 OA 
HETATM   25  C   UNL     1      -8.368  18.660  66.372  1.00  0.00    -0.276 C  
HETATM   26  C   UNL     1      -9.684  18.721  66.112  1.00  0.00    -0.280 C  
HETATM   27  O   UNL     1     -10.680  16.980  64.894  1.00  0.00    -0.728 OA 
HETATM   28  H   UNL     1     -10.991  17.944  68.177  1.00  0.00     0.000 HD 
ENDROOT
BRANCH   8  29
HETATM   29  N   UNL     1     -10.174   7.839  68.944  1.00  0.00    -0.207 N  
HETATM   30  H   UNL     1     -10.878   7.702  69.669  1.00  0.00     0.000 HD 
HETATM   31  C   UNL     1      -9.880   6.772  68.117  1.00  0.00    -0.137 C  
HETATM   32  O   UNL     1      -9.070   6.782  67.193  1.00  0.00    -0.122 OA 
BRANCH  31  33
HETATM   33  C   UNL     1     -10.659   5.505  68.491  1.00  0.00    -0.138 C  
BRANCH  33  34
HETATM   34  N   UNL     1     -10.900   5.510  69.942  1.00  0.00    -0.299 NA 
HETATM   35  C   UNL     1      -9.775   3.313  70.346  1.00  0.00    -0.125 C  
HETATM   36  C   UNL     1     -10.429   4.839  72.210  1.00  0.00    -0.255 C  
HETATM   37  C   UNL     1      -8.537   5.476  70.711  1.00  0.00    -0.128 C  
HETATM   38  H   UNL     1     -11.836   5.157  70.139  1.00  0.00     0.000 HD 
HETATM   39  C   UNL     1      -9.910   4.788  70.759  1.00  0.00    -0.210 C  
ENDBRANCH  33  34
ENDBRANCH  31  33
ENDBRANCH   8  29
BRANCH  15  40
HETATM   40  N   UNL     1      -6.217  10.650  69.321  1.00  0.00    -0.046 NA 
HETATM   41  C   UNL     1      -5.238  10.373  68.267  1.00  0.00    -0.034 C  
HETATM   42  C   UNL     1      -5.625  10.823  70.647  1.00  0.00    -0.114 C  
ENDBRANCH  15  40
BRANCH  26  43
HETATM   43  C   UNL     1     -10.312  19.797  66.939  1.00  0.00    -0.476 C  
HETATM   44  N   UNL     1      -9.653  20.970  67.047  1.00  0.00    -0.651 N  
HETATM   45  H2  UNL     1      -8.758  21.117  66.580  1.00  0.00     0.000 HD 
HETATM   46  H1  UNL     1     -10.081  21.704  67.611  1.00  0.00     0.000 HD 
HETATM   47  O   UNL     1     -11.364  19.645  67.563  1.00  0.00    -0.122 OA 
ENDBRANCH  26  43
BRANCH  20  48
HETATM   48  N   UNL     1      -6.954  18.137  68.442  1.00  0.00    -0.232 NA 
HETATM   49  C   UNL     1      -7.207  19.514  68.865  1.00  0.00    -0.362 C  
HETATM   50  C   UNL     1      -5.533  17.950  68.163  1.00  0.00    -0.151 C  
ENDBRANCH  20  48
TORSDOF 6
ENDMDL
MODEL        4
REMARK 921   NORMALIZED FREE ENERGY PREDICTED BY IDOCK:   -7.55 KCAL/MOL
REMARK 922        TOTAL FREE ENERGY PREDICTED BY IDOCK:  -10.57 KCAL/MOL
REMARK 923 INTER-LIGAND FREE ENERGY PREDICTED BY IDOCK:   -9.56 KCAL/MOL
REMARK 924 INTRA-LIGAND FREE ENERGY PREDICTED BY IDOCK:   -1.01 KCAL/MOL
REMARK 927      BINDING AFFINITY PREDICTED BY RF-SCORE:    0.00 PKD
ROOT
HETATM    1  C   UNL     1     -10.338   8.357  68.719  1.00  0.00    -0.225 C  
HETATM    2  C   UNL     1      -9.381   9.009  67.735  1.00  0.00    -0.156 C  
HETATM    3  C   UNL     1      -9.704  10.401  67.308  1.00  0.00    -0.195 A  
HETATM    4  C   UNL     1     -10.520  11.188  68.163  1.00  0.00    -0.215 A  
HETATM    5  C   UNL     1     -10.990  10.676  69.489  1.00  0.00    -0.272 C  
HETATM    6  C   UNL     1     -10.870  12.485  67.772  1.00  0.00    -0.225 A  
HETATM    7  O   UNL     1     -11.678  13.308  68.515  1.00  0.00    -0.310 OA 
HETATM    8  C   UNL     1     -10.441  12.972  66.539  1.00  0.00    -0.277 A  
HETATM    9  C   UNL     1     -10.771   9.238  69.838  1.00  0.00    -0.253 C  
HETATM   10  O   UNL     1     -11.573  11.428  70.277  1.00  0.00    -0.307 OA 
HETATM   11  C   UNL     1     -11.047   8.730  71.066  1.00  0.00    -0.270 C  
HETATM   12  H   UNL     1     -11.916  14.189  68.250  1.00  0.00     0.000 HD 
HETATM   13  C   UNL     1      -9.602  12.208  65.721  1.00  0.00    -0.209 A  
HETATM   14  C   UNL     1      -9.562   7.183  69.270  1.00  0.00    -0.155 C  
HETATM   15  C   UNL     1      -9.176  10.911  66.086  1.00  0.00    -0.184 A  
HETATM   16  C   UNL     1     -10.959   7.223  71.408  1.00  0.00    -0.232 C  
HETATM   17  C   UNL     1     -10.328   6.343  70.290  1.00  0.00    -0.252 C  
HETATM   18  H   UNL     1      -7.295   4.260  72.029  1.00  0.00     0.000 HD 
HETATM   19  O   UNL     1     -11.632   9.505  72.060  1.00  0.00    -0.311 OA 
HETATM   20  C   UNL     1      -9.259   5.271  70.722  1.00  0.00    -0.152 C  
HETATM   21  H   UNL     1     -11.826   9.149  72.920  1.00  0.00     0.000 HD 
HETATM   22  C   UNL     1     -10.338   6.840  72.775  1.00  0.00    -0.209 C  
HETATM   23  O   UNL     1     -12.349   6.841  71.566  1.00  0.00    -0.347 OA 
HETATM   24  O   UNL     1      -7.931   4.618  72.638  1.00  0.00    -0.090 OA 
HETATM   25  C   UNL     1      -9.230   4.872  72.179  1.00  0.00    -0.135 C  
HETATM   26  C   UNL     1     -10.129   5.378  73.038  1.00  0.00    -0.201 C  
HETATM   27  O   UNL     1      -9.976   7.642  73.633  1.00  0.00    -0.312 OA 
HETATM   28  H   UNL     1     -12.295   5.917  71.777  1.00  0.00     0.000 HD 
ENDROOT
BRANCH   8  29
HETATM   29  N   UNL     1     -10.823  14.280  66.187  1.00  0.00    -0.305 N  
HETATM   30  H   UNL     1     -11.785  14.432  65.886  1.00  0.00     0.000 HD 
HETATM   31  C   UNL     1      -9.976  15.371  66.223  1.00  0.00    -0.288 C  
HETATM   32  O   UNL     1      -8.798  15.354  66.573  1.00  0.00    -0.274 OA 
BRANCH  31  33
HETATM   33  C   UNL     1     -10.651  16.657  65.729  1.00  0.00    -0.268 C  
BRANCH  33  34
HETATM   34  N   UNL     1     -10.780  17.587  66.861  1.00  0.00    -0.199 NA 
HETATM   35  C   UNL     1      -8.662  18.818  66.361  1.00  0.00    -0.294 C  
HETATM   36  C   UNL     1     -10.332  19.655  68.017  1.00  0.00    -0.579 C  
HETATM   37  C   UNL     1     -10.883  19.715  65.582  1.00  0.00    -0.358 C  
HETATM   38  H   UNL     1     -10.420  17.152  67.710  1.00  0.00     0.000 HD 
HETATM   39  C   UNL     1     -10.164  18.912  66.676  1.00  0.00    -0.405 C  
ENDBRANCH  33  34
ENDBRANCH  31  33
ENDBRANCH   8  29
BRANCH  15  40
HETATM   40  N   UNL     1      -8.259  10.244  65.274  1.00  0.00    -0.157 NA 
HETATM   41  C   UNL     1      -8.723   9.319  64.238  1.00  0.00    -0.175 C  
HETATM   42  C   UNL     1      -6.811  10.222  65.480  1.00  0.00    -0.134 C  
ENDBRANCH  15  40
BRANCH  26  43
HETATM   43  C   UNL     1     -11.254   4.411  73.218  1.00  0.00    -0.271 C  
HETATM   44  N   UNL     1     -10.940   3.116  73.438  1.00  0.00    -0.206 N  
HETATM   45  H2  UNL     1      -9.968   2.809  73.480  1.00  0.00     0.000 HD 
HETATM   46  H1  UNL     1     -11.709   2.456  73.560  1.00  0.00     0.000 HD 
HETATM   47  O   UNL     1     -12.441   4.728  73.121  1.00  0.00     0.118 OA 
ENDBRANCH  26  43
BRANCH  20  48
HETATM   48  N   UNL     1      -9.270   4.189  69.710  1.00  0.00    -0.126 NA 
HETATM   49  C   UNL     1      -9.644   2.871  70.221  1.00  0.00    -0.071 C  
HETATM   50  C   UNL     1      -8.026   4.099  68.950  1.00  0.00    -0.071 C  
ENDBRANCH  20  48
TORSDOF 6
ENDMDL
MODEL        5
REMARK 921   NORMALIZED FREE ENERGY PREDICTED BY IDOCK:   -7.46 KCAL/MOL
REMARK 922        TOTAL FREE ENERGY PREDICTED BY IDOCK:  -10.45 KCAL/MOL
REMARK 923 INTER-LIGAND FREE ENERGY PREDICTED BY IDOCK:   -9.64 KCAL/MOL
REMARK 924 INTRA-LIGAND FREE ENERGY PREDICTED BY IDOCK:   -0.81 KCAL/MOL
REMARK 927      BINDING AFFINITY PREDICTED BY RF-SCORE:    0.00 PKD
ROOT
HETATM    1  C   UNL     1     -11.144  12.123  68.396  1.00  0.00    -0.289 C  
HETATM    2  C   UNL     1     -10.902  11.074  69.468  1.00  0.00    -0.267 C  
HETATM    3  C   UNL     1     -10.784   9.660  69.008  1.00  0.00    -0.232 A  
HETATM    4  C   UNL     1     -10.401   9.428  67.661  1.00  0.00    -0.303 A  
HETATM    5  C   UNL     1     -10.055  10.555  66.737  1.00  0.00    -0.219 C  
HETATM    6  C   UNL     1     -10.317   8.113  67.190  1.00  0.00    -0.321 A  
HETATM    7  O   UNL     1      -9.987   7.791  65.897  1.00  0.00    -0.396 OA 
HETATM    8  C   UNL     1     -10.639   7.056  68.038  1.00  0.00    -0.207 A  
HETATM    9  C   UNL     1     -10.309  11.963  67.173  1.00  0.00    -0.235 C  
HETATM   10  O   UNL     1      -9.585  10.323  65.618  1.00  0.00    -0.198 OA 
HETATM   11  C   UNL     1      -9.904  13.039  66.454  1.00  0.00    -0.270 C  
HETATM   12  H   UNL     1      -9.929   6.898  65.578  1.00  0.00     0.000 HD 
HETATM   13  C   UNL     1     -10.973   7.289  69.376  1.00  0.00    -0.157 A  
HETATM   14  C   UNL     1     -10.805  13.431  69.072  1.00  0.00    -0.220 C  
HETATM   15  C   UNL     1     -11.026   8.592  69.920  1.00  0.00    -0.168 A  
HETATM   16  C   UNL     1     -10.275  14.498  66.813  1.00  0.00    -0.266 C  
HETATM   17  C   UNL     1     -10.984  14.664  68.188  1.00  0.00    -0.269 C  
HETATM   18  H   UNL     1      -8.848  17.437  70.265  1.00  0.00     0.000 HD 
HETATM   19  O   UNL     1      -9.292  12.898  65.214  1.00  0.00    -0.413 OA 
HETATM   20  C   UNL     1     -10.494  15.830  69.125  1.00  0.00    -0.240 C  
HETATM   21  H   UNL     1      -9.007  13.652  64.710  1.00  0.00     0.000 HD 
HETATM   22  C   UNL     1      -9.163  15.568  66.676  1.00  0.00    -0.271 C  
HETATM   23  O   UNL     1     -11.208  14.867  65.765  1.00  0.00    -0.335 OA 
HETATM   24  O   UNL     1      -8.698  17.441  69.327  1.00  0.00    -0.001 OA 
HETATM   25  C   UNL     1      -9.701  16.945  68.485  1.00  0.00    -0.264 C  
HETATM   26  C   UNL     1      -9.489  16.951  67.159  1.00  0.00    -0.241 C  
HETATM   27  O   UNL     1      -8.033  15.357  66.240  1.00  0.00     0.093 OA 
HETATM   28  H   UNL     1     -11.435  15.762  65.986  1.00  0.00     0.000 HD 
ENDROOT
BRANCH   8  29
HETATM   29  N   UNL     1     -10.545   5.751  67.518  1.00  0.00    -0.250 N  
HETATM   30  H   UNL     1     -11.385   5.334  67.119  1.00  0.00     0.000 HD 
HETATM   31  C   UNL     1      -9.385   5.001  67.514  1.00  0.00    -0.125 C  
HETATM   32  O   UNL     1      -8.292   5.365  67.943  1.00  0.00    -0.100 OA 
BRANCH  31  33
HETATM   33  C   UNL     1      -9.595   3.595  66.937  1.00  0.00    -0.150 C  
BRANCH  33  34
HETATM   34  N   UNL     1     -10.383   3.706  65.700  1.00  0.00    -0.360 NA 
HETATM   35  C   UNL     1      -8.463   4.488  64.301  1.00  0.00    -0.120 C  
HETATM   36  C   UNL     1     -10.638   3.777  63.303  1.00  0.00    -0.226 C  
HETATM   37  C   UNL     1      -9.135   2.061  64.317  1.00  0.00    -0.113 C  
HETATM   38  H   UNL     1     -10.869   4.603  65.677  1.00  0.00     0.000 HD 
HETATM   39  C   UNL     1      -9.638   3.506  64.445  1.00  0.00    -0.162 C  
ENDBRANCH  33  34
ENDBRANCH  31  33
ENDBRANCH   8  29
BRANCH  15  40
HETATM   40  N   UNL     1     -11.266   8.748  71.285  1.00  0.00    -0.264 NA 
HETATM   41  C   UNL     1     -10.183   8.564  72.254  1.00  0.00    -0.325 C  
HETATM   42  C   UNL     1     -12.587   8.896  71.897  1.00  0.00    -0.377 C  
ENDBRANCH  15  40
BRANCH  26  43
HETATM   43  C   UNL     1     -10.494  17.833  66.491  1.00  0.00    -0.297 C  
HETATM   44  N   UNL     1     -11.001  18.860  67.206  1.00  0.00    -0.363 N  
HETATM   45  H2  UNL     1     -10.708  19.027  68.168  1.00  0.00     0.000 HD 
HETATM   46  H1  UNL     1     -11.687  19.462  66.750  1.00  0.00     0.000 HD 
HETATM   47  O   UNL     1     -10.916  17.636  65.350  1.00  0.00    -0.400 OA 
ENDBRANCH  26  43
BRANCH  20  48
HETATM   48  N   UNL     1     -11.623  16.206  70.008  1.00  0.00    -0.294 NA 
HETATM   49  C   UNL     1     -11.370  16.037  71.438  1.00  0.00    -0.304 C  
HETATM   50  C   UNL     1     -12.881  15.561  69.640  1.00  0.00     0.272 C  
ENDBRANCH  20  48
TORSDOF 6
ENDMDL
MODEL        6
REMARK 921   NORMALIZED FREE ENERGY PREDICTED BY IDOCK:   -7.44 KCAL/MOL
REMARK 922        TOTAL FREE ENERGY PREDICTED BY IDOCK:  -10.43 KCAL/MOL
REMARK 923 INTER-LIGAND FREE ENERGY PREDICTED BY IDOCK:   -9.27 KCAL/MOL
REMARK 924 INTRA-LIGAND FREE ENERGY PREDICTED BY IDOCK:   -1.16 KCAL/MOL
REMARK 927      BINDING AFFINITY PREDICTED BY RF-SCORE:    0.00 PKD
ROOT
HETATM    1  C   UNL     1     -10.236   8.293  68.730  1.00  0.00    -0.226 C  
HETATM    2  C   UNL     1      -9.266   8.941  67.757  1.00  0.00    -0.153 C  
HETATM    3  C   UNL     1      -9.578  10.334  67.325  1.00  0.00    -0.186 A  
HETATM    4  C   UNL     1     -10.399  11.125  68.171  1.00  0.00    -0.207 A  
HETATM    5  C   UNL     1     -10.886  10.616  69.492  1.00  0.00    -0.259 C  
HETATM    6  C   UNL     1     -10.739  12.424  67.776  1.00  0.00    -0.221 A  
HETATM    7  O   UNL     1     -11.551  13.251  68.510  1.00  0.00    -0.287 OA 
HETATM    8  C   UNL     1     -10.294  12.908  66.548  1.00  0.00    -0.264 A  
HETATM    9  C   UNL     1     -10.678   9.177  69.845  1.00  0.00    -0.246 C  
HETATM   10  O   UNL     1     -11.475  11.371  70.274  1.00  0.00    -0.277 OA 
HETATM   11  C   UNL     1     -10.970   8.671  71.069  1.00  0.00    -0.260 C  
HETATM   12  H   UNL     1     -11.782  14.133  68.241  1.00  0.00     0.000 HD 
HETATM   13  C   UNL     1      -9.450  12.140  65.739  1.00  0.00    -0.156 A  
HETATM   14  C   UNL     1      -9.473   7.116  69.290  1.00  0.00    -0.152 C  
HETATM   15  C   UNL     1      -9.034  10.841  66.109  1.00  0.00    -0.177 A  
HETATM   16  C   UNL     1     -10.892   7.164  71.412  1.00  0.00    -0.231 C  
HETATM   17  C   UNL     1     -10.254   6.280  70.302  1.00  0.00    -0.244 C  
HETATM   18  H   UNL     1      -7.250   4.184  72.076  1.00  0.00     0.000 HD 
HETATM   19  O   UNL     1     -11.562   9.449  72.056  1.00  0.00    -0.342 OA 
HETATM   20  C   UNL     1      -9.195   5.204  70.747  1.00  0.00    -0.145 C  
HETATM   21  H   UNL     1     -11.767   9.095  72.914  1.00  0.00     0.000 HD 
HETATM   22  C   UNL     1     -10.289   6.778  72.786  1.00  0.00    -0.209 C  
HETATM   23  O   UNL     1     -12.286   6.789  71.556  1.00  0.00    -0.347 OA 
HETATM   24  O   UNL     1      -7.891   4.545  72.677  1.00  0.00    -0.084 OA 
HETATM   25  C   UNL     1      -9.183   4.805  72.203  1.00  0.00    -0.128 C  
HETATM   26  C   UNL     1     -10.089   5.315  73.052  1.00  0.00    -0.203 C  
HETATM   27  O   UNL     1      -9.932   7.579  73.648  1.00  0.00    -0.312 OA 
HETATM   28  H   UNL     1     -12.239   5.864  71.767  1.00  0.00     0.000 HD 
ENDROOT
BRANCH   8  29
HETATM   29  N   UNL     1     -10.666  14.218  66.190  1.00  0.00    -0.290 N  
HETATM   30  H   UNL     1     -11.558  14.348  65.714  1.00  0.00     0.000 HD 
HETATM   31  C   UNL     1      -9.898  15.338  66.444  1.00  0.00    -0.275 C  
HETATM   32  O   UNL     1      -8.811  15.348  67.018  1.00  0.00    -0.197 OA 
BRANCH  31  33
HETATM   33  C   UNL     1     -10.528  16.622  65.890  1.00  0.00    -0.313 C  
BRANCH  33  34
HETATM   34  N   UNL     1      -9.496  17.668  65.833  1.00  0.00    -0.522 NA 
HETATM   35  C   UNL     1     -11.111  19.563  66.072  1.00  0.00    -0.100 C  
HETATM   36  C   UNL     1      -8.642  19.882  66.263  1.00  0.00    -0.377 C  
HETATM   37  C   UNL     1      -9.866  18.676  68.074  1.00  0.00    -0.378 C  
HETATM   38  H   UNL     1      -9.270  17.879  64.861  1.00  0.00     0.000 HD 
HETATM   39  C   UNL     1      -9.805  18.913  66.558  1.00  0.00    -0.368 C  
ENDBRANCH  33  34
ENDBRANCH  31  33
ENDBRANCH   8  29
BRANCH  15  40
HETATM   40  N   UNL     1      -8.111  10.169  65.307  1.00  0.00    -0.146 NA 
HETATM   41  C   UNL     1      -6.674  10.383  65.492  1.00  0.00    -0.121 C  
HETATM   42  C   UNL     1      -8.443   9.383  64.119  1.00  0.00    -0.190 C  
ENDBRANCH  15  40
BRANCH  26  43
HETATM   43  C   UNL     1     -11.221   4.354  73.220  1.00  0.00    -0.271 C  
HETATM   44  N   UNL     1     -10.916   3.055  73.425  1.00  0.00    -0.205 N  
HETATM   45  H2  UNL     1      -9.946   2.741  73.464  1.00  0.00     0.000 HD 
HETATM   46  H1  UNL     1     -11.689   2.398  73.540  1.00  0.00     0.000 HD 
HETATM   47  O   UNL     1     -12.406   4.680  73.127  1.00  0.00     0.043 OA 
ENDBRANCH  26  43
BRANCH  20  48
HETATM   48  N   UNL     1      -9.199   4.121  69.735  1.00  0.00    -0.126 NA 
HETATM   49  C   UNL     1      -9.631   2.815  70.232  1.00  0.00    -0.062 C  
HETATM   50  C   UNL     1      -7.931   3.994  69.022  1.00  0.00    -0.056 C  
ENDBRANCH  20  48
TORSDOF 6
ENDMDL
MODEL        7
REMARK 921   NORMALIZED FREE ENERGY PREDICTED BY IDOCK:   -7.37 KCAL/MOL
REMARK 922        TOTAL FREE ENERGY PREDICTED BY IDOCK:  -10.34 KCAL/MOL
REMARK 923 INTER-LIGAND FREE ENERGY PREDICTED BY IDOCK:   -9.48 KCAL/MOL
REMARK 924 INTRA-LIGAND FREE ENERGY PREDICTED BY IDOCK:   -0.86 KCAL/MOL
REMARK 927      BINDING AFFINITY PREDICTED BY RF-SCORE:    0.00 PKD
ROOT
HETATM    1  C   UNL     1      -9.721  10.531  68.052  1.00  0.00    -0.162 C  
HETATM    2  C   UNL     1      -9.946  11.059  66.645  1.00  0.00    -0.249 C  
HETATM    3  C   UNL     1      -9.741  12.521  66.436  1.00  0.00    -0.253 A  
HETATM    4  C   UNL     1      -8.903  13.214  67.349  1.00  0.00    -0.204 A  
HETATM    5  C   UNL     1      -8.182  12.499  68.451  1.00  0.00    -0.136 C  
HETATM    6  C   UNL     1      -8.721  14.593  67.201  1.00  0.00    -0.222 A  
HETATM    7  O   UNL     1      -7.956  15.352  68.051  1.00  0.00    -0.124 OA 
HETATM    8  C   UNL     1      -9.387  15.270  66.182  1.00  0.00    -0.325 A  
HETATM    9  C   UNL     1      -8.505  11.065  68.726  1.00  0.00    -0.144 C  
HETATM   10  O   UNL     1      -7.347  13.094  69.139  1.00  0.00    -0.011 OA 
HETATM   11  C   UNL     1      -7.807  10.312  69.614  1.00  0.00    -0.160 C  
HETATM   12  H   UNL     1      -7.832  16.289  67.949  1.00  0.00     0.000 HD 
HETATM   13  C   UNL     1     -10.177  14.575  65.260  1.00  0.00    -0.431 A  
HETATM   14  C   UNL     1      -9.586   9.037  67.872  1.00  0.00    -0.170 C  
HETATM   15  C   UNL     1     -10.358  13.176  65.330  1.00  0.00    -0.301 A  
HETATM   16  C   UNL     1      -8.206   8.872  70.015  1.00  0.00    -0.122 C  
HETATM   17  C   UNL     1      -9.362   8.263  69.170  1.00  0.00    -0.151 C  
HETATM   18  H   UNL     1      -7.996   4.707  67.737  1.00  0.00     0.000 HD 
HETATM   19  O   UNL     1      -6.790  10.857  70.389  1.00  0.00    -0.457 OA 
HETATM   20  C   UNL     1      -9.190   6.784  68.660  1.00  0.00    -0.132 C  
HETATM   21  H   UNL     1      -6.301  10.330  71.011  1.00  0.00     0.000 HD 
HETATM   22  C   UNL     1      -7.067   7.831  70.155  1.00  0.00    -0.054 C  
HETATM   23  O   UNL     1      -8.668   9.030  71.382  1.00  0.00    -0.258 OA 
HETATM   24  O   UNL     1      -7.511   5.048  68.479  1.00  0.00    -0.072 OA 
HETATM   25  C   UNL     1      -8.160   5.927  69.357  1.00  0.00    -0.109 C  
HETATM   26  C   UNL     1      -7.475   6.410  70.406  1.00  0.00    -0.094 C  
HETATM   27  O   UNL     1      -5.869   8.080  70.037  1.00  0.00    -0.023 OA 
HETATM   28  H   UNL     1      -8.913   8.146  71.628  1.00  0.00     0.000 HD 
ENDROOT
BRANCH   8  29
HETATM   29  N   UNL     1      -9.178  16.657  66.075  1.00  0.00    -0.266 N  
HETATM   30  H   UNL     1      -8.460  16.984  65.428  1.00  0.00     0.000 HD 
HETATM   31  C   UNL     1      -9.883  17.605  66.792  1.00  0.00    -0.304 C  
HETATM   32  O   UNL     1     -10.783  17.374  67.596  1.00  0.00    -0.363 OA 
BRANCH  31  33
HETATM   33  C   UNL     1      -9.399  19.034  66.514  1.00  0.00    -0.340 C  
BRANCH  33  34
HETATM   34  N   UNL     1      -8.067  18.969  65.893  1.00  0.00    -0.462 NA 
HETATM   35  C   UNL     1      -7.178  20.969  67.102  1.00  0.00    -0.348 C  
HETATM   36  C   UNL     1      -5.702  19.428  65.807  1.00  0.00    -0.181 C  
HETATM   37  C   UNL     1      -6.713  18.644  67.951  1.00  0.00    -0.222 C  
HETATM   38  H   UNL     1      -8.087  19.429  64.982  1.00  0.00     0.000 HD 
HETATM   39  C   UNL     1      -6.957  19.502  66.700  1.00  0.00    -0.207 C  
ENDBRANCH  33  34
ENDBRANCH  31  33
ENDBRANCH   8  29
BRANCH  15  40
HETATM   40  N   UNL     1     -11.075  12.532  64.321  1.00  0.00    -0.330 NA 
HETATM   41  C   UNL     1     -12.536  12.454  64.384  1.00  0.00    -0.433 C  
HETATM   42  C   UNL     1     -10.485  11.722  63.255  1.00  0.00    -0.388 C  
ENDBRANCH  15  40
BRANCH  26  43
HETATM   43  C   UNL     1      -8.116   5.957  71.678  1.00  0.00    -0.118 C  
HETATM   44  N   UNL     1      -7.650   6.474  72.835  1.00  0.00    -0.097 N  
HETATM   45  H2  UNL     1      -6.887   7.151  72.840  1.00  0.00     0.000 HD 
HETATM   46  H1  UNL     1      -8.087   6.165  73.703  1.00  0.00     0.000 HD 
HETATM   47  O   UNL     1      -9.003   5.102  71.723  1.00  0.00    -0.132 OA 
ENDBRANCH  26  43
BRANCH  20  48
HETATM   48  N   UNL     1     -10.543   6.213  68.464  1.00  0.00    -0.240 NA 
HETATM   49  C   UNL     1     -11.142   6.481  67.157  1.00  0.00    -0.360 C  
HETATM   50  C   UNL     1     -11.478   6.568  69.528  1.00  0.00    -0.319 C  
ENDBRANCH  20  48
TORSDOF 6
ENDMDL
MODEL        8
REMARK 921   NORMALIZED FREE ENERGY PREDICTED BY IDOCK:   -7.20 KCAL/MOL
REMARK 922        TOTAL FREE ENERGY PREDICTED BY IDOCK:  -10.11 KCAL/MOL
REMARK 923 INTER-LIGAND FREE ENERGY PREDICTED BY IDOCK:   -9.07 KCAL/MOL
REMARK 924 INTRA-LIGAND FREE ENERGY PREDICTED BY IDOCK:   -1.05 KCAL/MOL
REMARK 927      BINDING AFFINITY PREDICTED BY RF-SCORE:    0.00 PKD
ROOT
HETATM    1  C   UNL     1     -10.088   8.140  68.403  1.00  0.00    -0.226 C  
HETATM    2  C   UNL     1      -9.193   8.796  67.365  1.00  0.00    -0.158 C  
HETATM    3  C   UNL     1      -9.509  10.208  67.002  1.00  0.00    -0.197 A  
HETATM    4  C   UNL     1     -10.231  10.990  67.940  1.00  0.00    -0.207 A  
HETATM    5  C   UNL     1     -10.610  10.453  69.286  1.00  0.00    -0.232 C  
HETATM    6  C   UNL     1     -10.573  12.308  67.614  1.00  0.00    -0.215 A  
HETATM    7  O   UNL     1     -11.296  13.130  68.442  1.00  0.00    -0.251 OA 
HETATM    8  C   UNL     1     -10.229  12.819  66.365  1.00  0.00    -0.253 A  
HETATM    9  C   UNL     1     -10.406   9.000  69.577  1.00  0.00    -0.211 C  
HETATM   10  O   UNL     1     -11.107  11.196  70.138  1.00  0.00    -0.205 OA 
HETATM   11  C   UNL     1     -10.599   8.463  70.808  1.00  0.00    -0.207 C  
HETATM   12  H   UNL     1     -11.528  14.024  68.220  1.00  0.00     0.000 HD 
HETATM   13  C   UNL     1      -9.480  12.057  65.463  1.00  0.00    -0.116 A  
HETATM   14  C   UNL     1      -9.306   6.931  68.859  1.00  0.00    -0.134 C  
HETATM   15  C   UNL     1      -9.064  10.739  65.757  1.00  0.00    -0.188 A  
HETATM   16  C   UNL     1     -10.528   6.946  71.101  1.00  0.00    -0.212 C  
HETATM   17  C   UNL     1     -10.014   6.082  69.914  1.00  0.00    -0.225 C  
HETATM   18  H   UNL     1      -6.914   3.868  71.349  1.00  0.00     0.000 HD 
HETATM   19  O   UNL     1     -11.081   9.225  71.867  1.00  0.00    -0.367 OA 
HETATM   20  C   UNL     1      -8.945   4.970  70.230  1.00  0.00    -0.116 C  
HETATM   21  H   UNL     1     -11.217   8.849  72.729  1.00  0.00     0.000 HD 
HETATM   22  C   UNL     1      -9.813   6.506  72.404  1.00  0.00    -0.159 C  
HETATM   23  O   UNL     1     -11.912   6.597  71.360  1.00  0.00    -0.327 OA 
HETATM   24  O   UNL     1      -7.490   4.225  72.015  1.00  0.00    -0.066 OA 
HETATM   25  C   UNL     1      -8.813   4.527  71.668  1.00  0.00    -0.120 C  
HETATM   26  C   UNL     1      -9.626   5.031  72.610  1.00  0.00    -0.165 C  
HETATM   27  O   UNL     1      -9.361   7.273  73.252  1.00  0.00    -0.151 OA 
HETATM   28  H   UNL     1     -11.869   5.665  71.540  1.00  0.00     0.000 HD 
ENDROOT
BRANCH   8  29
HETATM   29  N   UNL     1     -10.599  14.146  66.080  1.00  0.00    -0.290 N  
HETATM   30  H   UNL     1     -11.542  14.315  65.730  1.00  0.00     0.000 HD 
HETATM   31  C   UNL     1      -9.765  15.236  66.244  1.00  0.00    -0.299 C  
HETATM   32  O   UNL     1      -8.612  15.200  66.667  1.00  0.00    -0.263 OA 
BRANCH  31  33
HETATM   33  C   UNL     1     -10.419  16.550  65.798  1.00  0.00    -0.329 C  
BRANCH  33  34
HETATM   34  N   UNL     1      -9.381  17.587  65.708  1.00  0.00    -0.497 NA 
HETATM   35  C   UNL     1     -10.902  19.460  66.366  1.00  0.00    -0.421 C  
HETATM   36  C   UNL     1      -8.424  19.735  66.243  1.00  0.00    -0.390 C  
HETATM   37  C   UNL     1      -9.414  18.354  68.071  1.00  0.00    -0.305 C  
HETATM   38  H   UNL     1      -9.285  17.899  64.741  1.00  0.00     0.000 HD 
HETATM   39  C   UNL     1      -9.557  18.750  66.594  1.00  0.00    -0.336 C  
ENDBRANCH  33  34
ENDBRANCH  31  33
ENDBRANCH   8  29
BRANCH  15  40
HETATM   40  N   UNL     1      -8.234  10.072  64.856  1.00  0.00    -0.147 NA 
HETATM   41  C   UNL     1      -8.799   9.410  63.678  1.00  0.00    -0.171 C  
HETATM   42  C   UNL     1      -6.816   9.785  65.071  1.00  0.00    -0.115 C  
ENDBRANCH  15  40
BRANCH  26  43
HETATM   43  C   UNL     1     -10.762   4.090  72.852  1.00  0.00    -0.131 C  
HETATM   44  N   UNL     1     -11.907   4.603  73.350  1.00  0.00    -0.308 N  
HETATM   45  H2  UNL     1     -11.994   5.599  73.554  1.00  0.00     0.000 HD 
HETATM   46  H1  UNL     1     -12.682   3.960  73.516  1.00  0.00     0.000 HD 
HETATM   47  O   UNL     1     -10.683   2.873  72.672  1.00  0.00    -0.099 OA 
ENDBRANCH  26  43
BRANCH  20  48
HETATM   48  N   UNL     1      -9.067   3.918  69.193  1.00  0.00    -0.122 NA 
HETATM   49  C   UNL     1      -9.513   2.615  69.686  1.00  0.00    -0.068 C  
HETATM   50  C   UNL     1      -7.861   3.764  68.385  1.00  0.00    -0.068 C  
ENDBRANCH  20  48
TORSDOF 6
ENDMDL
MODEL        9
REMARK 921   NORMALIZED FREE ENERGY PREDICTED BY IDOCK:   -6.95 KCAL/MOL
REMARK 922        TOTAL FREE ENERGY PREDICTED BY IDOCK:   -9.77 KCAL/MOL
REMARK 923 INTER-LIGAND FREE ENERGY PREDICTED BY IDOCK:   -8.81 KCAL/MOL
REMARK 924 INTRA-LIGAND FREE ENERGY PREDICTED BY IDOCK:   -0.96 KCAL/MOL
REMARK 927      BINDING AFFINITY PREDICTED BY RF-SCORE:    0.00 PKD
ROOT
HETATM    1  C   UNL     1     -10.237   7.568  69.150  1.00  0.00    -0.202 C  
HETATM    2  C   UNL     1      -9.453   8.464  68.205  1.00  0.00    -0.147 C  
HETATM    3  C   UNL     1      -9.869   9.894  68.137  1.00  0.00    -0.167 A  
HETATM    4  C   UNL     1     -10.567  10.438  69.247  1.00  0.00    -0.259 A  
HETATM    5  C   UNL     1     -10.822   9.635  70.485  1.00  0.00    -0.309 C  
HETATM    6  C   UNL     1     -11.002  11.767  69.198  1.00  0.00    -0.209 A  
HETATM    7  O   UNL     1     -11.710  12.371  70.207  1.00  0.00    -0.516 OA 
HETATM    8  C   UNL     1     -10.773  12.525  68.051  1.00  0.00    -0.221 A  
HETATM    9  C   UNL     1     -10.519   8.170  70.483  1.00  0.00    -0.222 C  
HETATM   10  O   UNL     1     -11.299  10.172  71.490  1.00  0.00    -0.233 OA 
HETATM   11  C   UNL     1     -10.597   7.402  71.598  1.00  0.00    -0.205 C  
HETATM   12  H   UNL     1     -12.005  13.274  70.173  1.00  0.00     0.000 HD 
HETATM   13  C   UNL     1     -10.048  11.996  66.978  1.00  0.00    -0.221 A  
HETATM   14  C   UNL     1      -9.360   6.349  69.321  1.00  0.00    -0.138 C  
HETATM   15  C   UNL     1      -9.541  10.677  66.992  1.00  0.00    -0.169 A  
HETATM   16  C   UNL     1     -10.423   5.864  71.592  1.00  0.00    -0.233 C  
HETATM   17  C   UNL     1      -9.946   5.274  70.234  1.00  0.00    -0.310 C  
HETATM   18  H   UNL     1      -6.638   3.043  71.040  1.00  0.00     0.000 HD 
HETATM   19  O   UNL     1     -11.046   7.919  72.808  1.00  0.00    -0.357 OA 
HETATM   20  C   UNL     1      -8.799   4.196  70.271  1.00  0.00    -0.085 C  
HETATM   21  H   UNL     1     -11.100   7.380  73.589  1.00  0.00     0.000 HD 
HETATM   22  C   UNL     1      -9.597   5.238  72.744  1.00  0.00    -0.149 C  
HETATM   23  O   UNL     1     -11.765   5.382  71.859  1.00  0.00     0.042 OA 
HETATM   24  O   UNL     1      -7.185   3.230  71.795  1.00  0.00    -0.037 OA 
HETATM   25  C   UNL     1      -8.543   3.502  71.588  1.00  0.00    -0.084 C  
HETATM   26  C   UNL     1      -9.316   3.767  72.654  1.00  0.00    -0.154 C  
HETATM   27  O   UNL     1      -9.129   5.862  73.694  1.00  0.00    -0.128 OA 
HETATM   28  H   UNL     1     -11.658   4.438  71.856  1.00  0.00     0.000 HD 
ENDROOT
BRANCH   8  29
HETATM   29  N   UNL     1     -11.234  13.854  68.045  1.00  0.00    -0.260 N  
HETATM   30  H   UNL     1     -12.120  14.051  67.579  1.00  0.00     0.000 HD 
HETATM   31  C   UNL     1     -10.563  14.910  68.632  1.00  0.00    -0.251 C  
HETATM   32  O   UNL     1      -9.498  14.834  69.241  1.00  0.00    -0.157 OA 
BRANCH  31  33
HETATM   33  C   UNL     1     -11.274  16.252  68.418  1.00  0.00    -0.349 C  
BRANCH  33  34
HETATM   34  N   UNL     1     -10.417  17.329  68.936  1.00  0.00    -0.342 NA 
HETATM   35  C   UNL     1      -8.945  17.412  66.916  1.00  0.00    -0.260 C  
HETATM   36  C   UNL     1      -8.874  19.165  68.692  1.00  0.00    -0.404 C  
HETATM   37  C   UNL     1     -10.856  19.031  67.180  1.00  0.00    -0.473 C  
HETATM   38  H   UNL     1      -9.697  16.937  69.543  1.00  0.00     0.000 HD 
HETATM   39  C   UNL     1      -9.799  18.200  67.923  1.00  0.00    -0.313 C  
ENDBRANCH  33  34
ENDBRANCH  31  33
ENDBRANCH   8  29
BRANCH  15  40
HETATM   40  N   UNL     1      -8.740  10.246  65.934  1.00  0.00    -0.151 NA 
HETATM   41  C   UNL     1      -7.288  10.432  65.981  1.00  0.00    -0.134 C  
HETATM   42  C   UNL     1      -9.235   9.779  64.639  1.00  0.00    -0.255 C  
ENDBRANCH  15  40
BRANCH  26  43
HETATM   43  C   UNL     1     -10.379   2.723  72.778  1.00  0.00    -0.154 C  
HETATM   44  N   UNL     1     -11.421   2.983  73.595  1.00  0.00    -0.162 N  
HETATM   45  H2  UNL     1     -11.481   3.862  74.110  1.00  0.00     0.000 HD 
HETATM   46  H1  UNL     1     -12.147   2.271  73.680  1.00  0.00     0.000 HD 
HETATM   47  O   UNL     1     -10.320   1.627  72.217  1.00  0.00    -0.150 OA 
ENDBRANCH  26  43
BRANCH  20  48
HETATM   48  N   UNL     1      -8.935   3.350  69.062  1.00  0.00    -0.113 NA 
HETATM   49  C   UNL     1      -9.371   1.978  69.315  1.00  0.00    -0.108 C  
HETATM   50  C   UNL     1      -7.740   3.351  68.221  1.00  0.00    -0.059 C  
ENDBRANCH  20  48
TORSDOF 6
ENDMDL
MODEL       10
REMARK 921   NORMALIZED FREE ENERGY PREDICTED BY IDOCK:   -6.84 KCAL/MOL
REMARK 922        TOTAL FREE ENERGY PREDICTED BY IDOCK:   -9.62 KCAL/MOL
REMARK 923 INTER-LIGAND FREE ENERGY PREDICTED BY IDOCK:   -8.95 KCAL/MOL
REMARK 924 INTRA-LIGAND FREE ENERGY PREDICTED BY IDOCK:   -0.67 KCAL/MOL
REMARK 927      BINDING AFFINITY PREDICTED BY RF-SCORE:    0.00 PKD
ROOT
HETATM    1  C   UNL     1      -8.847  13.070  67.426  1.00  0.00    -0.203 C  
HETATM    2  C   UNL     1      -8.796  11.970  66.379  1.00  0.00    -0.126 C  
HETATM    3  C   UNL     1      -9.145  10.594  66.834  1.00  0.00    -0.168 A  
HETATM    4  C   UNL     1      -9.955  10.461  67.992  1.00  0.00    -0.178 A  
HETATM    5  C   UNL     1     -10.509  11.657  68.705  1.00  0.00    -0.213 C  
HETATM    6  C   UNL     1     -10.269   9.182  68.465  1.00  0.00    -0.198 A  
HETATM    7  O   UNL     1     -11.018   8.954  69.593  1.00  0.00    -0.345 OA 
HETATM    8  C   UNL     1      -9.758   8.062  67.813  1.00  0.00    -0.156 A  
HETATM    9  C   UNL     1     -10.040  13.023  68.317  1.00  0.00    -0.239 C  
HETATM   10  O   UNL     1     -11.328  11.514  69.619  1.00  0.00    -0.266 OA 
HETATM   11  C   UNL     1     -10.587  14.158  68.819  1.00  0.00    -0.253 C  
HETATM   12  H   UNL     1     -11.231   8.085  69.913  1.00  0.00     0.000 HD 
HETATM   13  C   UNL     1      -8.997   8.199  66.648  1.00  0.00    -0.181 A  
HETATM   14  C   UNL     1      -8.867  14.349  66.622  1.00  0.00    -0.188 C  
HETATM   15  C   UNL     1      -8.689   9.463  66.096  1.00  0.00    -0.147 A  
HETATM   16  C   UNL     1     -10.029  15.573  68.538  1.00  0.00    -0.208 C  
HETATM   17  C   UNL     1      -8.906  15.624  67.463  1.00  0.00    -0.190 C  
HETATM   18  H   UNL     1     -10.079  18.362  64.690  1.00  0.00     0.000 HD 
HETATM   19  O   UNL     1     -11.573  14.119  69.798  1.00  0.00    -0.271 OA 
HETATM   20  C   UNL     1      -8.993  16.753  66.370  1.00  0.00    -0.289 C  
HETATM   21  H   UNL     1     -11.957  14.914  70.150  1.00  0.00     0.000 HD 
HETATM   22  C   UNL     1     -11.056  16.700  68.262  1.00  0.00    -0.295 C  
HETATM   23  O   UNL     1      -9.462  15.961  69.816  1.00  0.00    -0.221 OA 
HETATM   24  O   UNL     1     -10.523  18.429  65.527  1.00  0.00    -0.610 OA 
HETATM   25  C   UNL     1      -9.878  17.940  66.670  1.00  0.00    -0.342 C  
HETATM   26  C   UNL     1     -10.505  18.034  67.853  1.00  0.00    -0.408 C  
HETATM   27  O   UNL     1     -12.277  16.568  68.316  1.00  0.00     0.512 OA 
HETATM   28  H   UNL     1      -9.120  16.831  69.644  1.00  0.00     0.000 HD 
ENDROOT
BRANCH   8  29
HETATM   29  N   UNL     1     -10.097   6.797  68.328  1.00  0.00    -0.154 N  
HETATM   30  H   UNL     1     -11.070   6.499  68.263  1.00  0.00     0.000 HD 
HETATM   31  C   UNL     1      -9.194   5.933  68.917  1.00  0.00    -0.119 C  
HETATM   32  O   UNL     1      -7.990   6.139  69.059  1.00  0.00    -0.105 OA 
BRANCH  31  33
HETATM   33  C   UNL     1      -9.858   4.652  69.438  1.00  0.00    -0.202 C  
BRANCH  33  34
HETATM   34  N   UNL     1     -10.620   4.976  70.653  1.00  0.00    -0.152 NA 
HETATM   35  C   UNL     1      -9.919   2.918  71.891  1.00  0.00    -0.213 C  
HETATM   36  C   UNL     1     -11.086   4.817  73.014  1.00  0.00    -0.352 C  
HETATM   37  C   UNL     1      -8.725   5.106  72.256  1.00  0.00    -0.127 C  
HETATM   38  H   UNL     1     -11.589   4.677  70.545  1.00  0.00     0.000 HD 
HETATM   39  C   UNL     1     -10.071   4.449  71.914  1.00  0.00    -0.174 C  
ENDBRANCH  33  34
ENDBRANCH  31  33
ENDBRANCH   8  29
BRANCH  15  40
HETATM   40  N   UNL     1      -8.013   9.526  64.878  1.00  0.00    -0.115 NA 
HETATM   41  C   UNL     1      -6.558   9.690  64.846  1.00  0.00    -0.093 C  
HETATM   42  C   UNL     1      -8.650   9.643  63.566  1.00  0.00    -0.209 C  
ENDBRANCH  15  40
BRANCH  26  43
HETATM   43  C   UNL     1      -9.716  18.908  68.774  1.00  0.00    -0.400 C  
HETATM   44  N   UNL     1     -10.368  19.908  69.404  1.00  0.00    -0.575 N  
HETATM   45  H2  UNL     1     -11.366  20.061  69.257  1.00  0.00     0.000 HD 
HETATM   46  H1  UNL     1      -9.829  20.504  70.032  1.00  0.00     0.000 HD 
HETATM   47  O   UNL     1      -8.500  18.793  68.940  1.00  0.00    -0.294 OA 
ENDBRANCH  26  43
BRANCH  20  48
HETATM   48  N   UNL     1      -7.618  17.022  65.887  1.00  0.00    -0.305 NA 
HETATM   49  C   UNL     1      -6.552  16.499  66.740  1.00  0.00    -0.132 C  
HETATM   50  C   UNL     1      -7.379  18.431  65.588  1.00  0.00    -0.047 C  
ENDBRANCH  20  48
TORSDOF 6
ENDMDL
MODEL       11
REMARK 921   NORMALIZED FREE ENERGY PREDICTED BY IDOCK:   -6.82 KCAL/MOL
REMARK 922        TOTAL FREE ENERGY PREDICTED BY IDOCK:   -9.59 KCAL/MOL
REMARK 923 INTER-LIGAND FREE ENERGY PREDICTED BY IDOCK:   -9.17 KCAL/MOL
REMARK 924 INTRA-LIGAND FREE ENERGY PREDICTED BY IDOCK:   -0.42 KCAL/MOL
REMARK 927      BINDING AFFINITY PREDICTED BY RF-SCORE:    0.00 PKD
ROOT
HETATM    1  C   UNL     1      -9.660   8.596  70.716  1.00  0.00    -0.231 C  
HETATM    2  C   UNL     1     -10.972   9.355  70.823  1.00  0.00    -0.371 C  
HETATM    3  C   UNL     1     -11.073  10.631  70.057  1.00  0.00    -0.359 A  
HETATM    4  C   UNL     1     -10.220  10.805  68.937  1.00  0.00    -0.219 A  
HETATM    5  C   UNL     1      -9.291   9.721  68.481  1.00  0.00    -0.142 C  
HETATM    6  C   UNL     1     -10.265  12.006  68.220  1.00  0.00    -0.206 A  
HETATM    7  O   UNL     1      -9.458  12.278  67.144  1.00  0.00    -0.187 OA 
HETATM    8  C   UNL     1     -11.123  13.023  68.635  1.00  0.00    -0.269 A  
HETATM    9  C   UNL     1      -9.106   8.508  69.336  1.00  0.00    -0.150 C  
HETATM   10  O   UNL     1      -8.667   9.839  67.421  1.00  0.00    -0.131 OA 
HETATM   11  C   UNL     1      -8.390   7.429  68.935  1.00  0.00    -0.129 C  
HETATM   12  H   UNL     1      -9.490  13.094  66.658  1.00  0.00     0.000 HD 
HETATM   13  C   UNL     1     -11.992  12.829  69.714  1.00  0.00    -0.362 A  
HETATM   14  C   UNL     1      -9.990   7.210  71.218  1.00  0.00    -0.192 C  
HETATM   15  C   UNL     1     -12.025  11.619  70.443  1.00  0.00    -0.358 A  
HETATM   16  C   UNL     1      -8.071   6.224  69.852  1.00  0.00    -0.120 C  
HETATM   17  C   UNL     1      -8.809   6.242  71.222  1.00  0.00    -0.139 C  
HETATM   18  H   UNL     1     -10.723   2.665  71.552  1.00  0.00     0.000 HD 
HETATM   19  O   UNL     1      -7.708   7.417  67.723  1.00  0.00    -0.107 OA 
HETATM   20  C   UNL     1      -9.468   4.899  71.712  1.00  0.00    -0.151 C  
HETATM   21  H   UNL     1      -7.206   6.660  67.442  1.00  0.00     0.000 HD 
HETATM   22  C   UNL     1      -8.176   4.809  69.230  1.00  0.00    -0.077 C  
HETATM   23  O   UNL     1      -6.647   6.364  70.094  1.00  0.00    -0.042 OA 
HETATM   24  O   UNL     1     -10.023   2.683  70.910  1.00  0.00    -0.036 OA 
HETATM   25  C   UNL     1      -8.993   3.619  71.067  1.00  0.00    -0.096 C  
HETATM   26  C   UNL     1      -8.003   3.645  70.160  1.00  0.00    -0.051 C  
HETATM   27  O   UNL     1      -8.427   4.577  68.049  1.00  0.00    -0.097 OA 
HETATM   28  H   UNL     1      -6.451   5.624  70.656  1.00  0.00     0.000 HD 
ENDROOT
BRANCH   8  29
HETATM   29  N   UNL     1     -11.130  14.215  67.887  1.00  0.00    -0.260 N  
HETATM   30  H   UNL     1     -11.668  14.232  67.021  1.00  0.00     0.000 HD 
HETATM   31  C   UNL     1     -10.455  15.363  68.253  1.00  0.00    -0.241 C  
HETATM   32  O   UNL     1      -9.778  15.506  69.268  1.00  0.00    -0.235 OA 
BRANCH  31  33
HETATM   33  C   UNL     1     -10.597  16.485  67.216  1.00  0.00    -0.285 C  
BRANCH  33  34
HETATM   34  N   UNL     1     -10.752  17.765  67.924  1.00  0.00    -0.372 NA 
HETATM   35  C   UNL     1      -8.472  18.605  67.334  1.00  0.00    -0.277 C  
HETATM   36  C   UNL     1     -10.217  20.079  68.340  1.00  0.00    -0.510 C  
HETATM   37  C   UNL     1     -10.483  19.295  65.985  1.00  0.00    -0.573 C  
HETATM   38  H   UNL     1     -10.538  17.642  68.914  1.00  0.00     0.000 HD 
HETATM   39  C   UNL     1      -9.981  18.895  67.380  1.00  0.00    -0.338 C  
ENDBRANCH  33  34
ENDBRANCH  31  33
ENDBRANCH   8  29
BRANCH  15  40
HETATM   40  N   UNL     1     -12.985  11.454  71.442  1.00  0.00    -0.412 NA 
HETATM   41  C   UNL     1     -13.507  12.615  72.167  1.00  0.00    -0.460 C  
HETATM   42  C   UNL     1     -13.407  10.170  72.000  1.00  0.00    -0.387 C  
ENDBRANCH  15  40
BRANCH  26  43
HETATM   43  C   UNL     1      -6.704   3.314  70.821  1.00  0.00    -0.032 C  
HETATM   44  N   UNL     1      -6.183   2.088  70.604  1.00  0.00    -0.022 N  
HETATM   45  H2  UNL     1      -6.660   1.410  70.009  1.00  0.00     0.000 HD 
HETATM   46  H1  UNL     1      -5.296   1.862  71.055  1.00  0.00     0.000 HD 
HETATM   47  O   UNL     1      -6.121   4.081  71.590  1.00  0.00    -0.013 OA 
ENDBRANCH  26  43
BRANCH  20  48
HETATM   48  N   UNL     1      -9.536   4.942  73.192  1.00  0.00    -0.131 NA 
HETATM   49  C   UNL     1      -8.605   4.047  73.877  1.00  0.00    -0.094 C  
HETATM   50  C   UNL     1     -10.888   4.757  73.712  1.00  0.00    -0.310 C  
ENDBRANCH  20  48
TORSDOF 6
ENDMDL
MODEL       12
REMARK 921   NORMALIZED FREE ENERGY PREDICTED BY IDOCK:   -6.81 KCAL/MOL
REMARK 922        TOTAL FREE ENERGY PREDICTED BY IDOCK:   -9.58 KCAL/MOL
REMARK 923 INTER-LIGAND FREE ENERGY PREDICTED BY IDOCK:   -9.45 KCAL/MOL
REMARK 924 INTRA-LIGAND FREE ENERGY PREDICTED BY IDOCK:   -0.12 KCAL/MOL
REMARK 927      BINDING AFFINITY PREDICTED BY RF-SCORE:    0.00 PKD
ROOT
HETATM    1  C   UNL     1      -9.932   8.385  66.588  1.00  0.00    -0.354 C  
HETATM    2  C   UNL     1     -10.085   9.635  65.738  1.00  0.00    -0.274 C  
HETATM    3  C   UNL     1     -10.619  10.849  66.421  1.00  0.00    -0.289 A  
HETATM    4  C   UNL     1     -10.475  10.938  67.830  1.00  0.00    -0.238 A  
HETATM    5  C   UNL     1      -9.748   9.889  68.613  1.00  0.00    -0.157 C  
HETATM    6  C   UNL     1     -10.998  12.048  68.503  1.00  0.00    -0.240 A  
HETATM    7  O   UNL     1     -10.935  12.208  69.864  1.00  0.00    -0.453 OA 
HETATM    8  C   UNL     1     -11.678  13.030  67.786  1.00  0.00    -0.359 A  
HETATM    9  C   UNL     1      -9.340   8.620  67.935  1.00  0.00    -0.155 C  
HETATM   10  O   UNL     1      -9.508  10.060  69.813  1.00  0.00    -0.220 OA 
HETATM   11  C   UNL     1      -8.567   7.681  68.535  1.00  0.00    -0.129 C  
HETATM   12  H   UNL     1     -11.290  12.962  70.321  1.00  0.00     0.000 HD 
HETATM   13  C   UNL     1     -11.779  12.957  66.393  1.00  0.00    -0.454 A  
HETATM   14  C   UNL     1      -9.016   7.495  65.781  1.00  0.00    -0.077 C  
HETATM   15  C   UNL     1     -11.228  11.885  65.655  1.00  0.00    -0.306 A  
HETATM   16  C   UNL     1      -8.248   6.304  67.906  1.00  0.00    -0.114 C  
HETATM   17  C   UNL     1      -8.713   6.146  66.430  1.00  0.00    -0.138 C  
HETATM   18  H   UNL     1      -5.446   4.968  64.307  1.00  0.00     0.000 HD 
HETATM   19  O   UNL     1      -8.169   7.806  69.862  1.00  0.00    -0.121 OA 
HETATM   20  C   UNL     1      -7.702   5.497  65.413  1.00  0.00    -0.089 C  
HETATM   21  H   UNL     1      -7.627   7.148  70.283  1.00  0.00     0.000 HD 
HETATM   22  C   UNL     1      -6.798   5.777  68.047  1.00  0.00    -0.064 C  
HETATM   23  O   UNL     1      -9.008   5.383  68.730  1.00  0.00    -0.114 OA 
HETATM   24  O   UNL     1      -5.379   4.836  65.245  1.00  0.00    -0.012 OA 
HETATM   25  C   UNL     1      -6.558   4.697  65.989  1.00  0.00    -0.045 C  
HETATM   26  C   UNL     1      -6.463   4.511  67.316  1.00  0.00    -0.042 C  
HETATM   27  O   UNL     1      -5.904   6.337  68.679  1.00  0.00    -0.018 OA 
HETATM   28  H   UNL     1      -8.812   4.538  68.344  1.00  0.00     0.000 HD 
ENDROOT
BRANCH   8  29
HETATM   29  N   UNL     1     -12.192  14.125  68.506  1.00  0.00    -0.561 N  
HETATM   30  H   UNL     1     -13.204  14.247  68.533  1.00  0.00     0.000 HD 
HETATM   31  C   UNL     1     -11.411  15.044  69.179  1.00  0.00    -0.301 C  
HETATM   32  O   UNL     1     -10.184  15.028  69.253  1.00  0.00    -0.234 OA 
BRANCH  31  33
HETATM   33  C   UNL     1     -12.241  16.161  69.825  1.00  0.00     0.156 C  
BRANCH  33  34
HETATM   34  N   UNL     1     -11.954  16.189  71.267  1.00  0.00    -0.601 NA 
HETATM   35  C   UNL     1     -14.298  15.651  71.955  1.00  0.00    -0.486 C  
HETATM   36  C   UNL     1     -12.392  15.608  73.566  1.00  0.00    -0.663 C  
HETATM   37  C   UNL     1     -12.553  13.840  71.811  1.00  0.00    -0.319 C  
HETATM   38  H   UNL     1     -11.990  17.150  71.609  1.00  0.00     0.000 HD 
HETATM   39  C   UNL     1     -12.802  15.327  72.107  1.00  0.00    -0.357 C  
ENDBRANCH  33  34
ENDBRANCH  31  33
ENDBRANCH   8  29
BRANCH  15  40
HETATM   40  N   UNL     1     -11.276  11.925  64.261  1.00  0.00    -0.342 NA 
HETATM   41  C   UNL     1     -12.543  11.721  63.557  1.00  0.00    -0.367 C  
HETATM   42  C   UNL     1     -10.109  11.960  63.380  1.00  0.00    -0.438 C  
ENDBRANCH  15  40
BRANCH  26  43
HETATM   43  C   UNL     1      -7.039   3.180  67.680  1.00  0.00    -0.050 C  
HETATM   44  N   UNL     1      -6.178   2.171  67.932  1.00  0.00    -0.024 N  
HETATM   45  H2  UNL     1      -5.169   2.313  67.875  1.00  0.00     0.000 HD 
HETATM   46  H1  UNL     1      -6.571   1.263  68.180  1.00  0.00     0.000 HD 
HETATM   47  O   UNL     1      -8.250   2.951  67.708  1.00  0.00    -0.077 OA 
ENDBRANCH  26  43
BRANCH  20  48
HETATM   48  N   UNL     1      -8.492   4.881  64.321  1.00  0.00    -0.134 NA 
HETATM   49  C   UNL     1      -8.432   3.421  64.264  1.00  0.00    -0.089 C  
HETATM   50  C   UNL     1      -8.198   5.447  63.007  1.00  0.00    -0.106 C  
ENDBRANCH  20  48
TORSDOF 6
ENDMDL
MODEL       13
REMARK 921   NORMALIZED FREE ENERGY PREDICTED BY IDOCK:   -6.71 KCAL/MOL
REMARK 922        TOTAL FREE ENERGY PREDICTED BY IDOCK:   -9.44 KCAL/MOL
REMARK 923 INTER-LIGAND FREE ENERGY PREDICTED BY IDOCK:   -9.10 KCAL/MOL
REMARK 924 INTRA-LIGAND FREE ENERGY PREDICTED BY IDOCK:   -0.34 KCAL/MOL
REMARK 927      BINDING AFFINITY PREDICTED BY RF-SCORE:    0.00 PKD
ROOT
HETATM    1  C   UNL     1     -10.262   8.169  67.002  1.00  0.00    -0.378 C  
HETATM    2  C   UNL     1      -9.920   9.250  65.990  1.00  0.00    -0.325 C  
HETATM    3  C   UNL     1     -10.181  10.660  66.401  1.00  0.00    -0.291 A  
HETATM    4  C   UNL     1     -10.231  10.950  67.789  1.00  0.00    -0.209 A  
HETATM    5  C   UNL     1      -9.962   9.899  68.822  1.00  0.00    -0.173 C  
HETATM    6  C   UNL     1     -10.510  12.257  68.206  1.00  0.00    -0.226 A  
HETATM    7  O   UNL     1     -10.610  12.627  69.524  1.00  0.00    -0.416 OA 
HETATM    8  C   UNL     1     -10.765  13.243  67.255  1.00  0.00    -0.255 A  
HETATM    9  C   UNL     1      -9.837   8.471  68.398  1.00  0.00    -0.189 C  
HETATM   10  O   UNL     1      -9.866  10.207  70.015  1.00  0.00    -0.228 OA 
HETATM   11  C   UNL     1      -9.465   7.481  69.248  1.00  0.00    -0.154 C  
HETATM   12  H   UNL     1     -10.799  13.514  69.806  1.00  0.00     0.000 HD 
HETATM   13  C   UNL     1     -10.671  12.959  65.889  1.00  0.00    -0.291 A  
HETATM   14  C   UNL     1      -9.527   6.946  66.503  1.00  0.00    -0.199 C  
HETATM   15  C   UNL     1     -10.345  11.671  65.410  1.00  0.00    -0.267 A  
HETATM   16  C   UNL     1      -9.462   5.982  68.867  1.00  0.00    -0.126 C  
HETATM   17  C   UNL     1      -9.725   5.697  67.360  1.00  0.00    -0.138 C  
HETATM   18  H   UNL     1      -6.651   3.363  66.069  1.00  0.00     0.000 HD 
HETATM   19  O   UNL     1      -9.252   7.725  70.600  1.00  0.00    -0.159 OA 
HETATM   20  C   UNL     1      -8.801   4.643  66.645  1.00  0.00    -0.111 C  
HETATM   21  H   UNL     1      -8.991   7.032  71.196  1.00  0.00     0.000 HD 
HETATM   22  C   UNL     1      -8.262   5.128  69.350  1.00  0.00    -0.087 C  
HETATM   23  O   UNL     1     -10.569   5.446  69.638  1.00  0.00    -0.298 OA 
HETATM   24  O   UNL     1      -6.767   3.382  67.012  1.00  0.00    -0.047 OA 
HETATM   25  C   UNL     1      -8.034   3.685  67.526  1.00  0.00    -0.082 C  
HETATM   26  C   UNL     1      -8.197   3.712  68.859  1.00  0.00    -0.077 C  
HETATM   27  O   UNL     1      -7.351   5.537  70.067  1.00  0.00    -0.065 OA 
HETATM   28  H   UNL     1     -10.567   4.526  69.404  1.00  0.00     0.000 HD 
ENDROOT
BRANCH   8  29
HETATM   29  N   UNL     1     -11.046  14.541  67.722  1.00  0.00    -0.275 N  
HETATM   30  H   UNL     1     -12.004  14.750  68.003  1.00  0.00     0.000 HD 
HETATM   31  C   UNL     1     -10.106  15.548  67.824  1.00  0.00    -0.232 C  
HETATM   32  O   UNL     1      -8.914  15.450  67.539  1.00  0.00    -0.178 OA 
BRANCH  31  33
HETATM   33  C   UNL     1     -10.712  16.871  68.308  1.00  0.00    -0.377 C  
BRANCH  33  34
HETATM   34  N   UNL     1     -10.465  17.904  67.290  1.00  0.00    -0.373 NA 
HETATM   35  C   UNL     1     -10.206  19.764  68.942  1.00  0.00    -0.418 C  
HETATM   36  C   UNL     1      -9.604  20.026  66.533  1.00  0.00    -0.539 C  
HETATM   37  C   UNL     1      -8.185  18.590  68.002  1.00  0.00    -0.286 C  
HETATM   38  H   UNL     1     -11.352  18.248  66.922  1.00  0.00     0.000 HD 
HETATM   39  C   UNL     1      -9.627  19.038  67.716  1.00  0.00    -0.311 C  
ENDBRANCH  33  34
ENDBRANCH  31  33
ENDBRANCH   8  29
BRANCH  15  40
HETATM   40  N   UNL     1     -10.169  11.480  64.039  1.00  0.00    -0.311 NA 
HETATM   41  C   UNL     1     -11.267  11.746  63.107  1.00  0.00    -0.133 C  
HETATM   42  C   UNL     1      -9.013  10.831  63.422  1.00  0.00    -0.203 C  
ENDBRANCH  15  40
BRANCH  26  43
HETATM   43  C   UNL     1      -9.178   2.660  69.268  1.00  0.00    -0.135 C  
HETATM   44  N   UNL     1      -9.558   2.626  70.563  1.00  0.00    -0.121 N  
HETATM   45  H2  UNL     1      -9.189   3.295  71.238  1.00  0.00     0.000 HD 
HETATM   46  H1  UNL     1     -10.227   1.908  70.842  1.00  0.00     0.000 HD 
HETATM   47  O   UNL     1      -9.608   1.799  68.497  1.00  0.00    -0.183 OA 
ENDBRANCH  26  43
BRANCH  20  48
HETATM   48  N   UNL     1      -9.560   4.074  65.507  1.00  0.00    -0.177 NA 
HETATM   49  C   UNL     1      -8.940   4.265  64.196  1.00  0.00    -0.148 C  
HETATM   50  C   UNL     1     -10.954   4.507  65.471  1.00  0.00     0.097 C  
ENDBRANCH  20  48
TORSDOF 6
ENDMDL
MODEL       14
REMARK 921   NORMALIZED FREE ENERGY PREDICTED BY IDOCK:   -6.68 KCAL/MOL
REMARK 922        TOTAL FREE ENERGY PREDICTED BY IDOCK:   -9.41 KCAL/MOL
REMARK 923 INTER-LIGAND FREE ENERGY PREDICTED BY IDOCK:   -9.00 KCAL/MOL
REMARK 924 INTRA-LIGAND FREE ENERGY PREDICTED BY IDOCK:   -0.41 KCAL/MOL
REMARK 927      BINDING AFFINITY PREDICTED BY RF-SCORE:    0.00 PKD
ROOT
HETATM    1  C   UNL     1     -10.157   7.944  67.977  1.00  0.00    -0.235 C  
HETATM    2  C   UNL     1      -9.334   8.416  66.790  1.00  0.00    -0.235 C  
HETATM    3  C   UNL     1      -9.496   9.842  66.386  1.00  0.00    -0.234 A  
HETATM    4  C   UNL     1      -9.963  10.762  67.361  1.00  0.00    -0.214 A  
HETATM    5  C   UNL     1     -10.221  10.343  68.776  1.00  0.00    -0.187 C  
HETATM    6  C   UNL     1     -10.160  12.100  67.001  1.00  0.00    -0.204 A  
HETATM    7  O   UNL     1     -10.638  13.054  67.864  1.00  0.00    -0.221 OA 
HETATM    8  C   UNL     1      -9.927  12.501  65.688  1.00  0.00    -0.245 A  
HETATM    9  C   UNL     1     -10.183   8.890  69.127  1.00  0.00    -0.214 C  
HETATM   10  O   UNL     1     -10.485  11.187  69.638  1.00  0.00    -0.118 OA 
HETATM   11  C   UNL     1     -10.275   8.440  70.404  1.00  0.00    -0.197 C  
HETATM   12  H   UNL     1     -10.772  13.962  67.620  1.00  0.00     0.000 HD 
HETATM   13  C   UNL     1      -9.425  11.600  64.743  1.00  0.00    -0.083 A  
HETATM   14  C   UNL     1      -9.495   6.653  68.399  1.00  0.00    -0.125 C  
HETATM   15  C   UNL     1      -9.160  10.249  65.062  1.00  0.00    -0.207 A  
HETATM   16  C   UNL     1     -10.376   6.943  70.779  1.00  0.00    -0.203 C  
HETATM   17  C   UNL     1     -10.159   5.963  69.590  1.00  0.00    -0.260 C  
HETATM   18  H   UNL     1      -7.229   3.381  70.736  1.00  0.00     0.000 HD 
HETATM   19  O   UNL     1     -10.493   9.309  71.468  1.00  0.00    -0.334 OA 
HETATM   20  C   UNL     1      -9.223   4.721  69.830  1.00  0.00    -0.124 C  
HETATM   21  H   UNL     1     -10.557   8.994  72.362  1.00  0.00     0.000 HD 
HETATM   22  C   UNL     1      -9.554   6.458  72.000  1.00  0.00    -0.150 C  
HETATM   23  O   UNL     1     -11.745   6.812  71.240  1.00  0.00    -0.299 OA 
HETATM   24  O   UNL     1      -7.650   3.847  71.450  1.00  0.00    -0.053 OA 
HETATM   25  C   UNL     1      -8.953   4.325  71.263  1.00  0.00    -0.122 C  
HETATM   26  C   UNL     1      -9.548   4.983  72.271  1.00  0.00    -0.184 C  
HETATM   27  O   UNL     1      -8.885   7.186  72.731  1.00  0.00    -0.121 OA 
HETATM   28  H   UNL     1     -11.807   5.893  71.471  1.00  0.00     0.000 HD 
ENDROOT
BRANCH   8  29
HETATM   29  N   UNL     1     -10.144  13.855  65.372  1.00  0.00    -0.457 N  
HETATM   30  H   UNL     1      -9.328  14.457  65.260  1.00  0.00     0.000 HD 
HETATM   31  C   UNL     1     -11.393  14.421  65.204  1.00  0.00    -0.359 C  
HETATM   32  O   UNL     1     -12.467  13.829  65.291  1.00  0.00    -0.437 OA 
BRANCH  31  33
HETATM   33  C   UNL     1     -11.325  15.927  64.923  1.00  0.00    -0.256 C  
BRANCH  33  34
HETATM   34  N   UNL     1     -10.013  16.430  65.358  1.00  0.00    -0.533 NA 
HETATM   35  C   UNL     1     -10.786  18.788  65.665  1.00  0.00    -0.164 C  
HETATM   36  C   UNL     1      -8.568  17.993  66.490  1.00  0.00    -0.280 C  
HETATM   37  C   UNL     1     -10.650  17.215  67.627  1.00  0.00    -0.343 C  
HETATM   38  H   UNL     1      -9.435  16.641  64.544  1.00  0.00     0.000 HD 
HETATM   39  C   UNL     1     -10.039  17.587  66.268  1.00  0.00    -0.336 C  
ENDBRANCH  33  34
ENDBRANCH  31  33
ENDBRANCH   8  29
BRANCH  15  40
HETATM   40  N   UNL     1      -8.566   9.429  64.102  1.00  0.00    -0.190 NA 
HETATM   41  C   UNL     1      -7.278   8.787  64.371  1.00  0.00    -0.094 C  
HETATM   42  C   UNL     1      -9.019   9.288  62.718  1.00  0.00    -0.122 C  
ENDBRANCH  15  40
BRANCH  26  43
HETATM   43  C   UNL     1     -10.758   4.230  72.720  1.00  0.00    -0.137 C  
HETATM   44  N   UNL     1     -11.729   4.922  73.354  1.00  0.00    -0.435 N  
HETATM   45  H2  UNL     1     -11.638   5.924  73.520  1.00  0.00     0.000 HD 
HETATM   46  H1  UNL     1     -12.555   4.408  73.661  1.00  0.00     0.000 HD 
HETATM   47  O   UNL     1     -10.885   3.011  72.588  1.00  0.00    -0.042 OA 
ENDBRANCH  26  43
BRANCH  20  48
HETATM   48  N   UNL     1      -9.634   3.655  68.886  1.00  0.00    -0.141 NA 
HETATM   49  C   UNL     1      -9.592   2.299  69.431  1.00  0.00     0.037 C  
HETATM   50  C   UNL     1      -8.922   3.708  67.612  1.00  0.00    -0.139 C  
ENDBRANCH  20  48
TORSDOF 6
ENDMDL
MODEL       15
REMARK 921   NORMALIZED FREE ENERGY PREDICTED BY IDOCK:   -6.67 KCAL/MOL
REMARK 922        TOTAL FREE ENERGY PREDICTED BY IDOCK:   -9.39 KCAL/MOL
REMARK 923 INTER-LIGAND FREE ENERGY PREDICTED BY IDOCK:   -8.31 KCAL/MOL
REMARK 924 INTRA-LIGAND FREE ENERGY PREDICTED BY IDOCK:   -1.09 KCAL/MOL
REMARK 927      BINDING AFFINITY PREDICTED BY RF-SCORE:    0.00 PKD
ROOT
HETATM    1  C   UNL     1      -9.441   8.551  66.678  1.00  0.00    -0.268 C  
HETATM    2  C   UNL     1      -9.533   9.583  65.566  1.00  0.00    -0.334 C  
HETATM    3  C   UNL     1      -9.617  11.012  65.982  1.00  0.00    -0.249 A  
HETATM    4  C   UNL     1      -9.116  11.364  67.263  1.00  0.00    -0.162 A  
HETATM    5  C   UNL     1      -8.455  10.355  68.152  1.00  0.00    -0.121 C  
HETATM    6  C   UNL     1      -9.214  12.690  67.696  1.00  0.00    -0.191 A  
HETATM    7  O   UNL     1      -8.787  13.119  68.928  1.00  0.00    -0.374 OA 
HETATM    8  C   UNL     1      -9.828  13.638  66.880  1.00  0.00    -0.261 A  
HETATM    9  C   UNL     1      -8.502   8.908  67.777  1.00  0.00    -0.125 C  
HETATM   10  O   UNL     1      -7.898  10.712  69.195  1.00  0.00    -0.125 OA 
HETATM   11  C   UNL     1      -7.819   7.951  68.455  1.00  0.00    -0.120 C  
HETATM   12  H   UNL     1      -8.853  14.020  69.222  1.00  0.00     0.000 HD 
HETATM   13  C   UNL     1     -10.281  13.294  65.602  1.00  0.00    -0.295 A  
HETATM   14  C   UNL     1      -8.958   7.299  65.985  1.00  0.00    -0.149 C  
HETATM   15  C   UNL     1     -10.165  11.981  65.092  1.00  0.00    -0.276 A  
HETATM   16  C   UNL     1      -7.959   6.437  68.172  1.00  0.00    -0.109 C  
HETATM   17  C   UNL     1      -8.795   6.091  66.906  1.00  0.00    -0.116 C  
HETATM   18  H   UNL     1      -6.470   3.662  64.612  1.00  0.00     0.000 HD 
HETATM   19  O   UNL     1      -7.090   8.251  69.600  1.00  0.00    -0.054 OA 
HETATM   20  C   UNL     1      -8.223   4.994  65.933  1.00  0.00    -0.114 C  
HETATM   21  H   UNL     1      -6.612   7.581  70.075  1.00  0.00     0.000 HD 
HETATM   22  C   UNL     1      -6.662   5.589  68.180  1.00  0.00    -0.054 C  
HETATM   23  O   UNL     1      -8.669   5.950  69.340  1.00  0.00    -0.115 OA 
HETATM   24  O   UNL     1      -6.203   3.723  65.523  1.00  0.00    -0.029 OA 
HETATM   25  C   UNL     1      -7.165   4.065  66.481  1.00  0.00    -0.068 C  
HETATM   26  C   UNL     1      -6.790   4.152  67.768  1.00  0.00    -0.051 C  
HETATM   27  O   UNL     1      -5.544   6.016  68.459  1.00  0.00    -0.010 OA 
HETATM   28  H   UNL     1      -8.755   5.020  69.167  1.00  0.00     0.000 HD 
ENDROOT
BRANCH   8  29
HETATM   29  N   UNL     1      -9.909  14.958  67.361  1.00  0.00    -0.221 N  
HETATM   30  H   UNL     1      -9.125  15.583  67.173  1.00  0.00     0.000 HD 
HETATM   31  C   UNL     1     -10.983  15.460  68.070  1.00  0.00    -0.307 C  
HETATM   32  O   UNL     1     -12.003  14.841  68.364  1.00  0.00    -0.303 OA 
BRANCH  31  33
HETATM   33  C   UNL     1     -10.767  16.913  68.514  1.00  0.00    -0.359 C  
BRANCH  33  34
HETATM   34  N   UNL     1     -10.829  17.783  67.330  1.00  0.00    -0.266 NA 
HETATM   35  C   UNL     1     -10.183  19.859  68.565  1.00  0.00    -0.529 C  
HETATM   36  C   UNL     1     -10.257  19.759  66.072  1.00  0.00    -0.600 C  
HETATM   37  C   UNL     1      -8.460  18.532  67.295  1.00  0.00    -0.264 C  
HETATM   38  H   UNL     1     -11.791  18.082  67.169  1.00  0.00     0.000 HD 
HETATM   39  C   UNL     1      -9.936  18.954  67.347  1.00  0.00    -0.338 C  
ENDBRANCH  33  34
ENDBRANCH  31  33
ENDBRANCH   8  29
BRANCH  15  40
HETATM   40  N   UNL     1     -10.543  11.729  63.773  1.00  0.00    -0.370 NA 
HETATM   41  C   UNL     1      -9.531  11.441  62.754  1.00  0.00    -0.281 C  
HETATM   42  C   UNL     1     -11.889  11.918  63.233  1.00  0.00    -0.318 C  
ENDBRANCH  15  40
BRANCH  26  43
HETATM   43  C   UNL     1      -7.523   3.132  68.577  1.00  0.00    -0.049 C  
HETATM   44  N   UNL     1      -6.868   1.997  68.901  1.00  0.00    -0.033 N  
HETATM   45  H2  UNL     1      -5.905   1.841  68.602  1.00  0.00     0.000 HD 
HETATM   46  H1  UNL     1      -7.369   1.301  69.453  1.00  0.00     0.000 HD 
HETATM   47  O   UNL     1      -8.703   3.255  68.913  1.00  0.00    -0.081 OA 
ENDBRANCH  26  43
BRANCH  20  48
HETATM   48  N   UNL     1      -9.367   4.387  65.213  1.00  0.00    -0.156 NA 
HETATM   49  C   UNL     1      -9.651   2.997  65.568  1.00  0.00     0.028 C  
HETATM   50  C   UNL     1      -9.276   4.527  63.763  1.00  0.00    -0.087 C  
ENDBRANCH  20  48
TORSDOF 6
ENDMDL
MODEL       16
REMARK 921   NORMALIZED FREE ENERGY PREDICTED BY IDOCK:   -6.54 KCAL/MOL
REMARK 922        TOTAL FREE ENERGY PREDICTED BY IDOCK:   -9.21 KCAL/MOL
REMARK 923 INTER-LIGAND FREE ENERGY PREDICTED BY IDOCK:   -8.94 KCAL/MOL
REMARK 924 INTRA-LIGAND FREE ENERGY PREDICTED BY IDOCK:   -0.26 KCAL/MOL
REMARK 927      BINDING AFFINITY PREDICTED BY RF-SCORE:    0.00 PKD
ROOT
HETATM    1  C   UNL     1     -10.194  15.038  68.339  1.00  0.00    -0.228 C  
HETATM    2  C   UNL     1     -10.914  14.387  69.508  1.00  0.00    -0.230 C  
HETATM    3  C   UNL     1     -10.982  12.897  69.509  1.00  0.00     0.048 A  
HETATM    4  C   UNL     1     -10.003  12.185  68.768  1.00  0.00    -0.066 A  
HETATM    5  C   UNL     1      -8.887  12.891  68.061  1.00  0.00    -0.195 C  
HETATM    6  C   UNL     1     -10.063  10.788  68.720  1.00  0.00    -0.191 A  
HETATM    7  O   UNL     1      -9.181  10.016  68.006  1.00  0.00    -0.134 OA 
HETATM    8  C   UNL     1     -11.097  10.120  69.371  1.00  0.00    -0.243 A  
HETATM    9  C   UNL     1      -8.912  14.383  67.959  1.00  0.00    -0.183 C  
HETATM   10  O   UNL     1      -7.967  12.245  67.547  1.00  0.00    -0.145 OA 
HETATM   11  C   UNL     1      -7.879  15.102  67.453  1.00  0.00    -0.198 C  
HETATM   12  H   UNL     1      -9.222   9.067  67.974  1.00  0.00     0.000 HD 
HETATM   13  C   UNL     1     -12.034  10.825  70.135  1.00  0.00    -0.432 A  
HETATM   14  C   UNL     1      -9.922  16.448  68.807  1.00  0.00    -0.246 C  
HETATM   15  C   UNL     1     -11.994  12.232  70.260  1.00  0.00    -0.290 A  
HETATM   16  C   UNL     1      -7.937  16.629  67.211  1.00  0.00    -0.167 C  
HETATM   17  C   UNL     1      -9.204  17.326  67.783  1.00  0.00    -0.239 C  
HETATM   18  H   UNL     1      -7.888  20.369  70.144  1.00  0.00     0.000 HD 
HETATM   19  O   UNL     1      -6.754  14.484  66.919  1.00  0.00    -0.254 OA 
HETATM   20  C   UNL     1      -9.003  18.674  68.571  1.00  0.00    -0.334 C  
HETATM   21  H   UNL     1      -6.030  14.988  66.565  1.00  0.00     0.000 HD 
HETATM   22  C   UNL     1      -6.681  17.456  67.587  1.00  0.00    -0.154 C  
HETATM   23  O   UNL     1      -7.967  16.730  65.765  1.00  0.00    -0.305 OA 
HETATM   24  O   UNL     1      -7.247  20.041  69.523  1.00  0.00    -0.225 OA 
HETATM   25  C   UNL     1      -7.702  19.412  68.358  1.00  0.00    -0.328 C  
HETATM   26  C   UNL     1      -6.796  18.948  67.481  1.00  0.00    -0.211 C  
HETATM   27  O   UNL     1      -5.624  16.983  67.998  1.00  0.00    -0.115 OA 
HETATM   28  H   UNL     1      -8.002  17.668  65.616  1.00  0.00     0.000 HD 
ENDROOT
BRANCH   8  29
HETATM   29  N   UNL     1     -11.119   8.715  69.290  1.00  0.00    -0.430 N  
HETATM   30  H   UNL     1     -11.834   8.282  68.705  1.00  0.00     0.000 HD 
HETATM   31  C   UNL     1     -10.234   7.887  69.952  1.00  0.00    -0.210 C  
HETATM   32  O   UNL     1      -9.313   8.254  70.679  1.00  0.00    -0.151 OA 
BRANCH  31  33
HETATM   33  C   UNL     1     -10.534   6.401  69.722  1.00  0.00    -0.215 C  
BRANCH  33  34
HETATM   34  N   UNL     1      -9.331   5.754  69.176  1.00  0.00    -0.122 NA 
HETATM   35  C   UNL     1      -8.337   5.245  71.414  1.00  0.00    -0.121 C  
HETATM   36  C   UNL     1      -7.434   4.271  69.300  1.00  0.00    -0.055 C  
HETATM   37  C   UNL     1      -9.645   3.494  70.161  1.00  0.00    -0.225 C  
HETATM   38  H   UNL     1      -8.635   6.461  68.939  1.00  0.00     0.000 HD 
HETATM   39  C   UNL     1      -8.722   4.715  70.023  1.00  0.00    -0.081 C  
ENDBRANCH  33  34
ENDBRANCH  31  33
ENDBRANCH   8  29
BRANCH  15  40
HETATM   40  N   UNL     1     -12.896  12.863  71.118  1.00  0.00    -0.294 NA 
HETATM   41  C   UNL     1     -13.532  12.115  72.205  1.00  0.00    -0.278 C  
HETATM   42  C   UNL     1     -13.445  14.204  70.923  1.00  0.00    -0.090 C  
ENDBRANCH  15  40
BRANCH  26  43
HETATM   43  C   UNL     1      -6.943  19.665  66.178  1.00  0.00    -0.250 C  
HETATM   44  N   UNL     1      -7.315  20.963  66.214  1.00  0.00    -0.509 N  
HETATM   45  H2  UNL     1      -7.490  21.437  67.100  1.00  0.00     0.000 HD 
HETATM   46  H1  UNL     1      -7.416  21.452  65.325  1.00  0.00     0.000 HD 
HETATM   47  O   UNL     1      -6.795  19.118  65.084  1.00  0.00    -0.461 OA 
ENDBRANCH  26  43
BRANCH  20  48
HETATM   48  N   UNL     1     -10.260  19.450  68.468  1.00  0.00    -0.422 NA 
HETATM   49  C   UNL     1     -10.582  19.927  67.123  1.00  0.00    -0.396 C  
HETATM   50  C   UNL     1     -10.337  20.552  69.423  1.00  0.00     0.431 C  
ENDBRANCH  20  48
TORSDOF 6
ENDMDL
MODEL       17
REMARK 921   NORMALIZED FREE ENERGY PREDICTED BY IDOCK:   -6.52 KCAL/MOL
REMARK 922        TOTAL FREE ENERGY PREDICTED BY IDOCK:   -9.19 KCAL/MOL
REMARK 923 INTER-LIGAND FREE ENERGY PREDICTED BY IDOCK:   -8.47 KCAL/MOL
REMARK 924 INTRA-LIGAND FREE ENERGY PREDICTED BY IDOCK:   -0.72 KCAL/MOL
REMARK 927      BINDING AFFINITY PREDICTED BY RF-SCORE:    0.00 PKD
ROOT
HETATM    1  C   UNL     1      -9.113   7.772  68.137  1.00  0.00    -0.129 C  
HETATM    2  C   UNL     1     -10.284   8.308  68.944  1.00  0.00    -0.222 C  
HETATM    3  C   UNL     1     -10.649   9.738  68.729  1.00  0.00    -0.244 A  
HETATM    4  C   UNL     1     -10.270  10.345  67.504  1.00  0.00    -0.251 A  
HETATM    5  C   UNL     1      -9.587   9.568  66.420  1.00  0.00    -0.213 C  
HETATM    6  C   UNL     1     -10.566  11.696  67.288  1.00  0.00    -0.228 A  
HETATM    7  O   UNL     1     -10.212  12.377  66.151  1.00  0.00    -0.233 OA 
HETATM    8  C   UNL     1     -11.198  12.430  68.289  1.00  0.00    -0.263 A  
HETATM    9  C   UNL     1      -9.110   8.179  66.705  1.00  0.00    -0.202 C  
HETATM   10  O   UNL     1      -9.399  10.078  65.311  1.00  0.00    -0.198 OA 
HETATM   11  C   UNL     1      -8.604   7.365  65.745  1.00  0.00    -0.136 C  
HETATM   12  H   UNL     1     -10.413  13.294  66.005  1.00  0.00     0.000 HD 
HETATM   13  C   UNL     1     -11.608  11.815  69.477  1.00  0.00    -0.398 A  
HETATM   14  C   UNL     1      -9.247   6.271  68.237  1.00  0.00    -0.111 C  
HETATM   15  C   UNL     1     -11.380  10.443  69.729  1.00  0.00    -0.289 A  
HETATM   16  C   UNL     1      -7.980   5.980  66.039  1.00  0.00    -0.109 C  
HETATM   17  C   UNL     1      -8.158   5.490  67.504  1.00  0.00    -0.101 C  
HETATM   18  H   UNL     1      -9.850   1.794  67.291  1.00  0.00     0.000 HD 
HETATM   19  O   UNL     1      -8.420   7.806  64.439  1.00  0.00    -0.364 OA 
HETATM   20  C   UNL     1      -8.603   3.995  67.724  1.00  0.00    -0.097 C  
HETATM   21  H   UNL     1      -8.066   7.236  63.766  1.00  0.00     0.000 HD 
HETATM   22  C   UNL     1      -8.323   4.825  65.065  1.00  0.00    -0.132 C  
HETATM   23  O   UNL     1      -6.567   6.199  65.793  1.00  0.00    -0.045 OA 
HETATM   24  O   UNL     1      -9.437   2.089  66.487  1.00  0.00     0.058 OA 
HETATM   25  C   UNL     1      -8.412   3.040  66.569  1.00  0.00    -0.106 C  
HETATM   26  C   UNL     1      -7.829   3.457  65.434  1.00  0.00    -0.082 C  
HETATM   27  O   UNL     1      -8.996   4.943  64.042  1.00  0.00    -0.127 OA 
HETATM   28  H   UNL     1      -6.184   5.349  65.973  1.00  0.00     0.000 HD 
ENDROOT
BRANCH   8  29
HETATM   29  N   UNL     1     -11.470  13.786  68.029  1.00  0.00    -0.291 N  
HETATM   30  H   UNL     1     -12.367  14.020  67.605  1.00  0.00     0.000 HD 
HETATM   31  C   UNL     1     -10.599  14.820  68.314  1.00  0.00    -0.241 C  
HETATM   32  O   UNL     1      -9.492  14.703  68.835  1.00  0.00    -0.207 OA 
BRANCH  31  33
HETATM   33  C   UNL     1     -11.139  16.184  67.868  1.00  0.00    -0.293 C  
BRANCH  33  34
HETATM   34  N   UNL     1     -10.420  17.238  68.600  1.00  0.00    -0.354 NA 
HETATM   35  C   UNL     1      -8.747  17.645  66.786  1.00  0.00    -0.277 C  
HETATM   36  C   UNL     1      -8.992  19.176  68.743  1.00  0.00    -0.388 C  
HETATM   37  C   UNL     1     -10.784  19.110  67.006  1.00  0.00    -0.542 C  
HETATM   38  H   UNL     1      -9.745  16.819  69.238  1.00  0.00     0.000 HD 
HETATM   39  C   UNL     1      -9.758  18.258  67.769  1.00  0.00    -0.297 C  
ENDBRANCH  33  34
ENDBRANCH  31  33
ENDBRANCH   8  29
BRANCH  15  40
HETATM   40  N   UNL     1     -11.904   9.870  70.888  1.00  0.00    -0.329 NA 
HETATM   41  C   UNL     1     -11.041   9.103  71.790  1.00  0.00    -0.367 C  
HETATM   42  C   UNL     1     -13.326   9.786  71.217  1.00  0.00    -0.339 C  
ENDBRANCH  15  40
BRANCH  26  43
HETATM   43  C   UNL     1      -6.381   3.088  65.446  1.00  0.00    -0.031 C  
HETATM   44  N   UNL     1      -5.998   2.028  64.703  1.00  0.00    -0.017 N  
HETATM   45  H2  UNL     1      -6.674   1.498  64.153  1.00  0.00     0.000 HD 
HETATM   46  H1  UNL     1      -5.009   1.775  64.711  1.00  0.00     0.000 HD 
HETATM   47  O   UNL     1      -5.540   3.666  66.137  1.00  0.00    -0.016 OA 
ENDBRANCH  26  43
BRANCH  20  48
HETATM   48  N   UNL     1      -8.117   3.571  69.058  1.00  0.00    -0.060 NA 
HETATM   49  C   UNL     1      -7.056   2.564  69.035  1.00  0.00    -0.044 C  
HETATM   50  C   UNL     1      -9.190   3.151  69.955  1.00  0.00    -0.152 C  
ENDBRANCH  20  48
TORSDOF 6
ENDMDL
MODEL       18
REMARK 921   NORMALIZED FREE ENERGY PREDICTED BY IDOCK:   -6.47 KCAL/MOL
REMARK 922        TOTAL FREE ENERGY PREDICTED BY IDOCK:   -9.12 KCAL/MOL
REMARK 923 INTER-LIGAND FREE ENERGY PREDICTED BY IDOCK:   -8.63 KCAL/MOL
REMARK 924 INTRA-LIGAND FREE ENERGY PREDICTED BY IDOCK:   -0.50 KCAL/MOL
REMARK 927      BINDING AFFINITY PREDICTED BY RF-SCORE:    0.00 PKD
ROOT
HETATM    1  C   UNL     1      -9.403   8.938  69.824  1.00  0.00    -0.169 C  
HETATM    2  C   UNL     1     -10.724   9.634  70.109  1.00  0.00    -0.321 C  
HETATM    3  C   UNL     1     -10.922  10.977  69.492  1.00  0.00    -0.297 A  
HETATM    4  C   UNL     1     -10.166  11.296  68.334  1.00  0.00    -0.205 A  
HETATM    5  C   UNL     1      -9.247  10.299  67.697  1.00  0.00    -0.144 C  
HETATM    6  C   UNL     1     -10.304  12.562  67.753  1.00  0.00    -0.222 A  
HETATM    7  O   UNL     1      -9.593  12.972  66.653  1.00  0.00    -0.247 OA 
HETATM    8  C   UNL     1     -11.154  13.498  68.337  1.00  0.00    -0.271 A  
HETATM    9  C   UNL     1      -8.959   9.013  68.404  1.00  0.00    -0.133 C  
HETATM   10  O   UNL     1      -8.713  10.548  66.611  1.00  0.00    -0.131 OA 
HETATM   11  C   UNL     1      -8.246   8.007  67.838  1.00  0.00    -0.129 C  
HETATM   12  H   UNL     1      -9.687  13.831  66.259  1.00  0.00     0.000 HD 
HETATM   13  C   UNL     1     -11.928  13.163  69.453  1.00  0.00    -0.347 A  
HETATM   14  C   UNL     1      -9.652   7.497  70.201  1.00  0.00    -0.168 C  
HETATM   15  C   UNL     1     -11.868  11.885  70.052  1.00  0.00    -0.328 A  
HETATM   16  C   UNL     1      -7.821   6.727  68.596  1.00  0.00    -0.118 C  
HETATM   17  C   UNL     1      -8.447   6.578  70.012  1.00  0.00    -0.135 C  
HETATM   18  H   UNL     1     -10.226   2.918  70.110  1.00  0.00     0.000 HD 
HETATM   19  O   UNL     1      -7.664   8.144  66.583  1.00  0.00    -0.091 OA 
HETATM   20  C   UNL     1      -9.026   5.168  70.408  1.00  0.00    -0.126 C  
HETATM   21  H   UNL     1      -7.165   7.440  66.186  1.00  0.00     0.000 HD 
HETATM   22  C   UNL     1      -7.935   5.381  67.838  1.00  0.00    -0.096 C  
HETATM   23  O   UNL     1      -6.387   6.894  68.741  1.00  0.00    -0.026 OA 
HETATM   24  O   UNL     1      -9.580   3.028  69.422  1.00  0.00    -0.140 OA 
HETATM   25  C   UNL     1      -8.567   3.979  69.597  1.00  0.00    -0.068 C  
HETATM   26  C   UNL     1      -7.655   4.134  68.625  1.00  0.00    -0.059 C  
HETATM   27  O   UNL     1      -8.273   5.262  66.662  1.00  0.00    -0.108 OA 
HETATM   28  H   UNL     1      -6.125   6.108  69.206  1.00  0.00     0.000 HD 
ENDROOT
BRANCH   8  29
HETATM   29  N   UNL     1     -11.255  14.759  67.721  1.00  0.00    -0.300 N  
HETATM   30  H   UNL     1     -11.870  14.848  66.912  1.00  0.00     0.000 HD 
HETATM   31  C   UNL     1     -10.575  15.885  68.144  1.00  0.00    -0.280 C  
HETATM   32  O   UNL     1      -9.813  15.945  69.106  1.00  0.00    -0.217 OA 
BRANCH  31  33
HETATM   33  C   UNL     1     -10.836  17.102  67.247  1.00  0.00    -0.118 C  
BRANCH  33  34
HETATM   34  N   UNL     1      -9.554  17.765  66.967  1.00  0.00    -0.275 NA 
HETATM   35  C   UNL     1     -10.586  19.742  65.835  1.00  0.00    -0.557 C  
HETATM   36  C   UNL     1      -8.177  19.686  66.486  1.00  0.00    -0.350 C  
HETATM   37  C   UNL     1      -9.924  19.852  68.263  1.00  0.00    -0.552 C  
HETATM   38  H   UNL     1      -9.148  17.387  66.110  1.00  0.00     0.000 HD 
HETATM   39  C   UNL     1      -9.594  19.235  66.895  1.00  0.00    -0.331 C  
ENDBRANCH  33  34
ENDBRANCH  31  33
ENDBRANCH   8  29
BRANCH  15  40
HETATM   40  N   UNL     1     -12.740  11.583  71.098  1.00  0.00    -0.391 NA 
HETATM   41  C   UNL     1     -13.311  10.241  71.223  1.00  0.00    -0.284 C  
HETATM   42  C   UNL     1     -13.322  12.561  72.017  1.00  0.00    -0.426 C  
ENDBRANCH  15  40
BRANCH  26  43
HETATM   43  C   UNL     1      -6.298   3.786  69.146  1.00  0.00    -0.029 C  
HETATM   44  N   UNL     1      -5.819   2.553  68.874  1.00  0.00    -0.023 N  
HETATM   45  H2  UNL     1      -6.364   1.884  68.331  1.00  0.00     0.000 HD 
HETATM   46  H1  UNL     1      -4.892   2.315  69.230  1.00  0.00     0.000 HD 
HETATM   47  O   UNL     1      -5.628   4.544  69.850  1.00  0.00    -0.011 OA 
ENDBRANCH  26  43
BRANCH  20  48
HETATM   48  N   UNL     1      -8.976   5.057  71.884  1.00  0.00    -0.132 NA 
HETATM   49  C   UNL     1      -7.931   4.174  72.401  1.00  0.00    -0.087 C  
HETATM   50  C   UNL     1     -10.265   4.714  72.480  1.00  0.00    -0.185 C  
ENDBRANCH  20  48
TORSDOF 6
ENDMDL
MODEL       19
REMARK 921   NORMALIZED FREE ENERGY PREDICTED BY IDOCK:   -6.47 KCAL/MOL
REMARK 922        TOTAL FREE ENERGY PREDICTED BY IDOCK:   -9.12 KCAL/MOL
REMARK 923 INTER-LIGAND FREE ENERGY PREDICTED BY IDOCK:   -8.26 KCAL/MOL
REMARK 924 INTRA-LIGAND FREE ENERGY PREDICTED BY IDOCK:   -0.86 KCAL/MOL
REMARK 927      BINDING AFFINITY PREDICTED BY RF-SCORE:    0.00 PKD
ROOT
HETATM    1  C   UNL     1      -8.918  12.970  67.230  1.00  0.00    -0.212 C  
HETATM    2  C   UNL     1      -8.927  11.938  66.114  1.00  0.00    -0.116 C  
HETATM    3  C   UNL     1      -9.261  10.537  66.498  1.00  0.00    -0.183 A  
HETATM    4  C   UNL     1     -10.012  10.333  67.685  1.00  0.00    -0.212 A  
HETATM    5  C   UNL     1     -10.523  11.482  68.499  1.00  0.00    -0.208 C  
HETATM    6  C   UNL     1     -10.310   9.027  68.091  1.00  0.00    -0.214 A  
HETATM    7  O   UNL     1     -11.002   8.729  69.238  1.00  0.00    -0.404 OA 
HETATM    8  C   UNL     1      -9.839   7.949  67.344  1.00  0.00    -0.181 A  
HETATM    9  C   UNL     1     -10.065  12.868  68.175  1.00  0.00    -0.240 C  
HETATM   10  O   UNL     1     -11.295  11.284  69.442  1.00  0.00    -0.245 OA 
HETATM   11  C   UNL     1     -10.579  13.971  68.776  1.00  0.00    -0.251 C  
HETATM   12  H   UNL     1     -11.205   7.842  69.513  1.00  0.00     0.000 HD 
HETATM   13  C   UNL     1      -9.136   8.158  66.153  1.00  0.00    -0.232 A  
HETATM   14  C   UNL     1      -8.971  14.297  66.511  1.00  0.00    -0.161 C  
HETATM   15  C   UNL     1      -8.849   9.454  65.668  1.00  0.00    -0.174 A  
HETATM   16  C   UNL     1     -10.028  15.400  68.558  1.00  0.00    -0.213 C  
HETATM   17  C   UNL     1      -8.960  15.516  67.433  1.00  0.00    -0.203 C  
HETATM   18  H   UNL     1     -10.255  18.428  64.902  1.00  0.00     0.000 HD 
HETATM   19  O   UNL     1     -11.516  13.872  69.798  1.00  0.00    -0.321 OA 
HETATM   20  C   UNL     1      -9.096  16.712  66.419  1.00  0.00    -0.292 C  
HETATM   21  H   UNL     1     -11.877  14.645  70.219  1.00  0.00     0.000 HD 
HETATM   22  C   UNL     1     -11.061  16.545  68.405  1.00  0.00    -0.333 C  
HETATM   23  O   UNL     1      -9.396  15.704  69.828  1.00  0.00    -0.270 OA 
HETATM   24  O   UNL     1     -10.656  18.443  65.763  1.00  0.00    -0.570 OA 
HETATM   25  C   UNL     1      -9.957  17.880  66.838  1.00  0.00    -0.335 C  
HETATM   26  C   UNL     1     -10.524  17.901  68.055  1.00  0.00    -0.390 C  
HETATM   27  O   UNL     1     -12.279  16.413  68.512  1.00  0.00     0.265 OA 
HETATM   28  H   UNL     1      -9.058  16.582  69.694  1.00  0.00     0.000 HD 
ENDROOT
BRANCH   8  29
HETATM   29  N   UNL     1     -10.159   6.655  67.794  1.00  0.00    -0.139 N  
HETATM   30  H   UNL     1     -11.100   6.306  67.615  1.00  0.00     0.000 HD 
HETATM   31  C   UNL     1      -9.277   5.827  68.463  1.00  0.00    -0.121 C  
HETATM   32  O   UNL     1      -8.111   6.096  68.741  1.00  0.00    -0.103 OA 
BRANCH  31  33
HETATM   33  C   UNL     1      -9.920   4.499  68.882  1.00  0.00    -0.061 C  
BRANCH  33  34
HETATM   34  N   UNL     1      -8.919   3.695  69.599  1.00  0.00    -0.098 NA 
HETATM   35  C   UNL     1      -9.702   1.511  68.667  1.00  0.00    -0.112 C  
HETATM   36  C   UNL     1      -7.554   1.733  69.918  1.00  0.00    -0.042 C  
HETATM   37  C   UNL     1      -7.750   2.721  67.634  1.00  0.00    -0.061 C  
HETATM   38  H   UNL     1      -9.244   3.499  70.545  1.00  0.00     0.000 HD 
HETATM   39  C   UNL     1      -8.510   2.443  68.939  1.00  0.00    -0.066 C  
ENDBRANCH  33  34
ENDBRANCH  31  33
ENDBRANCH   8  29
BRANCH  15  40
HETATM   40  N   UNL     1      -8.234   9.593  64.423  1.00  0.00    -0.146 NA 
HETATM   41  C   UNL     1      -9.035   9.588  63.197  1.00  0.00    -0.194 C  
HETATM   42  C   UNL     1      -6.791   9.548  64.187  1.00  0.00    -0.102 C  
ENDBRANCH  15  40
BRANCH  26  43
HETATM   43  C   UNL     1      -9.684  18.712  68.989  1.00  0.00    -0.259 C  
HETATM   44  N   UNL     1     -10.256  19.783  69.578  1.00  0.00    -0.573 N  
HETATM   45  H2  UNL     1     -11.229  20.029  69.393  1.00  0.00     0.000 HD 
HETATM   46  H1  UNL     1      -9.683  20.337  70.215  1.00  0.00     0.000 HD 
HETATM   47  O   UNL     1      -8.491  18.482  69.200  1.00  0.00    -0.111 OA 
ENDBRANCH  26  43
BRANCH  20  48
HETATM   48  N   UNL     1      -7.745  17.008  65.886  1.00  0.00    -0.362 NA 
HETATM   49  C   UNL     1      -6.638  16.481  66.683  1.00  0.00    -0.036 C  
HETATM   50  C   UNL     1      -7.534  18.426  65.607  1.00  0.00     0.026 C  
ENDBRANCH  20  48
TORSDOF 6
ENDMDL
MODEL       20
REMARK 921   NORMALIZED FREE ENERGY PREDICTED BY IDOCK:   -6.41 KCAL/MOL
REMARK 922        TOTAL FREE ENERGY PREDICTED BY IDOCK:   -9.04 KCAL/MOL
REMARK 923 INTER-LIGAND FREE ENERGY PREDICTED BY IDOCK:   -8.96 KCAL/MOL
REMARK 924 INTRA-LIGAND FREE ENERGY PREDICTED BY IDOCK:   -0.09 KCAL/MOL
REMARK 927      BINDING AFFINITY PREDICTED BY RF-SCORE:    0.00 PKD
ROOT
HETATM    1  C   UNL     1      -9.937  15.068  68.195  1.00  0.00    -0.220 C  
HETATM    2  C   UNL     1     -10.665  14.364  69.327  1.00  0.00    -0.225 C  
HETATM    3  C   UNL     1     -10.692  12.873  69.284  1.00  0.00     0.032 A  
HETATM    4  C   UNL     1      -9.677  12.210  68.548  1.00  0.00    -0.153 A  
HETATM    5  C   UNL     1      -8.564  12.965  67.888  1.00  0.00    -0.185 C  
HETATM    6  C   UNL     1      -9.696  10.814  68.458  1.00  0.00    -0.182 A  
HETATM    7  O   UNL     1      -8.777  10.087  67.744  1.00  0.00    -0.125 OA 
HETATM    8  C   UNL     1     -10.727  10.100  69.065  1.00  0.00    -0.221 A  
HETATM    9  C   UNL     1      -8.628  14.458  67.827  1.00  0.00    -0.171 C  
HETATM   10  O   UNL     1      -7.615  12.360  67.379  1.00  0.00    -0.143 OA 
HETATM   11  C   UNL     1      -7.604  15.220  67.367  1.00  0.00    -0.200 C  
HETATM   12  H   UNL     1      -8.791   9.138  67.684  1.00  0.00     0.000 HD 
HETATM   13  C   UNL     1     -11.700  10.756  69.826  1.00  0.00    -0.399 A  
HETATM   14  C   UNL     1      -9.715  16.471  68.709  1.00  0.00    -0.251 C  
HETATM   15  C   UNL     1     -11.703  12.159  69.992  1.00  0.00    -0.252 A  
HETATM   16  C   UNL     1      -7.698  16.751  67.167  1.00  0.00    -0.181 C  
HETATM   17  C   UNL     1      -8.998  17.397  67.728  1.00  0.00    -0.236 C  
HETATM   18  H   UNL     1      -7.822  20.405  70.204  1.00  0.00     0.000 HD 
HETATM   19  O   UNL     1      -6.450  14.648  66.843  1.00  0.00    -0.179 OA 
HETATM   20  C   UNL     1      -8.852  18.726  68.558  1.00  0.00    -0.345 C  
HETATM   21  H   UNL     1      -5.732  15.181  66.521  1.00  0.00     0.000 HD 
HETATM   22  C   UNL     1      -6.476  17.601  67.597  1.00  0.00    -0.166 C  
HETATM   23  O   UNL     1      -7.698  16.893  65.724  1.00  0.00    -0.272 OA 
HETATM   24  O   UNL     1      -7.157  20.113  69.591  1.00  0.00    -0.180 OA 
HETATM   25  C   UNL     1      -7.568  19.505  68.398  1.00  0.00    -0.330 C  
HETATM   26  C   UNL     1      -6.629  19.092  67.530  1.00  0.00    -0.205 C  
HETATM   27  O   UNL     1      -5.415  17.144  68.019  1.00  0.00    -0.116 OA 
HETATM   28  H   UNL     1      -7.756  17.833  65.601  1.00  0.00     0.000 HD 
ENDROOT
BRANCH   8  29
HETATM   29  N   UNL     1     -10.708   8.698  68.944  1.00  0.00    -0.402 N  
HETATM   30  H   UNL     1     -10.635   8.145  69.798  1.00  0.00     0.000 HD 
HETATM   31  C   UNL     1     -10.783   8.023  67.741  1.00  0.00    -0.104 C  
HETATM   32  O   UNL     1     -10.888   8.542  66.632  1.00  0.00    -0.090 OA 
BRANCH  31  33
HETATM   33  C   UNL     1     -10.681   6.502  67.912  1.00  0.00    -0.287 C  
BRANCH  33  34
HETATM   34  N   UNL     1     -11.063   5.858  66.646  1.00  0.00    -0.724 NA 
HETATM   35  C   UNL     1      -8.728   5.749  65.757  1.00  0.00    -0.152 C  
HETATM   36  C   UNL     1     -10.622   4.530  64.681  1.00  0.00     0.066 C  
HETATM   37  C   UNL     1      -9.764   3.754  66.893  1.00  0.00    -0.147 C  
HETATM   38  H   UNL     1     -11.370   6.564  65.976  1.00  0.00     0.000 HD 
HETATM   39  C   UNL     1     -10.040   4.995  66.031  1.00  0.00    -0.209 C  
ENDBRANCH  33  34
ENDBRANCH  31  33
ENDBRANCH   8  29
BRANCH  15  40
HETATM   40  N   UNL     1     -12.641  12.741  70.845  1.00  0.00    -0.311 NA 
HETATM   41  C   UNL     1     -13.256  11.953  71.916  1.00  0.00    -0.362 C  
HETATM   42  C   UNL     1     -13.247  14.059  70.658  1.00  0.00    -0.017 C  
ENDBRANCH  15  40
BRANCH  26  43
HETATM   43  C   UNL     1      -6.766  19.842  66.245  1.00  0.00    -0.216 C  
HETATM   44  N   UNL     1      -7.380  21.043  66.281  1.00  0.00    -0.470 N  
HETATM   45  H2  UNL     1      -7.739  21.426  67.156  1.00  0.00     0.000 HD 
HETATM   46  H1  UNL     1      -7.473  21.556  65.404  1.00  0.00     0.000 HD 
HETATM   47  O   UNL     1      -6.396  19.395  65.157  1.00  0.00    -0.248 OA 
ENDBRANCH  26  43
BRANCH  20  48
HETATM   48  N   UNL     1     -10.128  19.471  68.446  1.00  0.00    -0.426 NA 
HETATM   49  C   UNL     1     -10.380  20.070  67.136  1.00  0.00    -0.416 C  
HETATM   50  C   UNL     1     -10.307  20.468  69.498  1.00  0.00     0.462 C  
ENDBRANCH  20  48
TORSDOF 6
ENDMDL
MODEL       21
REMARK 921   NORMALIZED FREE ENERGY PREDICTED BY IDOCK:   -6.39 KCAL/MOL
REMARK 922        TOTAL FREE ENERGY PREDICTED BY IDOCK:   -9.01 KCAL/MOL
REMARK 923 INTER-LIGAND FREE ENERGY PREDICTED BY IDOCK:   -8.55 KCAL/MOL
REMARK 924 INTRA-LIGAND FREE ENERGY PREDICTED BY IDOCK:   -0.47 KCAL/MOL
REMARK 927      BINDING AFFINITY PREDICTED BY RF-SCORE:    0.00 PKD
ROOT
HETATM    1  C   UNL     1      -9.740  10.124  67.824  1.00  0.00    -0.176 C  
HETATM    2  C   UNL     1      -9.923  10.559  66.379  1.00  0.00    -0.271 C  
HETATM    3  C   UNL     1      -9.876  12.024  66.108  1.00  0.00    -0.255 A  
HETATM    4  C   UNL     1      -9.192  12.852  67.037  1.00  0.00    -0.226 A  
HETATM    5  C   UNL     1      -8.474  12.278  68.220  1.00  0.00    -0.173 C  
HETATM    6  C   UNL     1      -9.161  14.235  66.829  1.00  0.00    -0.264 A  
HETATM    7  O   UNL     1      -8.553  15.117  67.687  1.00  0.00    -0.160 OA 
HETATM    8  C   UNL     1      -9.827  14.781  65.734  1.00  0.00    -0.342 A  
HETATM    9  C   UNL     1      -8.646  10.829  68.548  1.00  0.00    -0.148 C  
HETATM   10  O   UNL     1      -7.766  12.999  68.930  1.00  0.00    -0.045 OA 
HETATM   11  C   UNL     1      -7.931  10.205  69.518  1.00  0.00    -0.165 C  
HETATM   12  H   UNL     1      -8.532  16.056  67.545  1.00  0.00     0.000 HD 
HETATM   13  C   UNL     1     -10.462  13.957  64.799  1.00  0.00    -0.451 A  
HETATM   14  C   UNL     1      -9.419   8.651  67.732  1.00  0.00    -0.165 C  
HETATM   15  C   UNL     1     -10.483  12.550  64.931  1.00  0.00    -0.303 A  
HETATM   16  C   UNL     1      -8.188   8.747  69.967  1.00  0.00    -0.120 C  
HETATM   17  C   UNL     1      -9.200   7.967  69.080  1.00  0.00    -0.151 C  
HETATM   18  H   UNL     1      -7.330   4.540  67.929  1.00  0.00     0.000 HD 
HETATM   19  O   UNL     1      -7.043  10.902  70.330  1.00  0.00    -0.460 OA 
HETATM   20  C   UNL     1      -8.821   6.498  68.661  1.00  0.00    -0.121 C  
HETATM   21  H   UNL     1      -6.543  10.466  71.009  1.00  0.00     0.000 HD 
HETATM   22  C   UNL     1      -6.948   7.857  70.236  1.00  0.00    -0.049 C  
HETATM   23  O   UNL     1      -8.762   8.908  71.290  1.00  0.00    -0.196 OA 
HETATM   24  O   UNL     1      -6.944   4.970  68.683  1.00  0.00    -0.054 OA 
HETATM   25  C   UNL     1      -7.751   5.802  69.469  1.00  0.00    -0.092 C  
HETATM   26  C   UNL     1      -7.205   6.410  70.534  1.00  0.00    -0.074 C  
HETATM   27  O   UNL     1      -5.782   8.242  70.186  1.00  0.00    -0.022 OA 
HETATM   28  H   UNL     1      -8.919   8.013  71.566  1.00  0.00     0.000 HD 
ENDROOT
BRANCH   8  29
HETATM   29  N   UNL     1      -9.773  16.178  65.569  1.00  0.00    -0.189 N  
HETATM   30  H   UNL     1      -9.161  16.550  64.843  1.00  0.00     0.000 HD 
HETATM   31  C   UNL     1     -10.497  17.077  66.329  1.00  0.00    -0.258 C  
HETATM   32  O   UNL     1     -11.284  16.787  67.227  1.00  0.00    -0.017 OA 
BRANCH  31  33
HETATM   33  C   UNL     1     -10.193  18.535  65.964  1.00  0.00    -0.345 C  
BRANCH  33  34
HETATM   34  N   UNL     1     -10.635  19.400  67.068  1.00  0.00    -0.455 NA 
HETATM   35  C   UNL     1      -8.790  18.720  68.614  1.00  0.00    -0.360 C  
HETATM   36  C   UNL     1     -10.286  20.660  69.094  1.00  0.00     0.342 C  
HETATM   37  C   UNL     1      -8.611  20.830  67.251  1.00  0.00    -0.229 C  
HETATM   38  H   UNL     1     -11.365  18.932  67.605  1.00  0.00     0.000 HD 
HETATM   39  C   UNL     1      -9.575  19.877  67.972  1.00  0.00    -0.370 C  
ENDBRANCH  33  34
ENDBRANCH  31  33
ENDBRANCH   8  29
BRANCH  15  40
HETATM   40  N   UNL     1     -11.045  11.781  63.912  1.00  0.00    -0.380 NA 
HETATM   41  C   UNL     1     -10.207  10.887  63.110  1.00  0.00    -0.194 C  
HETATM   42  C   UNL     1     -12.411  11.920  63.408  1.00  0.00    -0.463 C  
ENDBRANCH  15  40
BRANCH  26  43
HETATM   43  C   UNL     1      -7.879   5.940  71.783  1.00  0.00    -0.103 C  
HETATM   44  N   UNL     1      -7.637   6.624  72.922  1.00  0.00    -0.095 N  
HETATM   45  H2  UNL     1      -7.017   7.433  72.929  1.00  0.00     0.000 HD 
HETATM   46  H1  UNL     1      -8.097   6.303  73.774  1.00  0.00     0.000 HD 
HETATM   47  O   UNL     1      -8.593   4.936  71.831  1.00  0.00    -0.124 OA 
ENDBRANCH  26  43
BRANCH  20  48
HETATM   48  N   UNL     1     -10.081   5.761  68.405  1.00  0.00    -0.157 NA 
HETATM   49  C   UNL     1     -10.547   5.798  67.020  1.00  0.00    -0.300 C  
HETATM   50  C   UNL     1     -11.163   6.140  69.310  1.00  0.00    -0.367 C  
ENDBRANCH  20  48
TORSDOF 6
ENDMDL
MODEL       22
REMARK 921   NORMALIZED FREE ENERGY PREDICTED BY IDOCK:   -6.38 KCAL/MOL
REMARK 922        TOTAL FREE ENERGY PREDICTED BY IDOCK:   -9.00 KCAL/MOL
REMARK 923 INTER-LIGAND FREE ENERGY PREDICTED BY IDOCK:   -8.16 KCAL/MOL
REMARK 924 INTRA-LIGAND FREE ENERGY PREDICTED BY IDOCK:   -0.84 KCAL/MOL
REMARK 927      BINDING AFFINITY PREDICTED BY RF-SCORE:    0.00 PKD
ROOT
HETATM    1  C   UNL     1      -8.852   8.586  69.413  1.00  0.00    -0.141 C  
HETATM    2  C   UNL     1      -7.845   9.670  69.068  1.00  0.00    -0.079 C  
HETATM    3  C   UNL     1      -8.392  10.949  68.533  1.00  0.00    -0.142 A  
HETATM    4  C   UNL     1      -9.739  11.277  68.839  1.00  0.00    -0.141 A  
HETATM    5  C   UNL     1     -10.575  10.410  69.729  1.00  0.00    -0.258 C  
HETATM    6  C   UNL     1     -10.292  12.453  68.321  1.00  0.00    -0.227 A  
HETATM    7  O   UNL     1     -11.592  12.838  68.535  1.00  0.00    -0.277 OA 
HETATM    8  C   UNL     1      -9.525  13.267  67.490  1.00  0.00    -0.220 A  
HETATM    9  C   UNL     1     -10.057   9.070  70.143  1.00  0.00    -0.220 C  
HETATM   10  O   UNL     1     -11.692  10.789  70.099  1.00  0.00    -0.280 OA 
HETATM   11  C   UNL     1     -10.691   8.285  71.050  1.00  0.00    -0.218 C  
HETATM   12  H   UNL     1     -11.967  13.637  68.184  1.00  0.00     0.000 HD 
HETATM   13  C   UNL     1      -8.186  12.961  67.228  1.00  0.00    -0.176 A  
HETATM   14  C   UNL     1      -8.082   7.625  70.288  1.00  0.00    -0.114 C  
HETATM   15  C   UNL     1      -7.560  11.813  67.763  1.00  0.00    -0.127 A  
HETATM   16  C   UNL     1     -10.248   6.842  71.390  1.00  0.00    -0.198 C  
HETATM   17  C   UNL     1      -8.889   6.418  70.763  1.00  0.00    -0.144 C  
HETATM   18  H   UNL     1      -6.569   5.081  73.828  1.00  0.00     0.000 HD 
HETATM   19  O   UNL     1     -11.918   8.647  71.594  1.00  0.00    -0.290 OA 
HETATM   20  C   UNL     1      -7.863   5.665  71.690  1.00  0.00    -0.109 C  
HETATM   21  H   UNL     1     -12.362   8.096  72.229  1.00  0.00     0.000 HD 
HETATM   22  C   UNL     1     -10.281   6.421  72.881  1.00  0.00    -0.191 C  
HETATM   23  O   UNL     1     -11.299   6.030  70.804  1.00  0.00    -0.301 OA 
HETATM   24  O   UNL     1      -7.500   5.108  74.017  1.00  0.00    -0.085 OA 
HETATM   25  C   UNL     1      -8.403   5.032  72.950  1.00  0.00    -0.108 C  
HETATM   26  C   UNL     1      -9.719   5.071  73.217  1.00  0.00    -0.161 C  
HETATM   27  O   UNL     1     -10.694   7.124  73.801  1.00  0.00    -0.361 OA 
HETATM   28  H   UNL     1     -11.027   5.144  71.013  1.00  0.00     0.000 HD 
ENDROOT
BRANCH   8  29
HETATM   29  N   UNL     1     -10.126  14.437  66.988  1.00  0.00    -0.253 N  
HETATM   30  H   UNL     1     -10.674  14.363  66.131  1.00  0.00     0.000 HD 
HETATM   31  C   UNL     1     -10.021  15.679  67.584  1.00  0.00    -0.237 C  
HETATM   32  O   UNL     1      -9.411  15.928  68.622  1.00  0.00    -0.198 OA 
BRANCH  31  33
HETATM   33  C   UNL     1     -10.730  16.778  66.784  1.00  0.00    -0.117 C  
BRANCH  33  34
HETATM   34  N   UNL     1     -10.738  18.013  67.582  1.00  0.00    -0.398 NA 
HETATM   35  C   UNL     1      -8.631  18.918  66.585  1.00  0.00    -0.312 C  
HETATM   36  C   UNL     1     -10.134  20.307  68.014  1.00  0.00    -0.451 C  
HETATM   37  C   UNL     1     -10.879  19.655  65.722  1.00  0.00    -0.405 C  
HETATM   38  H   UNL     1     -10.324  17.837  68.497  1.00  0.00     0.000 HD 
HETATM   39  C   UNL     1     -10.099  19.184  66.958  1.00  0.00    -0.366 C  
ENDBRANCH  33  34
ENDBRANCH  31  33
ENDBRANCH   8  29
BRANCH  15  40
HETATM   40  N   UNL     1      -6.195  11.620  67.545  1.00  0.00    -0.072 NA 
HETATM   41  C   UNL     1      -5.732  10.817  66.412  1.00  0.00    -0.097 C  
HETATM   42  C   UNL     1      -5.133  11.991  68.480  1.00  0.00    -0.046 C  
ENDBRANCH  15  40
BRANCH  26  43
HETATM   43  C   UNL     1     -10.359   3.791  72.788  1.00  0.00    -0.162 C  
HETATM   44  N   UNL     1     -11.256   3.226  73.623  1.00  0.00    -0.222 N  
HETATM   45  H2  UNL     1     -11.489   3.660  74.517  1.00  0.00     0.000 HD 
HETATM   46  H1  UNL     1     -11.693   2.352  73.330  1.00  0.00     0.000 HD 
HETATM   47  O   UNL     1     -10.067   3.205  71.743  1.00  0.00    -0.151 OA 
ENDBRANCH  26  43
BRANCH  20  48
HETATM   48  N   UNL     1      -6.993   4.837  70.821  1.00  0.00    -0.036 NA 
HETATM   49  C   UNL     1      -7.650   4.286  69.636  1.00  0.00    -0.054 C  
HETATM   50  C   UNL     1      -6.294   3.780  71.546  1.00  0.00    -0.015 C  
ENDBRANCH  20  48
TORSDOF 6
ENDMDL
MODEL       23
REMARK 921   NORMALIZED FREE ENERGY PREDICTED BY IDOCK:   -6.32 KCAL/MOL
REMARK 922        TOTAL FREE ENERGY PREDICTED BY IDOCK:   -8.92 KCAL/MOL
REMARK 923 INTER-LIGAND FREE ENERGY PREDICTED BY IDOCK:   -8.29 KCAL/MOL
REMARK 924 INTRA-LIGAND FREE ENERGY PREDICTED BY IDOCK:   -0.63 KCAL/MOL
REMARK 927      BINDING AFFINITY PREDICTED BY RF-SCORE:    0.00 PKD
ROOT
HETATM    1  C   UNL     1     -11.420  10.512  69.260  1.00  0.00    -0.323 C  
HETATM    2  C   UNL     1     -11.385   9.306  70.184  1.00  0.00    -0.193 C  
HETATM    3  C   UNL     1     -10.841   8.040  69.614  1.00  0.00    -0.172 A  
HETATM    4  C   UNL     1      -9.961   8.133  68.504  1.00  0.00    -0.204 A  
HETATM    5  C   UNL     1      -9.527   9.458  67.955  1.00  0.00    -0.133 C  
HETATM    6  C   UNL     1      -9.462   6.961  67.925  1.00  0.00    -0.120 A  
HETATM    7  O   UNL     1      -8.633   6.950  66.832  1.00  0.00    -0.113 OA 
HETATM    8  C   UNL     1      -9.860   5.723  68.425  1.00  0.00    -0.140 A  
HETATM    9  C   UNL     1     -10.186  10.706  68.449  1.00  0.00    -0.191 C  
HETATM   10  O   UNL     1      -8.650   9.516  67.087  1.00  0.00    -0.130 OA 
HETATM   11  C   UNL     1      -9.762  11.947  68.102  1.00  0.00    -0.194 C  
HETATM   12  H   UNL     1      -8.294   6.154  66.439  1.00  0.00     0.000 HD 
HETATM   13  C   UNL     1     -10.693   5.639  69.546  1.00  0.00    -0.380 A  
HETATM   14  C   UNL     1     -11.605  11.688  70.190  1.00  0.00    -0.303 C  
HETATM   15  C   UNL     1     -11.187   6.788  70.202  1.00  0.00    -0.335 A  
HETATM   16  C   UNL     1     -10.509  13.246  68.489  1.00  0.00    -0.250 C  
HETATM   17  C   UNL     1     -11.685  13.042  69.487  1.00  0.00    -0.381 C  
HETATM   18  H   UNL     1     -11.016  15.582  72.596  1.00  0.00     0.000 HD 
HETATM   19  O   UNL     1      -8.729  12.135  67.192  1.00  0.00    -0.176 OA 
HETATM   20  C   UNL     1     -11.799  14.047  70.694  1.00  0.00    -0.239 C  
HETATM   21  H   UNL     1      -8.432  13.005  66.948  1.00  0.00     0.000 HD 
HETATM   22  C   UNL     1      -9.650  14.451  68.946  1.00  0.00    -0.123 C  
HETATM   23  O   UNL     1     -11.053  13.700  67.223  1.00  0.00    -0.283 OA 
HETATM   24  O   UNL     1     -10.541  15.794  71.801  1.00  0.00     0.436 OA 
HETATM   25  C   UNL     1     -11.058  15.358  70.575  1.00  0.00    -0.335 C  
HETATM   26  C   UNL     1     -10.386  15.657  69.451  1.00  0.00    -0.260 C  
HETATM   27  O   UNL     1      -8.421  14.474  68.959  1.00  0.00    -0.135 OA 
HETATM   28  H   UNL     1     -11.511  14.498  67.460  1.00  0.00     0.000 HD 
ENDROOT
BRANCH   8  29
HETATM   29  N   UNL     1      -9.337   4.572  67.806  1.00  0.00    -0.138 N  
HETATM   30  H   UNL     1      -8.568   4.089  68.270  1.00  0.00     0.000 HD 
HETATM   31  C   UNL     1      -9.800   4.056  66.612  1.00  0.00    -0.143 C  
HETATM   32  O   UNL     1     -10.724   4.513  65.942  1.00  0.00    -0.267 OA 
BRANCH  31  33
HETATM   33  C   UNL     1      -9.002   2.830  66.151  1.00  0.00    -0.142 C  
BRANCH  33  34
HETATM   34  N   UNL     1      -9.436   2.466  64.794  1.00  0.00    -0.249 NA 
HETATM   35  C   UNL     1      -7.827   3.998  63.645  1.00  0.00    -0.086 C  
HETATM   36  C   UNL     1      -9.123   2.257  62.412  1.00  0.00    -0.080 C  
HETATM   37  C   UNL     1      -7.283   1.557  63.948  1.00  0.00    -0.043 C  
HETATM   38  H   UNL     1     -10.260   3.009  64.536  1.00  0.00     0.000 HD 
HETATM   39  C   UNL     1      -8.411   2.579  63.742  1.00  0.00    -0.086 C  
ENDBRANCH  33  34
ENDBRANCH  31  33
ENDBRANCH   8  29
BRANCH  15  40
HETATM   40  N   UNL     1     -11.929   6.635  71.373  1.00  0.00    -0.342 NA 
HETATM   41  C   UNL     1     -11.387   5.870  72.498  1.00  0.00    -0.304 C  
HETATM   42  C   UNL     1     -13.333   7.012  71.536  1.00  0.00    -0.294 C  
ENDBRANCH  15  40
BRANCH  26  43
HETATM   43  C   UNL     1     -11.231  16.524  68.574  1.00  0.00    -0.296 C  
HETATM   44  N   UNL     1     -10.730  17.722  68.206  1.00  0.00    -0.306 N  
HETATM   45  H2  UNL     1      -9.806  18.024  68.516  1.00  0.00     0.000 HD 
HETATM   46  H1  UNL     1     -11.307  18.314  67.608  1.00  0.00     0.000 HD 
HETATM   47  O   UNL     1     -12.373  16.222  68.222  1.00  0.00     0.509 OA 
ENDBRANCH  26  43
BRANCH  20  48
HETATM   48  N   UNL     1     -13.220  14.094  71.110  1.00  0.00    -0.327 NA 
HETATM   49  C   UNL     1     -13.790  15.437  71.209  1.00  0.00    -0.434 C  
HETATM   50  C   UNL     1     -13.487  13.344  72.334  1.00  0.00    -0.584 C  
ENDBRANCH  20  48
TORSDOF 6
ENDMDL
MODEL       24
REMARK 921   NORMALIZED FREE ENERGY PREDICTED BY IDOCK:   -6.29 KCAL/MOL
REMARK 922        TOTAL FREE ENERGY PREDICTED BY IDOCK:   -8.88 KCAL/MOL
REMARK 923 INTER-LIGAND FREE ENERGY PREDICTED BY IDOCK:   -8.78 KCAL/MOL
REMARK 924 INTRA-LIGAND FREE ENERGY PREDICTED BY IDOCK:   -0.09 KCAL/MOL
REMARK 927      BINDING AFFINITY PREDICTED BY RF-SCORE:    0.00 PKD
ROOT
HETATM    1  C   UNL     1     -10.931  11.134  68.396  1.00  0.00    -0.277 C  
HETATM    2  C   UNL     1     -10.789  10.102  69.502  1.00  0.00    -0.289 C  
HETATM    3  C   UNL     1     -10.636   8.681  69.077  1.00  0.00    -0.179 A  
HETATM    4  C   UNL     1     -10.138   8.425  67.773  1.00  0.00    -0.263 A  
HETATM    5  C   UNL     1      -9.707   9.536  66.865  1.00  0.00    -0.182 C  
HETATM    6  C   UNL     1     -10.017   7.102  67.332  1.00  0.00    -0.172 A  
HETATM    7  O   UNL     1      -9.576   6.758  66.080  1.00  0.00    -0.389 OA 
HETATM    8  C   UNL     1     -10.417   6.060  68.166  1.00  0.00    -0.236 A  
HETATM    9  C   UNL     1      -9.993  10.952  67.253  1.00  0.00    -0.216 C  
HETATM   10  O   UNL     1      -9.142   9.284  65.795  1.00  0.00    -0.178 OA 
HETATM   11  C   UNL     1      -9.522  12.015  66.555  1.00  0.00    -0.228 C  
HETATM   12  H   UNL     1      -9.494   5.859  65.781  1.00  0.00     0.000 HD 
HETATM   13  C   UNL     1     -10.866   6.317  69.466  1.00  0.00    -0.404 A  
HETATM   14  C   UNL     1     -10.648  12.452  69.077  1.00  0.00    -0.087 C  
HETATM   15  C   UNL     1     -10.962   7.629  69.982  1.00  0.00    -0.228 A  
HETATM   16  C   UNL     1      -9.917  13.480  66.857  1.00  0.00    -0.256 C  
HETATM   17  C   UNL     1     -10.743  13.671  68.161  1.00  0.00    -0.260 C  
HETATM   18  H   UNL     1      -8.787  16.473  70.372  1.00  0.00     0.000 HD 
HETATM   19  O   UNL     1      -8.803  11.851  65.376  1.00  0.00    -0.401 OA 
HETATM   20  C   UNL     1     -10.333  14.851  69.118  1.00  0.00    -0.245 C  
HETATM   21  H   UNL     1      -8.473  12.595  64.887  1.00  0.00     0.000 HD 
HETATM   22  C   UNL     1      -8.793  14.545  66.800  1.00  0.00    -0.220 C  
HETATM   23  O   UNL     1     -10.752  13.834  65.725  1.00  0.00    -0.273 OA 
HETATM   24  O   UNL     1      -8.555  16.461  69.450  1.00  0.00    -0.174 OA 
HETATM   25  C   UNL     1      -9.482  15.954  68.532  1.00  0.00    -0.209 C  
HETATM   26  C   UNL     1      -9.155  15.936  67.230  1.00  0.00    -0.218 C  
HETATM   27  O   UNL     1      -7.630  14.324  66.468  1.00  0.00     0.597 OA 
HETATM   28  H   UNL     1     -10.994  14.733  65.910  1.00  0.00     0.000 HD 
ENDROOT
BRANCH   8  29
HETATM   29  N   UNL     1     -10.283   4.747  67.679  1.00  0.00    -0.087 N  
HETATM   30  H   UNL     1     -11.043   4.366  67.116  1.00  0.00     0.000 HD 
HETATM   31  C   UNL     1      -9.185   3.941  67.914  1.00  0.00    -0.165 C  
HETATM   32  O   UNL     1      -8.187   4.257  68.558  1.00  0.00    -0.083 OA 
BRANCH  31  33
HETATM   33  C   UNL     1      -9.342   2.541  67.307  1.00  0.00    -0.078 C  
BRANCH  33  34
HETATM   34  N   UNL     1      -8.049   2.123  66.745  1.00  0.00    -0.076 NA 
HETATM   35  C   UNL     1      -8.992   1.469  64.522  1.00  0.00    -0.107 C  
HETATM   36  C   UNL     1      -6.536   1.659  64.925  1.00  0.00    -0.026 C  
HETATM   37  C   UNL     1      -7.930   3.729  64.852  1.00  0.00    -0.090 C  
HETATM   38  H   UNL     1      -7.841   1.165  67.028  1.00  0.00     0.000 HD 
HETATM   39  C   UNL     1      -7.912   2.255  65.284  1.00  0.00    -0.078 C  
ENDBRANCH  33  34
ENDBRANCH  31  33
ENDBRANCH   8  29
BRANCH  15  40
HETATM   40  N   UNL     1     -11.320   7.809  71.318  1.00  0.00    -0.259 NA 
HETATM   41  C   UNL     1     -12.729   7.784  71.717  1.00  0.00    -0.329 C  
HETATM   42  C   UNL     1     -10.411   8.229  72.384  1.00  0.00    -0.334 C  
ENDBRANCH  15  40
BRANCH  26  43
HETATM   43  C   UNL     1     -10.094  16.810  66.461  1.00  0.00    -0.315 C  
HETATM   44  N   UNL     1     -10.762  17.764  67.143  1.00  0.00    -0.277 N  
HETATM   45  H2  UNL     1     -10.631  17.885  68.147  1.00  0.00     0.000 HD 
HETATM   46  H1  UNL     1     -11.403  18.361  66.619  1.00  0.00     0.000 HD 
HETATM   47  O   UNL     1     -10.323  16.665  65.259  1.00  0.00    -0.609 OA 
ENDBRANCH  26  43
BRANCH  20  48
HETATM   48  N   UNL     1     -11.534  15.244  69.892  1.00  0.00    -0.280 NA 
HETATM   49  C   UNL     1     -11.256  15.890  71.174  1.00  0.00    -0.306 C  
HETATM   50  C   UNL     1     -12.484  14.151  70.074  1.00  0.00    -0.296 C  
ENDBRANCH  20  48
TORSDOF 6
ENDMDL
MODEL       25
REMARK 921   NORMALIZED FREE ENERGY PREDICTED BY IDOCK:   -6.17 KCAL/MOL
REMARK 922        TOTAL FREE ENERGY PREDICTED BY IDOCK:   -8.72 KCAL/MOL
REMARK 923 INTER-LIGAND FREE ENERGY PREDICTED BY IDOCK:   -8.41 KCAL/MOL
REMARK 924 INTRA-LIGAND FREE ENERGY PREDICTED BY IDOCK:   -0.31 KCAL/MOL
REMARK 927      BINDING AFFINITY PREDICTED BY RF-SCORE:    0.00 PKD
ROOT
HETATM    1  C   UNL     1      -9.221   8.878  68.431  1.00  0.00    -0.140 C  
HETATM    2  C   UNL     1     -10.442   9.634  68.927  1.00  0.00    -0.234 C  
HETATM    3  C   UNL     1     -10.661  10.998  68.366  1.00  0.00    -0.224 A  
HETATM    4  C   UNL     1     -10.077  11.303  67.109  1.00  0.00    -0.223 A  
HETATM    5  C   UNL     1      -9.321  10.275  66.324  1.00  0.00    -0.167 C  
HETATM    6  C   UNL     1     -10.234  12.586  66.574  1.00  0.00    -0.240 A  
HETATM    7  O   UNL     1      -9.681  12.983  65.382  1.00  0.00    -0.469 OA 
HETATM    8  C   UNL     1     -10.932  13.552  67.295  1.00  0.00    -0.280 A  
HETATM    9  C   UNL     1      -8.998   8.960  66.961  1.00  0.00    -0.145 C  
HETATM   10  O   UNL     1      -8.949  10.519  65.172  1.00  0.00    -0.175 OA 
HETATM   11  C   UNL     1      -8.436   7.932  66.277  1.00  0.00    -0.135 C  
HETATM   12  H   UNL     1      -9.788  13.854  65.019  1.00  0.00     0.000 HD 
HETATM   13  C   UNL     1     -11.542  13.233  68.513  1.00  0.00    -0.368 A  
HETATM   14  C   UNL     1      -9.486   7.443  68.823  1.00  0.00    -0.143 C  
HETATM   15  C   UNL     1     -11.459  11.941  69.078  1.00  0.00    -0.297 A  
HETATM   16  C   UNL     1      -7.968   6.616  66.943  1.00  0.00    -0.109 C  
HETATM   17  C   UNL     1      -8.375   6.468  68.438  1.00  0.00    -0.117 C  
HETATM   18  H   UNL     1     -10.312   2.903  68.762  1.00  0.00     0.000 HD 
HETATM   19  O   UNL     1      -8.048   8.066  64.949  1.00  0.00    -0.138 OA 
HETATM   20  C   UNL     1      -8.962   5.082  68.900  1.00  0.00    -0.101 C  
HETATM   21  H   UNL     1      -7.654   7.345  64.470  1.00  0.00     0.000 HD 
HETATM   22  C   UNL     1      -8.270   5.293  66.195  1.00  0.00    -0.110 C  
HETATM   23  O   UNL     1      -6.522   6.706  66.866  1.00  0.00    -0.040 OA 
HETATM   24  O   UNL     1      -9.775   2.994  67.984  1.00  0.00    -0.137 OA 
HETATM   25  C   UNL     1      -8.698   3.889  68.012  1.00  0.00    -0.102 C  
HETATM   26  C   UNL     1      -7.939   4.018  66.912  1.00  0.00    -0.096 C  
HETATM   27  O   UNL     1      -8.792   5.217  65.084  1.00  0.00    -0.153 OA 
HETATM   28  H   UNL     1      -6.234   5.898  67.275  1.00  0.00     0.000 HD 
ENDROOT
BRANCH   8  29
HETATM   29  N   UNL     1     -11.060  14.830  66.719  1.00  0.00    -0.332 N  
HETATM   30  H   UNL     1     -11.783  14.966  66.012  1.00  0.00     0.000 HD 
HETATM   31  C   UNL     1     -10.267  15.912  67.050  1.00  0.00    -0.283 C  
HETATM   32  O   UNL     1      -9.367  15.913  67.887  1.00  0.00    -0.205 OA 
BRANCH  31  33
HETATM   33  C   UNL     1     -10.596  17.158  66.220  1.00  0.00    -0.185 C  
BRANCH  33  34
HETATM   34  N   UNL     1      -9.392  17.998  66.131  1.00  0.00    -0.503 NA 
HETATM   35  C   UNL     1     -10.653  20.145  65.899  1.00  0.00    -0.374 C  
HETATM   36  C   UNL     1      -8.195  20.082  66.329  1.00  0.00    -0.324 C  
HETATM   37  C   UNL     1      -9.774  19.408  68.142  1.00  0.00    -0.470 C  
HETATM   38  H   UNL     1      -9.044  18.007  65.172  1.00  0.00     0.000 HD 
HETATM   39  C   UNL     1      -9.535  19.379  66.625  1.00  0.00    -0.350 C  
ENDBRANCH  33  34
ENDBRANCH  31  33
ENDBRANCH   8  29
BRANCH  15  40
HETATM   40  N   UNL     1     -12.174  11.662  70.243  1.00  0.00    -0.332 NA 
HETATM   41  C   UNL     1     -12.866  10.381  70.398  1.00  0.00    -0.183 C  
HETATM   42  C   UNL     1     -12.480  12.631  71.295  1.00  0.00    -0.175 C  
ENDBRANCH  15  40
BRANCH  26  43
HETATM   43  C   UNL     1      -6.539   3.589  67.212  1.00  0.00    -0.038 C  
HETATM   44  N   UNL     1      -6.036   2.553  66.508  1.00  0.00    -0.023 N  
HETATM   45  H2  UNL     1      -6.592   2.078  65.797  1.00  0.00     0.000 HD 
HETATM   46  H1  UNL     1      -5.080   2.260  66.713  1.00  0.00     0.000 HD 
HETATM   47  O   UNL     1      -5.850   4.098  68.098  1.00  0.00    -0.024 OA 
ENDBRANCH  26  43
BRANCH  20  48
HETATM   48  N   UNL     1      -8.690   4.937  70.349  1.00  0.00    -0.098 NA 
HETATM   49  C   UNL     1      -7.437   5.537  70.805  1.00  0.00    -0.088 C  
HETATM   50  C   UNL     1      -8.787   3.557  70.818  1.00  0.00    -0.081 C  
ENDBRANCH  20  48
TORSDOF 6
ENDMDL
MODEL       26
REMARK 921   NORMALIZED FREE ENERGY PREDICTED BY IDOCK:   -6.12 KCAL/MOL
REMARK 922        TOTAL FREE ENERGY PREDICTED BY IDOCK:   -8.64 KCAL/MOL
REMARK 923 INTER-LIGAND FREE ENERGY PREDICTED BY IDOCK:   -8.45 KCAL/MOL
REMARK 924 INTRA-LIGAND FREE ENERGY PREDICTED BY IDOCK:   -0.19 KCAL/MOL
REMARK 927      BINDING AFFINITY PREDICTED BY RF-SCORE:    0.00 PKD
ROOT
HETATM    1  C   UNL     1      -7.921   9.233  68.675  1.00  0.00    -0.100 C  
HETATM    2  C   UNL     1      -7.533  10.552  69.323  1.00  0.00    -0.122 C  
HETATM    3  C   UNL     1      -7.936  11.795  68.605  1.00  0.00    -0.116 A  
HETATM    4  C   UNL     1      -9.030  11.719  67.703  1.00  0.00    -0.169 A  
HETATM    5  C   UNL     1      -9.811  10.454  67.521  1.00  0.00    -0.172 C  
HETATM    6  C   UNL     1      -9.408  12.861  66.988  1.00  0.00    -0.235 A  
HETATM    7  O   UNL     1     -10.430  12.877  66.072  1.00  0.00    -0.267 OA 
HETATM    8  C   UNL     1      -8.689  14.043  67.147  1.00  0.00    -0.221 A  
HETATM    9  C   UNL     1      -9.311   9.189  68.142  1.00  0.00    -0.147 C  
HETATM   10  O   UNL     1     -10.844  10.451  66.844  1.00  0.00    -0.236 OA 
HETATM   11  C   UNL     1     -10.024   8.035  68.135  1.00  0.00    -0.185 C  
HETATM   12  H   UNL     1     -10.687  13.653  65.587  1.00  0.00     0.000 HD 
HETATM   13  C   UNL     1      -7.640  14.123  68.069  1.00  0.00    -0.142 A  
HETATM   14  C   UNL     1      -7.771   8.216  69.782  1.00  0.00    -0.100 C  
HETATM   15  C   UNL     1      -7.245  13.016  68.855  1.00  0.00    -0.047 A  
HETATM   16  C   UNL     1      -9.471   6.684  68.649  1.00  0.00    -0.128 C  
HETATM   17  C   UNL     1      -8.096   6.781  69.370  1.00  0.00    -0.123 C  
HETATM   18  H   UNL     1      -8.568   5.008  73.003  1.00  0.00     0.000 HD 
HETATM   19  O   UNL     1     -11.241   7.936  67.471  1.00  0.00    -0.447 OA 
HETATM   20  C   UNL     1      -7.925   5.991  70.721  1.00  0.00    -0.114 C  
HETATM   21  H   UNL     1     -11.741   7.127  67.466  1.00  0.00     0.000 HD 
HETATM   22  C   UNL     1     -10.428   5.796  69.483  1.00  0.00    -0.293 C  
HETATM   23  O   UNL     1      -9.299   5.916  67.430  1.00  0.00    -0.112 OA 
HETATM   24  O   UNL     1      -9.230   4.780  72.361  1.00  0.00    -0.128 OA 
HETATM   25  C   UNL     1      -8.908   4.879  71.002  1.00  0.00    -0.126 C  
HETATM   26  C   UNL     1      -9.843   4.557  70.094  1.00  0.00    -0.296 C  
HETATM   27  O   UNL     1     -11.609   6.052  69.709  1.00  0.00    -0.325 OA 
HETATM   28  H   UNL     1      -8.961   5.087  67.745  1.00  0.00     0.000 HD 
ENDROOT
BRANCH   8  29
HETATM   29  N   UNL     1      -9.103  15.163  66.403  1.00  0.00    -0.316 N  
HETATM   30  H   UNL     1      -8.533  15.444  65.605  1.00  0.00     0.000 HD 
HETATM   31  C   UNL     1     -10.232  15.907  66.685  1.00  0.00    -0.288 C  
HETATM   32  O   UNL     1     -11.025  15.690  67.599  1.00  0.00    -0.311 OA 
BRANCH  31  33
HETATM   33  C   UNL     1     -10.401  17.103  65.740  1.00  0.00    -0.240 C  
BRANCH  33  34
HETATM   34  N   UNL     1      -9.212  17.962  65.849  1.00  0.00    -0.509 NA 
HETATM   35  C   UNL     1     -10.454  19.916  66.796  1.00  0.00    -0.575 C  
HETATM   36  C   UNL     1      -7.960  19.808  66.766  1.00  0.00    -0.323 C  
HETATM   37  C   UNL     1      -9.233  18.315  68.309  1.00  0.00    -0.322 C  
HETATM   38  H   UNL     1      -9.026  18.413  64.953  1.00  0.00     0.000 HD 
HETATM   39  C   UNL     1      -9.246  18.972  66.921  1.00  0.00    -0.303 C  
ENDBRANCH  33  34
ENDBRANCH  31  33
ENDBRANCH   8  29
BRANCH  15  40
HETATM   40  N   UNL     1      -6.260  13.191  69.827  1.00  0.00    -0.125 NA 
HETATM   41  C   UNL     1      -6.127  14.471  70.526  1.00  0.00    -0.183 C  
HETATM   42  C   UNL     1      -5.172  12.253  70.101  1.00  0.00    -0.101 C  
ENDBRANCH  15  40
BRANCH  26  43
HETATM   43  C   UNL     1      -9.379   3.388  69.285  1.00  0.00    -0.170 C  
HETATM   44  N   UNL     1      -8.686   2.420  69.921  1.00  0.00    -0.060 N  
HETATM   45  H2  UNL     1      -8.486   2.484  70.919  1.00  0.00     0.000 HD 
HETATM   46  H1  UNL     1      -8.369   1.623  69.368  1.00  0.00     0.000 HD 
HETATM   47  O   UNL     1      -9.551   3.297  68.067  1.00  0.00    -0.181 OA 
ENDBRANCH  26  43
BRANCH  20  48
HETATM   48  N   UNL     1      -6.483   5.695  70.891  1.00  0.00    -0.035 NA 
HETATM   49  C   UNL     1      -6.093   4.321  70.576  1.00  0.00    -0.018 C  
HETATM   50  C   UNL     1      -5.968   6.075  72.204  1.00  0.00    -0.036 C  
ENDBRANCH  20  48
TORSDOF 6
ENDMDL
MODEL       27
REMARK 921   NORMALIZED FREE ENERGY PREDICTED BY IDOCK:   -5.94 KCAL/MOL
REMARK 922        TOTAL FREE ENERGY PREDICTED BY IDOCK:   -8.40 KCAL/MOL
REMARK 923 INTER-LIGAND FREE ENERGY PREDICTED BY IDOCK:   -7.28 KCAL/MOL
REMARK 924 INTRA-LIGAND FREE ENERGY PREDICTED BY IDOCK:   -1.12 KCAL/MOL
REMARK 927      BINDING AFFINITY PREDICTED BY RF-SCORE:    0.00 PKD
ROOT
HETATM    1  C   UNL     1      -8.910  10.193  69.758  1.00  0.00    -0.152 C  
HETATM    2  C   UNL     1      -9.807  11.100  68.932  1.00  0.00    -0.176 C  
HETATM    3  C   UNL     1      -9.166  12.296  68.313  1.00  0.00    -0.189 A  
HETATM    4  C   UNL     1      -7.765  12.260  68.092  1.00  0.00    -0.138 A  
HETATM    5  C   UNL     1      -6.952  11.040  68.399  1.00  0.00    -0.071 C  
HETATM    6  C   UNL     1      -7.129  13.381  67.546  1.00  0.00    -0.144 A  
HETATM    7  O   UNL     1      -5.776  13.452  67.326  1.00  0.00    -0.353 OA 
HETATM    8  C   UNL     1      -7.873  14.523  67.258  1.00  0.00    -0.173 A  
HETATM    9  C   UNL     1      -7.585   9.906  69.142  1.00  0.00    -0.090 C  
HETATM   10  O   UNL     1      -5.764  10.981  68.063  1.00  0.00    -0.043 OA 
HETATM   11  C   UNL     1      -6.960   8.719  69.342  1.00  0.00    -0.053 C  
HETATM   12  H   UNL     1      -5.345  14.213  66.955  1.00  0.00     0.000 HD 
HETATM   13  C   UNL     1      -9.260  14.536  67.438  1.00  0.00    -0.202 A  
HETATM   14  C   UNL     1      -9.696   8.910  69.888  1.00  0.00    -0.185 C  
HETATM   15  C   UNL     1      -9.963  13.417  67.940  1.00  0.00    -0.236 A  
HETATM   16  C   UNL     1      -7.538   7.585  70.222  1.00  0.00    -0.090 C  
HETATM   17  C   UNL     1      -8.998   7.822  70.703  1.00  0.00    -0.145 C  
HETATM   18  H   UNL     1     -11.127   4.531  69.608  1.00  0.00     0.000 HD 
HETATM   19  O   UNL     1      -5.647   8.510  68.935  1.00  0.00    -0.038 OA 
HETATM   20  C   UNL     1     -10.005   6.617  70.598  1.00  0.00    -0.184 C  
HETATM   21  H   UNL     1      -5.209   7.678  69.076  1.00  0.00     0.000 HD 
HETATM   22  C   UNL     1      -7.400   6.135  69.693  1.00  0.00    -0.079 C  
HETATM   23  O   UNL     1      -6.663   7.591  71.379  1.00  0.00    -0.048 OA 
HETATM   24  O   UNL     1     -10.185   4.407  69.627  1.00  0.00    -0.133 OA 
HETATM   25  C   UNL     1      -9.416   5.234  70.455  1.00  0.00    -0.167 C  
HETATM   26  C   UNL     1      -8.085   5.058  70.482  1.00  0.00    -0.093 C  
HETATM   27  O   UNL     1      -6.808   5.815  68.664  1.00  0.00    -0.058 OA 
HETATM   28  H   UNL     1      -7.018   6.894  71.919  1.00  0.00     0.000 HD 
ENDROOT
BRANCH   8  29
HETATM   29  N   UNL     1      -7.189  15.627  66.716  1.00  0.00    -0.106 N  
HETATM   30  H   UNL     1      -7.057  15.657  65.705  1.00  0.00     0.000 HD 
HETATM   31  C   UNL     1      -6.687  16.672  67.467  1.00  0.00    -0.154 C  
HETATM   32  O   UNL     1      -6.777  16.788  68.687  1.00  0.00    -0.158 OA 
BRANCH  31  33
HETATM   33  C   UNL     1      -5.940  17.704  66.613  1.00  0.00    -0.182 C  
BRANCH  33  34
HETATM   34  N   UNL     1      -6.112  19.033  67.219  1.00  0.00    -0.169 NA 
HETATM   35  C   UNL     1      -6.341  20.230  65.035  1.00  0.00    -0.324 C  
HETATM   36  C   UNL     1      -6.859  21.326  67.217  1.00  0.00    -0.341 C  
HETATM   37  C   UNL     1      -8.381  19.549  66.346  1.00  0.00    -0.364 C  
HETATM   38  H   UNL     1      -5.201  19.436  67.436  1.00  0.00     0.000 HD 
HETATM   39  C   UNL     1      -6.914  19.994  66.443  1.00  0.00    -0.240 C  
ENDBRANCH  33  34
ENDBRANCH  31  33
ENDBRANCH   8  29
BRANCH  15  40
HETATM   40  N   UNL     1     -11.356  13.461  67.999  1.00  0.00    -0.270 NA 
HETATM   41  C   UNL     1     -12.152  13.382  66.772  1.00  0.00    -0.365 C  
HETATM   42  C   UNL     1     -12.138  13.784  69.192  1.00  0.00    -0.333 C  
ENDBRANCH  15  40
BRANCH  26  43
HETATM   43  C   UNL     1      -7.657   4.654  71.856  1.00  0.00    -0.088 C  
HETATM   44  N   UNL     1      -6.389   4.934  72.226  1.00  0.00    -0.033 N  
HETATM   45  H2  UNL     1      -5.746   5.406  71.589  1.00  0.00     0.000 HD 
HETATM   46  H1  UNL     1      -6.097   4.658  73.163  1.00  0.00     0.000 HD 
HETATM   47  O   UNL     1      -8.383   4.036  72.637  1.00  0.00    -0.096 OA 
ENDBRANCH  26  43
BRANCH  20  48
HETATM   48  N   UNL     1     -11.057   6.816  71.622  1.00  0.00    -0.239 NA 
HETATM   49  C   UNL     1     -10.979   5.913  72.770  1.00  0.00    -0.265 C  
HETATM   50  C   UNL     1     -12.408   6.811  71.069  1.00  0.00    -0.315 C  
ENDBRANCH  20  48
TORSDOF 6
ENDMDL
MODEL       28
REMARK 921   NORMALIZED FREE ENERGY PREDICTED BY IDOCK:   -5.86 KCAL/MOL
REMARK 922        TOTAL FREE ENERGY PREDICTED BY IDOCK:   -8.29 KCAL/MOL
REMARK 923 INTER-LIGAND FREE ENERGY PREDICTED BY IDOCK:   -7.97 KCAL/MOL
REMARK 924 INTRA-LIGAND FREE ENERGY PREDICTED BY IDOCK:   -0.32 KCAL/MOL
REMARK 927      BINDING AFFINITY PREDICTED BY RF-SCORE:    0.00 PKD
ROOT
HETATM    1  C   UNL     1      -9.610   7.708  66.383  1.00  0.00    -0.223 C  
HETATM    2  C   UNL     1      -9.775   9.175  66.025  1.00  0.00    -0.358 C  
HETATM    3  C   UNL     1     -10.277  10.076  67.101  1.00  0.00    -0.284 A  
HETATM    4  C   UNL     1     -10.091   9.672  68.449  1.00  0.00    -0.199 A  
HETATM    5  C   UNL     1      -9.352   8.416  68.798  1.00  0.00    -0.143 C  
HETATM    6  C   UNL     1     -10.583  10.479  69.481  1.00  0.00    -0.246 A  
HETATM    7  O   UNL     1     -10.479  10.157  70.811  1.00  0.00    -0.382 OA 
HETATM    8  C   UNL     1     -11.274  11.648  69.170  1.00  0.00    -0.263 A  
HETATM    9  C   UNL     1      -8.977   7.462  67.709  1.00  0.00    -0.127 C  
HETATM   10  O   UNL     1      -9.076   8.161  69.974  1.00  0.00    -0.149 OA 
HETATM   11  C   UNL     1      -8.196   6.373  67.923  1.00  0.00    -0.115 C  
HETATM   12  H   UNL     1     -10.814  10.705  71.511  1.00  0.00     0.000 HD 
HETATM   13  C   UNL     1     -11.416  12.063  67.842  1.00  0.00    -0.396 A  
HETATM   14  C   UNL     1      -8.726   7.154  65.290  1.00  0.00     0.073 C  
HETATM   15  C   UNL     1     -10.897  11.314  66.762  1.00  0.00    -0.282 A  
HETATM   16  C   UNL     1      -7.909   5.301  66.846  1.00  0.00    -0.100 C  
HETATM   17  C   UNL     1      -8.418   5.663  65.421  1.00  0.00    -0.147 C  
HETATM   18  H   UNL     1      -5.226   5.298  62.923  1.00  0.00     0.000 HD 
HETATM   19  O   UNL     1      -7.758   6.031  69.197  1.00  0.00    -0.091 OA 
HETATM   20  C   UNL     1      -7.443   5.408  64.212  1.00  0.00    -0.064 C  
HETATM   21  H   UNL     1      -7.211   5.268  69.347  1.00  0.00     0.000 HD 
HETATM   22  C   UNL     1      -6.461   4.758  66.751  1.00  0.00    -0.041 C  
HETATM   23  O   UNL     1      -8.653   4.150  67.323  1.00  0.00    -0.099 OA 
HETATM   24  O   UNL     1      -5.133   4.848  63.755  1.00  0.00    -0.009 OA 
HETATM   25  C   UNL     1      -6.291   4.459  64.440  1.00  0.00    -0.034 C  
HETATM   26  C   UNL     1      -6.160   3.824  65.616  1.00  0.00    -0.027 C  
HETATM   27  O   UNL     1      -5.543   5.065  67.510  1.00  0.00    -0.012 OA 
HETATM   28  H   UNL     1      -8.477   3.492  66.661  1.00  0.00     0.000 HD 
ENDROOT
BRANCH   8  29
HETATM   29  N   UNL     1     -11.756  12.425  70.240  1.00  0.00    -0.546 N  
HETATM   30  H   UNL     1     -11.422  13.385  70.322  1.00  0.00     0.000 HD 
HETATM   31  C   UNL     1     -12.653  11.968  71.187  1.00  0.00    -0.271 C  
HETATM   32  O   UNL     1     -13.155  10.847  71.218  1.00  0.00    -0.374 OA 
BRANCH  31  33
HETATM   33  C   UNL     1     -12.952  13.015  72.267  1.00  0.00    -0.224 C  
BRANCH  33  34
HETATM   34  N   UNL     1     -12.164  14.224  71.985  1.00  0.00    -0.200 NA 
HETATM   35  C   UNL     1     -14.085  15.798  72.278  1.00  0.00    -0.453 C  
HETATM   36  C   UNL     1     -11.725  16.591  72.109  1.00  0.00    -0.330 C  
HETATM   37  C   UNL     1     -12.467  15.381  74.163  1.00  0.00    -0.785 C  
HETATM   38  H   UNL     1     -12.096  14.367  70.977  1.00  0.00     0.000 HD 
HETATM   39  C   UNL     1     -12.629  15.460  72.637  1.00  0.00    -0.387 C  
ENDBRANCH  33  34
ENDBRANCH  31  33
ENDBRANCH   8  29
BRANCH  15  40
HETATM   40  N   UNL     1     -10.985  11.834  65.470  1.00  0.00    -0.297 NA 
HETATM   41  C   UNL     1      -9.783  12.307  64.779  1.00  0.00    -0.010 C  
HETATM   42  C   UNL     1     -12.231  12.150  64.772  1.00  0.00    -0.264 C  
ENDBRANCH  15  40
BRANCH  26  43
HETATM   43  C   UNL     1      -6.738   2.450  65.514  1.00  0.00    -0.035 C  
HETATM   44  N   UNL     1      -6.915   1.933  64.279  1.00  0.00    -0.038 N  
HETATM   45  H2  UNL     1      -6.663   2.464  63.445  1.00  0.00     0.000 HD 
HETATM   46  H1  UNL     1      -7.310   0.995  64.209  1.00  0.00     0.000 HD 
HETATM   47  O   UNL     1      -7.106   1.795  66.492  1.00  0.00    -0.045 OA 
ENDBRANCH  26  43
BRANCH  20  48
HETATM   48  N   UNL     1      -8.271   5.209  62.999  1.00  0.00    -0.104 NA 
HETATM   49  C   UNL     1      -8.705   6.440  62.339  1.00  0.00     0.222 C  
HETATM   50  C   UNL     1      -9.413   4.327  63.219  1.00  0.00    -0.116 C  
ENDBRANCH  20  48
TORSDOF 6
ENDMDL
MODEL       29
REMARK 921   NORMALIZED FREE ENERGY PREDICTED BY IDOCK:   -5.77 KCAL/MOL
REMARK 922        TOTAL FREE ENERGY PREDICTED BY IDOCK:   -8.18 KCAL/MOL
REMARK 923 INTER-LIGAND FREE ENERGY PREDICTED BY IDOCK:   -7.67 KCAL/MOL
REMARK 924 INTRA-LIGAND FREE ENERGY PREDICTED BY IDOCK:   -0.52 KCAL/MOL
REMARK 927      BINDING AFFINITY PREDICTED BY RF-SCORE:    0.00 PKD
ROOT
HETATM    1  C   UNL     1      -8.406  14.165  68.181  1.00  0.00    -0.161 C  
HETATM    2  C   UNL     1      -7.861  12.926  67.492  1.00  0.00    -0.177 C  
HETATM    3  C   UNL     1      -8.552  11.637  67.785  1.00  0.00    -0.144 A  
HETATM    4  C   UNL     1      -9.898  11.689  68.233  1.00  0.00    -0.199 A  
HETATM    5  C   UNL     1     -10.638  12.987  68.346  1.00  0.00    -0.251 C  
HETATM    6  C   UNL     1     -10.561  10.499  68.551  1.00  0.00    -0.206 A  
HETATM    7  O   UNL     1     -11.849  10.451  69.021  1.00  0.00    -0.500 OA 
HETATM    8  C   UNL     1      -9.883   9.286  68.453  1.00  0.00    -0.155 A  
HETATM    9  C   UNL     1      -9.892  14.272  68.180  1.00  0.00    -0.226 C  
HETATM   10  O   UNL     1     -11.848  12.995  68.596  1.00  0.00    -0.305 OA 
HETATM   11  C   UNL     1     -10.509  15.479  68.136  1.00  0.00    -0.259 C  
HETATM   12  H   UNL     1     -12.299   9.642  69.236  1.00  0.00     0.000 HD 
HETATM   13  C   UNL     1      -8.571   9.237  67.969  1.00  0.00    -0.121 A  
HETATM   14  C   UNL     1      -7.816  15.316  67.401  1.00  0.00    -0.220 C  
HETATM   15  C   UNL     1      -7.868  10.402  67.587  1.00  0.00    -0.105 A  
HETATM   16  C   UNL     1      -9.751  16.828  68.103  1.00  0.00    -0.247 C  
HETATM   17  C   UNL     1      -8.212  16.698  67.917  1.00  0.00    -0.183 C  
HETATM   18  H   UNL     1      -7.231  19.036  64.732  1.00  0.00     0.000 HD 
HETATM   19  O   UNL     1     -11.881  15.603  68.326  1.00  0.00    -0.417 OA 
HETATM   20  C   UNL     1      -7.519  17.661  66.881  1.00  0.00    -0.199 C  
HETATM   21  H   UNL     1     -12.313  16.449  68.295  1.00  0.00     0.000 HD 
HETATM   22  C   UNL     1     -10.293  17.925  67.153  1.00  0.00    -0.367 C  
HETATM   23  O   UNL     1     -10.011  17.382  69.418  1.00  0.00    -0.165 OA 
HETATM   24  O   UNL     1      -8.073  19.232  65.124  1.00  0.00     0.225 OA 
HETATM   25  C   UNL     1      -8.282  18.898  66.468  1.00  0.00    -0.297 C  
HETATM   26  C   UNL     1      -9.473  19.175  67.023  1.00  0.00    -0.367 C  
HETATM   27  O   UNL     1     -11.316  17.829  66.478  1.00  0.00     0.588 OA 
HETATM   28  H   UNL     1      -9.546  18.210  69.398  1.00  0.00     0.000 HD 
ENDROOT
BRANCH   8  29
HETATM   29  N   UNL     1     -10.588   8.115  68.788  1.00  0.00    -0.361 N  
HETATM   30  H   UNL     1     -11.492   7.958  68.343  1.00  0.00     0.000 HD 
HETATM   31  C   UNL     1     -10.134   7.165  69.682  1.00  0.00    -0.192 C  
HETATM   32  O   UNL     1      -9.065   7.202  70.288  1.00  0.00    -0.155 OA 
BRANCH  31  33
HETATM   33  C   UNL     1     -11.140   6.027  69.894  1.00  0.00    -0.399 C  
BRANCH  33  34
HETATM   34  N   UNL     1     -12.460   6.610  70.176  1.00  0.00    -0.340 NA 
HETATM   35  C   UNL     1     -12.581   5.728  72.513  1.00  0.00     0.314 C  
HETATM   36  C   UNL     1     -14.188   7.429  71.645  1.00  0.00    -0.583 C  
HETATM   37  C   UNL     1     -11.818   8.087  72.068  1.00  0.00    -0.376 C  
HETATM   38  H   UNL     1     -13.194   5.995  69.821  1.00  0.00     0.000 HD 
HETATM   39  C   UNL     1     -12.725   6.946  71.585  1.00  0.00    -0.352 C  
ENDBRANCH  33  34
ENDBRANCH  31  33
ENDBRANCH   8  29
BRANCH  15  40
HETATM   40  N   UNL     1      -6.601  10.275  67.018  1.00  0.00    -0.072 NA 
HETATM   41  C   UNL     1      -6.455  10.052  65.578  1.00  0.00    -0.095 C  
HETATM   42  C   UNL     1      -5.351  10.142  67.766  1.00  0.00    -0.038 C  
ENDBRANCH  15  40
BRANCH  26  43
HETATM   43  C   UNL     1      -9.294  20.154  68.138  1.00  0.00    -0.184 C  
HETATM   44  N   UNL     1     -10.375  20.453  68.890  1.00  0.00    -0.225 N  
HETATM   45  H2  UNL     1     -11.282  20.026  68.703  1.00  0.00     0.000 HD 
HETATM   46  H1  UNL     1     -10.253  21.122  69.651  1.00  0.00     0.000 HD 
HETATM   47  O   UNL     1      -8.231  20.734  68.366  1.00  0.00     0.364 OA 
ENDBRANCH  26  43
BRANCH  20  48
HETATM   48  N   UNL     1      -6.106  17.828  67.293  1.00  0.00    -0.140 NA 
HETATM   49  C   UNL     1      -5.892  18.770  68.391  1.00  0.00    -0.203 C  
HETATM   50  C   UNL     1      -5.214  18.141  66.180  1.00  0.00    -0.169 C  
ENDBRANCH  20  48
TORSDOF 6
ENDMDL
MODEL       30
REMARK 921   NORMALIZED FREE ENERGY PREDICTED BY IDOCK:   -5.51 KCAL/MOL
REMARK 922        TOTAL FREE ENERGY PREDICTED BY IDOCK:   -7.82 KCAL/MOL
REMARK 923 INTER-LIGAND FREE ENERGY PREDICTED BY IDOCK:   -7.24 KCAL/MOL
REMARK 924 INTRA-LIGAND FREE ENERGY PREDICTED BY IDOCK:   -0.58 KCAL/MOL
REMARK 927      BINDING AFFINITY PREDICTED BY RF-SCORE:    0.00 PKD
ROOT
HETATM    1  C   UNL     1      -9.113  12.464  68.522  1.00  0.00    -0.068 C  
HETATM    2  C   UNL     1      -8.936  11.152  67.776  1.00  0.00    -0.139 C  
HETATM    3  C   UNL     1      -9.404   9.917  68.470  1.00  0.00    -0.143 A  
HETATM    4  C   UNL     1     -10.393  10.054  69.479  1.00  0.00    -0.256 A  
HETATM    5  C   UNL     1     -11.009  11.381  69.799  1.00  0.00    -0.051 C  
HETATM    6  C   UNL     1     -10.826   8.919  70.172  1.00  0.00    -0.231 A  
HETATM    7  O   UNL     1     -11.753   8.956  71.183  1.00  0.00    -0.278 OA 
HETATM    8  C   UNL     1     -10.259   7.679  69.885  1.00  0.00    -0.215 A  
HETATM    9  C   UNL     1     -10.434  12.622  69.193  1.00  0.00     0.081 C  
HETATM   10  O   UNL     1     -11.968  11.453  70.575  1.00  0.00    -0.348 OA 
HETATM   11  C   UNL     1     -11.012  13.841  69.327  1.00  0.00    -0.163 C  
HETATM   12  H   UNL     1     -12.047   8.184  71.654  1.00  0.00     0.000 HD 
HETATM   13  C   UNL     1      -9.317   7.544  68.860  1.00  0.00    -0.142 A  
HETATM   14  C   UNL     1      -8.957  13.523  67.456  1.00  0.00    -0.210 C  
HETATM   15  C   UNL     1      -8.879   8.647  68.093  1.00  0.00    -0.142 A  
HETATM   16  C   UNL     1     -10.364  15.155  68.827  1.00  0.00    -0.236 C  
HETATM   17  C   UNL     1      -9.083  14.957  67.968  1.00  0.00    -0.180 C  
HETATM   18  H   UNL     1      -9.696  16.980  64.490  1.00  0.00     0.000 HD 
HETATM   19  O   UNL     1     -12.143  14.029  70.113  1.00  0.00    -0.309 OA 
HETATM   20  C   UNL     1      -8.953  15.803  66.646  1.00  0.00    -0.280 C  
HETATM   21  H   UNL     1     -12.548  14.883  70.207  1.00  0.00     0.000 HD 
HETATM   22  C   UNL     1     -11.292  16.186  68.136  1.00  0.00    -0.270 C  
HETATM   23  O   UNL     1      -9.995  15.827  70.058  1.00  0.00    -0.264 OA 
HETATM   24  O   UNL     1     -10.265  17.238  65.205  1.00  0.00    -0.563 OA 
HETATM   25  C   UNL     1      -9.829  17.026  66.519  1.00  0.00    -0.294 C  
HETATM   26  C   UNL     1     -10.634  17.391  67.531  1.00  0.00    -0.330 C  
HETATM   27  O   UNL     1     -12.510  16.069  68.018  1.00  0.00     0.755 OA 
HETATM   28  H   UNL     1      -9.598  16.634  69.751  1.00  0.00     0.000 HD 
ENDROOT
BRANCH   8  29
HETATM   29  N   UNL     1     -10.722   6.567  70.612  1.00  0.00    -0.235 N  
HETATM   30  H   UNL     1     -11.323   5.897  70.131  1.00  0.00     0.000 HD 
HETATM   31  C   UNL     1     -10.414   6.323  71.937  1.00  0.00    -0.209 C  
HETATM   32  O   UNL     1      -9.696   7.024  72.647  1.00  0.00    -0.148 OA 
BRANCH  31  33
HETATM   33  C   UNL     1     -11.107   5.068  72.481  1.00  0.00    -0.150 C  
BRANCH  33  34
HETATM   34  N   UNL     1     -10.404   3.882  71.971  1.00  0.00    -0.094 NA 
HETATM   35  C   UNL     1      -9.235   3.390  74.127  1.00  0.00    -0.102 C  
HETATM   36  C   UNL     1      -9.266   1.771  72.227  1.00  0.00    -0.122 C  
HETATM   37  C   UNL     1     -11.363   2.188  73.516  1.00  0.00    -0.317 C  
HETATM   38  H   UNL     1      -9.554   4.165  71.483  1.00  0.00     0.000 HD 
HETATM   39  C   UNL     1     -10.087   2.845  72.968  1.00  0.00    -0.136 C  
ENDBRANCH  33  34
ENDBRANCH  31  33
ENDBRANCH   8  29
BRANCH  15  40
HETATM   40  N   UNL     1      -8.014   8.428  67.021  1.00  0.00    -0.099 NA 
HETATM   41  C   UNL     1      -8.546   8.084  65.700  1.00  0.00    -0.145 C  
HETATM   42  C   UNL     1      -6.560   8.310  67.121  1.00  0.00    -0.058 C  
ENDBRANCH  15  40
BRANCH  26  43
HETATM   43  C   UNL     1      -9.970  18.454  68.345  1.00  0.00    -0.379 C  
HETATM   44  N   UNL     1     -10.726  19.495  68.755  1.00  0.00    -0.291 N  
HETATM   45  H2  UNL     1     -11.716  19.553  68.517  1.00  0.00     0.000 HD 
HETATM   46  H1  UNL     1     -10.272  20.221  69.311  1.00  0.00     0.000 HD 
HETATM   47  O   UNL     1      -8.766  18.452  68.610  1.00  0.00    -0.318 OA 
ENDBRANCH  26  43
BRANCH  20  48
HETATM   48  N   UNL     1      -7.509  15.955  66.347  1.00  0.00     0.003 NA 
HETATM   49  C   UNL     1      -6.610  15.560  67.431  1.00  0.00    -0.139 C  
HETATM   50  C   UNL     1      -7.158  17.287  65.863  1.00  0.00    -0.026 C  
ENDBRANCH  20  48
TORSDOF 6
ENDMDL
MODEL       31
REMARK 921   NORMALIZED FREE ENERGY PREDICTED BY IDOCK:   -5.42 KCAL/MOL
REMARK 922        TOTAL FREE ENERGY PREDICTED BY IDOCK:   -7.70 KCAL/MOL
REMARK 923 INTER-LIGAND FREE ENERGY PREDICTED BY IDOCK:   -7.58 KCAL/MOL
REMARK 924 INTRA-LIGAND FREE ENERGY PREDICTED BY IDOCK:   -0.12 KCAL/MOL
REMARK 927      BINDING AFFINITY PREDICTED BY RF-SCORE:    0.00 PKD
ROOT
HETATM    1  C   UNL     1      -9.342   8.981  67.191  1.00  0.00    -0.184 C  
HETATM    2  C   UNL     1      -9.605   7.561  66.720  1.00  0.00    -0.265 C  
HETATM    3  C   UNL     1      -9.205   6.462  67.645  1.00  0.00    -0.116 A  
HETATM    4  C   UNL     1      -9.096   6.762  69.028  1.00  0.00    -0.137 A  
HETATM    5  C   UNL     1      -9.437   8.118  69.567  1.00  0.00    -0.156 C  
HETATM    6  C   UNL     1      -8.687   5.761  69.916  1.00  0.00    -0.128 A  
HETATM    7  O   UNL     1      -8.522   5.964  71.263  1.00  0.00    -0.126 OA 
HETATM    8  C   UNL     1      -8.364   4.497  69.427  1.00  0.00    -0.070 A  
HETATM    9  C   UNL     1      -9.704   9.239  68.613  1.00  0.00    -0.158 C  
HETATM   10  O   UNL     1      -9.475   8.313  70.786  1.00  0.00    -0.155 OA 
HETATM   11  C   UNL     1     -10.146  10.456  69.016  1.00  0.00    -0.213 C  
HETATM   12  H   UNL     1      -8.245   5.284  71.866  1.00  0.00     0.000 HD 
HETATM   13  C   UNL     1      -8.516   4.195  68.070  1.00  0.00    -0.103 A  
HETATM   14  C   UNL     1     -10.199   9.838  66.289  1.00  0.00    -0.282 C  
HETATM   15  C   UNL     1      -8.972   5.152  67.134  1.00  0.00    -0.112 A  
HETATM   16  C   UNL     1     -10.297  11.669  68.067  1.00  0.00    -0.192 C  
HETATM   17  C   UNL     1     -10.097  11.338  66.560  1.00  0.00    -0.256 C  
HETATM   18  H   UNL     1     -13.404  12.711  64.625  1.00  0.00     0.000 HD 
HETATM   19  O   UNL     1     -10.303  10.765  70.362  1.00  0.00    -0.295 OA 
HETATM   20  C   UNL     1     -11.132  11.941  65.538  1.00  0.00    -0.304 C  
HETATM   21  H   UNL     1     -10.613  11.618  70.644  1.00  0.00     0.000 HD 
HETATM   22  C   UNL     1     -11.559  12.552  68.236  1.00  0.00    -0.328 C  
HETATM   23  O   UNL     1      -9.227  12.552  68.491  1.00  0.00    -0.330 OA 
HETATM   24  O   UNL     1     -13.265  13.085  65.488  1.00  0.00    -0.409 OA 
HETATM   25  C   UNL     1     -11.964  13.112  66.005  1.00  0.00    -0.433 C  
HETATM   26  C   UNL     1     -11.766  13.639  67.224  1.00  0.00    -0.416 C  
HETATM   27  O   UNL     1     -12.411  12.401  69.110  1.00  0.00    -0.086 OA 
HETATM   28  H   UNL     1      -9.319  13.296  67.909  1.00  0.00     0.000 HD 
ENDROOT
BRANCH   8  29
HETATM   29  N   UNL     1      -7.953   3.524  70.357  1.00  0.00    -0.046 N  
HETATM   30  H   UNL     1      -6.970   3.508  70.628  1.00  0.00     0.000 HD 
HETATM   31  C   UNL     1      -8.797   2.590  70.926  1.00  0.00    -0.075 C  
HETATM   32  O   UNL     1     -10.004   2.489  70.714  1.00  0.00    -0.002 OA 
BRANCH  31  33
HETATM   33  C   UNL     1      -8.060   1.621  71.859  1.00  0.00    -0.045 C  
BRANCH  33  34
HETATM   34  N   UNL     1      -6.740   2.186  72.179  1.00  0.00    -0.015 NA 
HETATM   35  C   UNL     1      -7.600   3.733  73.946  1.00  0.00    -0.074 C  
HETATM   36  C   UNL     1      -5.163   3.302  73.621  1.00  0.00     0.000 C  
HETATM   37  C   UNL     1      -6.611   1.500  74.563  1.00  0.00    -0.016 C  
HETATM   38  H   UNL     1      -6.514   2.933  71.522  1.00  0.00     0.000 HD 
HETATM   39  C   UNL     1      -6.564   2.663  73.561  1.00  0.00    -0.022 C  
ENDBRANCH  33  34
ENDBRANCH  31  33
ENDBRANCH   8  29
BRANCH  15  40
HETATM   40  N   UNL     1      -9.198   4.758  65.815  1.00  0.00    -0.143 NA 
HETATM   41  C   UNL     1      -8.147   4.911  64.807  1.00  0.00    -0.109 C  
HETATM   42  C   UNL     1     -10.495   4.367  65.264  1.00  0.00    -0.179 C  
ENDBRANCH  15  40
BRANCH  26  43
HETATM   43  C   UNL     1     -10.878  14.837  67.118  1.00  0.00    -0.311 C  
HETATM   44  N   UNL     1     -10.831  15.480  65.932  1.00  0.00    -0.327 N  
HETATM   45  H2  UNL     1     -11.383  15.160  65.136  1.00  0.00     0.000 HD 
HETATM   46  H1  UNL     1     -10.225  16.298  65.860  1.00  0.00     0.000 HD 
HETATM   47  O   UNL     1     -10.155  15.226  68.037  1.00  0.00    -0.226 OA 
ENDBRANCH  26  43
BRANCH  20  48
HETATM   48  N   UNL     1     -10.456  12.055  64.224  1.00  0.00    -0.303 NA 
HETATM   49  C   UNL     1     -11.335  12.397  63.106  1.00  0.00    -0.151 C  
HETATM   50  C   UNL     1      -9.648  10.886  63.889  1.00  0.00    -0.284 C  
ENDBRANCH  20  48
TORSDOF 6
ENDMDL
MODEL       32
REMARK 921   NORMALIZED FREE ENERGY PREDICTED BY IDOCK:   -5.30 KCAL/MOL
REMARK 922        TOTAL FREE ENERGY PREDICTED BY IDOCK:   -7.54 KCAL/MOL
REMARK 923 INTER-LIGAND FREE ENERGY PREDICTED BY IDOCK:   -7.33 KCAL/MOL
REMARK 924 INTRA-LIGAND FREE ENERGY PREDICTED BY IDOCK:   -0.21 KCAL/MOL
REMARK 927      BINDING AFFINITY PREDICTED BY RF-SCORE:    0.00 PKD
ROOT
HETATM    1  C   UNL     1      -9.479   5.903  68.966  1.00  0.00    -0.149 C  
HETATM    2  C   UNL     1      -8.643   6.519  67.857  1.00  0.00    -0.117 C  
HETATM    3  C   UNL     1      -9.180   7.757  67.221  1.00  0.00    -0.162 A  
HETATM    4  C   UNL     1     -10.098   8.543  67.965  1.00  0.00    -0.245 A  
HETATM    5  C   UNL     1     -10.471   8.193  69.373  1.00  0.00    -0.220 C  
HETATM    6  C   UNL     1     -10.647   9.690  67.382  1.00  0.00    -0.268 A  
HETATM    7  O   UNL     1     -11.564  10.495  68.009  1.00  0.00    -0.640 OA 
HETATM    8  C   UNL     1     -10.310  10.025  66.072  1.00  0.00    -0.152 A  
HETATM    9  C   UNL     1     -10.031   6.882  69.943  1.00  0.00    -0.185 C  
HETATM   10  O   UNL     1     -11.155   8.969  70.048  1.00  0.00    -0.239 OA 
HETATM   11  C   UNL     1     -10.214   6.549  71.245  1.00  0.00    -0.198 C  
HETATM   12  H   UNL     1     -11.937  11.274  67.613  1.00  0.00     0.000 HD 
HETATM   13  C   UNL     1      -9.371   9.270  65.360  1.00  0.00    -0.292 A  
HETATM   14  C   UNL     1      -8.527   4.966  69.673  1.00  0.00    -0.090 C  
HETATM   15  C   UNL     1      -8.748   8.131  65.915  1.00  0.00    -0.156 A  
HETATM   16  C   UNL     1      -9.892   5.150  71.823  1.00  0.00    -0.174 C  
HETATM   17  C   UNL     1      -9.146   4.202  70.842  1.00  0.00    -0.180 C  
HETATM   18  H   UNL     1      -5.812   2.913  72.789  1.00  0.00     0.000 HD 
HETATM   19  O   UNL     1     -10.902   7.382  72.120  1.00  0.00    -0.220 OA 
HETATM   20  C   UNL     1      -7.921   3.388  71.405  1.00  0.00    -0.060 C  
HETATM   21  H   UNL     1     -11.030   7.148  73.032  1.00  0.00     0.000 HD 
HETATM   22  C   UNL     1      -9.208   5.096  73.212  1.00  0.00    -0.131 C  
HETATM   23  O   UNL     1     -11.206   4.596  72.090  1.00  0.00     0.103 OA 
HETATM   24  O   UNL     1      -6.490   3.268  73.354  1.00  0.00    -0.022 OA 
HETATM   25  C   UNL     1      -7.816   3.244  72.905  1.00  0.00    -0.061 C  
HETATM   26  C   UNL     1      -8.774   3.746  73.702  1.00  0.00    -0.089 C  
HETATM   27  O   UNL     1      -8.964   6.074  73.915  1.00  0.00    -0.126 OA 
HETATM   28  H   UNL     1     -11.009   3.738  72.446  1.00  0.00     0.000 HD 
ENDROOT
BRANCH   8  29
HETATM   29  N   UNL     1     -10.891  11.185  65.525  1.00  0.00    -0.188 N  
HETATM   30  H   UNL     1     -11.345  11.838  66.164  1.00  0.00     0.000 HD 
HETATM   31  C   UNL     1     -10.884  11.494  64.179  1.00  0.00    -0.372 C  
HETATM   32  O   UNL     1     -10.368  10.820  63.290  1.00  0.00    -0.281 OA 
BRANCH  31  33
HETATM   33  C   UNL     1     -11.643  12.790  63.869  1.00  0.00    -0.452 C  
BRANCH  33  34
HETATM   34  N   UNL     1     -12.058  13.409  65.137  1.00  0.00    -0.384 NA 
HETATM   35  C   UNL     1      -9.825  14.432  65.610  1.00  0.00    -0.322 C  
HETATM   36  C   UNL     1     -11.870  15.034  66.909  1.00  0.00    -0.110 C  
HETATM   37  C   UNL     1     -11.658  15.787  64.538  1.00  0.00    -0.247 C  
HETATM   38  H   UNL     1     -11.995  12.727  65.893  1.00  0.00     0.000 HD 
HETATM   39  C   UNL     1     -11.346  14.642  65.513  1.00  0.00    -0.341 C  
ENDBRANCH  33  34
ENDBRANCH  31  33
ENDBRANCH   8  29
BRANCH  15  40
HETATM   40  N   UNL     1      -7.748   7.483  65.190  1.00  0.00    -0.103 NA 
HETATM   41  C   UNL     1      -6.365   7.963  65.243  1.00  0.00    -0.041 C  
HETATM   42  C   UNL     1      -7.974   6.444  64.186  1.00  0.00    -0.096 C  
ENDBRANCH  15  40
BRANCH  26  43
HETATM   43  C   UNL     1      -9.736   2.664  74.075  1.00  0.00    -0.094 C  
HETATM   44  N   UNL     1     -10.981   3.032  74.446  1.00  0.00    -0.005 N  
HETATM   45  H2  UNL     1     -11.255   4.015  74.470  1.00  0.00     0.000 HD 
HETATM   46  H1  UNL     1     -11.637   2.294  74.701  1.00  0.00     0.000 HD 
HETATM   47  O   UNL     1      -9.432   1.470  74.112  1.00  0.00    -0.063 OA 
ENDBRANCH  26  43
BRANCH  20  48
HETATM   48  N   UNL     1      -7.775   2.164  70.583  1.00  0.00    -0.039 NA 
HETATM   49  C   UNL     1      -6.776   2.252  69.519  1.00  0.00    -0.033 C  
HETATM   50  C   UNL     1      -9.042   1.678  70.044  1.00  0.00    -0.086 C  
ENDBRANCH  20  48
TORSDOF 6
ENDMDL
MODEL       33
REMARK 921   NORMALIZED FREE ENERGY PREDICTED BY IDOCK:   -5.29 KCAL/MOL
REMARK 922        TOTAL FREE ENERGY PREDICTED BY IDOCK:   -7.52 KCAL/MOL
REMARK 923 INTER-LIGAND FREE ENERGY PREDICTED BY IDOCK:   -6.69 KCAL/MOL
REMARK 924 INTRA-LIGAND FREE ENERGY PREDICTED BY IDOCK:   -0.84 KCAL/MOL
REMARK 927      BINDING AFFINITY PREDICTED BY RF-SCORE:    0.00 PKD
ROOT
HETATM    1  C   UNL     1      -8.760   9.539  67.015  1.00  0.00    -0.135 C  
HETATM    2  C   UNL     1      -9.385  10.666  66.211  1.00  0.00    -0.199 C  
HETATM    3  C   UNL     1      -8.937  12.051  66.535  1.00  0.00    -0.193 A  
HETATM    4  C   UNL     1      -7.670  12.213  67.153  1.00  0.00    -0.151 A  
HETATM    5  C   UNL     1      -6.767  11.046  67.413  1.00  0.00    -0.080 C  
HETATM    6  C   UNL     1      -7.237  13.497  67.502  1.00  0.00    -0.154 A  
HETATM    7  O   UNL     1      -6.044  13.750  68.130  1.00  0.00    -0.094 OA 
HETATM    8  C   UNL     1      -8.068  14.591  67.268  1.00  0.00    -0.196 A  
HETATM    9  C   UNL     1      -7.287   9.659  67.207  1.00  0.00    -0.087 C  
HETATM   10  O   UNL     1      -5.614  11.227  67.816  1.00  0.00    -0.043 OA 
HETATM   11  C   UNL     1      -6.499   8.558  67.292  1.00  0.00    -0.058 C  
HETATM   12  H   UNL     1      -5.750  14.623  68.367  1.00  0.00     0.000 HD 
HETATM   13  C   UNL     1      -9.296  14.429  66.620  1.00  0.00    -0.297 A  
HETATM   14  C   UNL     1      -9.066   8.295  66.214  1.00  0.00    -0.235 C  
HETATM   15  C   UNL     1      -9.763  13.163  66.200  1.00  0.00    -0.248 A  
HETATM   16  C   UNL     1      -7.039   7.111  67.219  1.00  0.00    -0.084 C  
HETATM   17  C   UNL     1      -8.542   7.001  66.833  1.00  0.00    -0.120 C  
HETATM   18  H   UNL     1      -8.738   4.472  63.650  1.00  0.00     0.000 HD 
HETATM   19  O   UNL     1      -5.161   8.648  67.661  1.00  0.00    -0.033 OA 
HETATM   20  C   UNL     1      -8.942   5.922  65.759  1.00  0.00    -0.120 C  
HETATM   21  H   UNL     1      -4.609   7.877  67.720  1.00  0.00     0.000 HD 
HETATM   22  C   UNL     1      -6.220   6.087  66.393  1.00  0.00    -0.037 C  
HETATM   23  O   UNL     1      -6.876   6.631  68.579  1.00  0.00    -0.065 OA 
HETATM   24  O   UNL     1      -7.935   4.414  64.155  1.00  0.00    -0.086 OA 
HETATM   25  C   UNL     1      -7.958   4.806  65.499  1.00  0.00    -0.095 C  
HETATM   26  C   UNL     1      -6.823   4.725  66.212  1.00  0.00    -0.062 C  
HETATM   27  O   UNL     1      -5.142   6.322  65.850  1.00  0.00    -0.012 OA 
HETATM   28  H   UNL     1      -7.207   5.742  68.534  1.00  0.00     0.000 HD 
ENDROOT
BRANCH   8  29
HETATM   29  N   UNL     1      -7.592  15.862  67.641  1.00  0.00    -0.139 N  
HETATM   30  H   UNL     1      -6.745  16.207  67.190  1.00  0.00     0.000 HD 
HETATM   31  C   UNL     1      -8.202  16.672  68.580  1.00  0.00    -0.245 C  
HETATM   32  O   UNL     1      -9.230  16.407  69.198  1.00  0.00    -0.257 OA 
BRANCH  31  33
HETATM   33  C   UNL     1      -7.429  17.974  68.824  1.00  0.00    -0.264 C  
BRANCH  33  34
HETATM   34  N   UNL     1      -6.914  18.466  67.538  1.00  0.00    -0.203 NA 
HETATM   35  C   UNL     1      -8.610  20.291  67.320  1.00  0.00    -0.425 C  
HETATM   36  C   UNL     1      -6.607  20.148  65.837  1.00  0.00    -0.255 C  
HETATM   37  C   UNL     1      -6.314  20.774  68.236  1.00  0.00    -0.343 C  
HETATM   38  H   UNL     1      -7.298  17.909  66.774  1.00  0.00     0.000 HD 
HETATM   39  C   UNL     1      -7.124  19.899  67.268  1.00  0.00    -0.226 C  
ENDBRANCH  33  34
ENDBRANCH  31  33
ENDBRANCH   8  29
BRANCH  15  40
HETATM   40  N   UNL     1     -10.949  13.085  65.469  1.00  0.00    -0.272 NA 
HETATM   41  C   UNL     1     -10.918  13.084  64.005  1.00  0.00    -0.389 C  
HETATM   42  C   UNL     1     -12.294  13.200  66.032  1.00  0.00    -0.359 C  
ENDBRANCH  15  40
BRANCH  26  43
HETATM   43  C   UNL     1      -7.001   3.755  67.335  1.00  0.00    -0.055 C  
HETATM   44  N   UNL     1      -8.188   3.120  67.433  1.00  0.00    -0.081 N  
HETATM   45  H2  UNL     1      -8.937   3.296  66.764  1.00  0.00     0.000 HD 
HETATM   46  H1  UNL     1      -8.310   2.458  68.200  1.00  0.00     0.000 HD 
HETATM   47  O   UNL     1      -6.143   3.552  68.197  1.00  0.00    -0.029 OA 
ENDBRANCH  26  43
BRANCH  20  48
HETATM   48  N   UNL     1     -10.357   5.552  65.994  1.00  0.00    -0.067 NA 
HETATM   49  C   UNL     1     -10.763   5.530  67.399  1.00  0.00    -0.139 C  
HETATM   50  C   UNL     1     -10.743   4.305  65.340  1.00  0.00    -0.053 C  
ENDBRANCH  20  48
TORSDOF 6
ENDMDL
MODEL       34
REMARK 921   NORMALIZED FREE ENERGY PREDICTED BY IDOCK:   -5.18 KCAL/MOL
REMARK 922        TOTAL FREE ENERGY PREDICTED BY IDOCK:   -7.38 KCAL/MOL
REMARK 923 INTER-LIGAND FREE ENERGY PREDICTED BY IDOCK:   -6.97 KCAL/MOL
REMARK 924 INTRA-LIGAND FREE ENERGY PREDICTED BY IDOCK:   -0.40 KCAL/MOL
REMARK 927      BINDING AFFINITY PREDICTED BY RF-SCORE:    0.00 PKD
ROOT
HETATM    1  C   UNL     1      -8.413  11.982  68.144  1.00  0.00    -0.171 C  
HETATM    2  C   UNL     1      -8.015  10.821  67.248  1.00  0.00    -0.117 C  
HETATM    3  C   UNL     1      -8.220   9.449  67.797  1.00  0.00    -0.114 A  
HETATM    4  C   UNL     1      -9.185   9.280  68.823  1.00  0.00    -0.136 A  
HETATM    5  C   UNL     1     -10.031  10.421  69.302  1.00  0.00    -0.228 C  
HETATM    6  C   UNL     1      -9.375   8.012  69.384  1.00  0.00    -0.155 A  
HETATM    7  O   UNL     1     -10.260   7.757  70.400  1.00  0.00    -0.194 OA 
HETATM    8  C   UNL     1      -8.593   6.944  68.949  1.00  0.00    -0.131 A  
HETATM    9  C   UNL     1      -9.718  11.808  68.839  1.00  0.00     0.005 C  
HETATM   10  O   UNL     1     -10.961  10.220  70.089  1.00  0.00    -0.278 OA 
HETATM   11  C   UNL     1     -10.512  12.872  69.120  1.00  0.00     0.122 C  
HETATM   12  H   UNL     1     -10.389   6.896  70.780  1.00  0.00     0.000 HD 
HETATM   13  C   UNL     1      -7.674   7.108  67.907  1.00  0.00    -0.113 A  
HETATM   14  C   UNL     1      -8.493  13.165  67.207  1.00  0.00    -0.199 C  
HETATM   15  C   UNL     1      -7.476   8.354  67.270  1.00  0.00    -0.093 A  
HETATM   16  C   UNL     1     -10.139  14.333  68.770  1.00  0.00    -0.217 C  
HETATM   17  C   UNL     1      -8.870  14.481  67.883  1.00  0.00    -0.176 C  
HETATM   18  H   UNL     1      -9.961  16.730  64.670  1.00  0.00     0.000 HD 
HETATM   19  O   UNL     1     -11.633  12.750  69.932  1.00  0.00    -0.461 OA 
HETATM   20  C   UNL     1      -8.943  15.481  66.668  1.00  0.00    -0.287 C  
HETATM   21  H   UNL     1     -12.189  13.495  70.129  1.00  0.00     0.000 HD 
HETATM   22  C   UNL     1     -11.266  15.239  68.213  1.00  0.00    -0.314 C  
HETATM   23  O   UNL     1      -9.866  14.920  70.068  1.00  0.00    -0.462 OA 
HETATM   24  O   UNL     1     -10.547  16.792  65.416  1.00  0.00    -0.563 OA 
HETATM   25  C   UNL     1     -10.038  16.520  66.692  1.00  0.00    -0.294 C  
HETATM   26  C   UNL     1     -10.866  16.608  67.746  1.00  0.00    -0.292 C  
HETATM   27  O   UNL     1     -12.443  14.906  68.092  1.00  0.00     0.067 OA 
HETATM   28  H   UNL     1      -9.638  15.817  69.854  1.00  0.00     0.000 HD 
ENDROOT
BRANCH   8  29
HETATM   29  N   UNL     1      -8.815   5.689  69.545  1.00  0.00    -0.112 N  
HETATM   30  H   UNL     1      -9.637   5.160  69.253  1.00  0.00     0.000 HD 
HETATM   31  C   UNL     1      -7.990   5.128  70.501  1.00  0.00    -0.090 C  
HETATM   32  O   UNL     1      -6.961   5.631  70.945  1.00  0.00    -0.057 OA 
BRANCH  31  33
HETATM   33  C   UNL     1      -8.513   3.779  71.012  1.00  0.00    -0.071 C  
BRANCH  33  34
HETATM   34  N   UNL     1      -9.684   4.020  71.868  1.00  0.00    -0.158 NA 
HETATM   35  C   UNL     1      -8.736   2.832  73.854  1.00  0.00    -0.072 C  
HETATM   36  C   UNL     1     -10.789   4.244  74.000  1.00  0.00    -0.301 C  
HETATM   37  C   UNL     1      -8.571   5.337  73.657  1.00  0.00    -0.111 C  
HETATM   38  H   UNL     1     -10.398   3.314  71.687  1.00  0.00     0.000 HD 
HETATM   39  C   UNL     1      -9.416   4.101  73.314  1.00  0.00    -0.111 C  
ENDBRANCH  33  34
ENDBRANCH  31  33
ENDBRANCH   8  29
BRANCH  15  40
HETATM   40  N   UNL     1      -6.619   8.426  66.172  1.00  0.00    -0.053 NA 
HETATM   41  C   UNL     1      -7.069   7.983  64.851  1.00  0.00    -0.071 C  
HETATM   42  C   UNL     1      -5.190   8.732  66.237  1.00  0.00    -0.030 C  
ENDBRANCH  15  40
BRANCH  26  43
HETATM   43  C   UNL     1     -10.389  17.680  68.673  1.00  0.00    -0.359 C  
HETATM   44  N   UNL     1     -10.016  18.858  68.131  1.00  0.00    -0.355 N  
HETATM   45  H2  UNL     1     -10.058  19.012  67.123  1.00  0.00     0.000 HD 
HETATM   46  H1  UNL     1      -9.691  19.590  68.763  1.00  0.00     0.000 HD 
HETATM   47  O   UNL     1     -10.272  17.520  69.890  1.00  0.00     0.145 OA 
ENDBRANCH  26  43
BRANCH  20  48
HETATM   48  N   UNL     1      -7.564  15.938  66.377  1.00  0.00    -0.010 NA 
HETATM   49  C   UNL     1      -6.592  15.682  67.439  1.00  0.00    -0.159 C  
HETATM   50  C   UNL     1      -7.497  17.336  65.960  1.00  0.00    -0.197 C  
ENDBRANCH  20  48
TORSDOF 6
ENDMDL
MODEL       35
REMARK 921   NORMALIZED FREE ENERGY PREDICTED BY IDOCK:   -5.03 KCAL/MOL
REMARK 922        TOTAL FREE ENERGY PREDICTED BY IDOCK:   -7.17 KCAL/MOL
REMARK 923 INTER-LIGAND FREE ENERGY PREDICTED BY IDOCK:   -7.58 KCAL/MOL
REMARK 924 INTRA-LIGAND FREE ENERGY PREDICTED BY IDOCK:    0.41 KCAL/MOL
REMARK 927      BINDING AFFINITY PREDICTED BY RF-SCORE:    0.00 PKD
ROOT
HETATM    1  C   UNL     1      -9.225  14.507  67.833  1.00  0.00    -0.196 C  
HETATM    2  C   UNL     1     -10.037  13.627  68.770  1.00  0.00    -0.129 C  
HETATM    3  C   UNL     1      -9.797  12.157  68.685  1.00  0.00    -0.110 A  
HETATM    4  C   UNL     1      -8.555  11.714  68.163  1.00  0.00    -0.158 A  
HETATM    5  C   UNL     1      -7.478  12.679  67.771  1.00  0.00    -0.131 C  
HETATM    6  C   UNL     1      -8.315  10.341  68.037  1.00  0.00    -0.114 A  
HETATM    7  O   UNL     1      -7.159   9.818  67.515  1.00  0.00    -0.086 OA 
HETATM    8  C   UNL     1      -9.309   9.433  68.396  1.00  0.00    -0.134 A  
HETATM    9  C   UNL     1      -7.784  14.142  67.735  1.00  0.00    -0.175 C  
HETATM   10  O   UNL     1      -6.356  12.268  67.458  1.00  0.00    -0.106 OA 
HETATM   11  C   UNL     1      -6.835  15.087  67.519  1.00  0.00    -0.168 C  
HETATM   12  H   UNL     1      -6.996   8.886  67.430  1.00  0.00     0.000 HD 
HETATM   13  C   UNL     1     -10.514   9.875  68.950  1.00  0.00    -0.229 A  
HETATM   14  C   UNL     1      -9.358  15.894  68.417  1.00  0.00    -0.201 C  
HETATM   15  C   UNL     1     -10.792  11.247  69.147  1.00  0.00    -0.222 A  
HETATM   16  C   UNL     1      -7.149  16.591  67.342  1.00  0.00    -0.154 C  
HETATM   17  C   UNL     1      -8.627  16.981  67.632  1.00  0.00    -0.213 C  
HETATM   18  H   UNL     1      -8.514  19.987  70.374  1.00  0.00     0.000 HD 
HETATM   19  O   UNL     1      -5.518  14.743  67.236  1.00  0.00    -0.297 OA 
HETATM   20  C   UNL     1      -8.883  18.265  68.507  1.00  0.00    -0.304 C  
HETATM   21  H   UNL     1      -4.852  15.405  67.085  1.00  0.00     0.000 HD 
HETATM   22  C   UNL     1      -6.204  17.602  68.040  1.00  0.00    -0.158 C  
HETATM   23  O   UNL     1      -6.880  16.818  65.934  1.00  0.00     0.084 OA 
HETATM   24  O   UNL     1      -7.698  19.845  69.907  1.00  0.00     0.112 OA 
HETATM   25  C   UNL     1      -7.747  19.251  68.639  1.00  0.00    -0.359 C  
HETATM   26  C   UNL     1      -6.595  19.049  67.979  1.00  0.00    -0.244 C  
HETATM   27  O   UNL     1      -5.189  17.300  68.664  1.00  0.00    -0.137 OA 
HETATM   28  H   UNL     1      -7.072  17.742  65.825  1.00  0.00     0.000 HD 
ENDROOT
BRANCH   8  29
HETATM   29  N   UNL     1      -9.025   8.063  68.247  1.00  0.00    -0.133 N  
HETATM   30  H   UNL     1      -8.074   7.748  68.441  1.00  0.00     0.000 HD 
HETATM   31  C   UNL     1      -9.952   7.117  67.854  1.00  0.00    -0.154 C  
HETATM   32  O   UNL     1     -11.135   7.334  67.598  1.00  0.00    -0.139 OA 
BRANCH  31  33
HETATM   33  C   UNL     1      -9.344   5.715  67.722  1.00  0.00    -0.110 C  
BRANCH  33  34
HETATM   34  N   UNL     1      -9.705   4.930  68.911  1.00  0.00    -0.162 NA 
HETATM   35  C   UNL     1      -9.238   2.716  67.846  1.00  0.00    -0.252 C  
HETATM   36  C   UNL     1      -9.633   2.959  70.298  1.00  0.00    -0.141 C  
HETATM   37  C   UNL     1      -7.513   3.827  69.307  1.00  0.00    -0.053 C  
HETATM   38  H   UNL     1     -10.715   4.791  68.942  1.00  0.00     0.000 HD 
HETATM   39  C   UNL     1      -9.017   3.636  69.058  1.00  0.00    -0.122 C  
ENDBRANCH  33  34
ENDBRANCH  31  33
ENDBRANCH   8  29
BRANCH  15  40
HETATM   40  N   UNL     1     -11.970  11.615  69.797  1.00  0.00    -0.327 NA 
HETATM   41  C   UNL     1     -12.354  13.025  69.893  1.00  0.00    -0.110 C  
HETATM   42  C   UNL     1     -12.805  10.719  70.597  1.00  0.00    -0.293 C  
ENDBRANCH  15  40
BRANCH  26  43
HETATM   43  C   UNL     1      -6.595  19.843  66.712  1.00  0.00    -0.198 C  
HETATM   44  N   UNL     1      -7.357  20.956  66.669  1.00  0.00    -0.532 N  
HETATM   45  H2  UNL     1      -7.914  21.245  67.473  1.00  0.00     0.000 HD 
HETATM   46  H1  UNL     1      -7.357  21.498  65.804  1.00  0.00     0.000 HD 
HETATM   47  O   UNL     1      -5.980  19.502  65.700  1.00  0.00    -0.173 OA 
ENDBRANCH  26  43
BRANCH  20  48
HETATM   48  N   UNL     1     -10.219  18.797  68.147  1.00  0.00    -0.374 NA 
HETATM   49  C   UNL     1     -10.533  18.762  66.719  1.00  0.00    -0.420 C  
HETATM   50  C   UNL     1     -10.471  20.131  68.685  1.00  0.00    -0.055 C  
ENDBRANCH  20  48
TORSDOF 6
ENDMDL
MODEL       36
REMARK 921   NORMALIZED FREE ENERGY PREDICTED BY IDOCK:   -4.98 KCAL/MOL
REMARK 922        TOTAL FREE ENERGY PREDICTED BY IDOCK:   -7.11 KCAL/MOL
REMARK 923 INTER-LIGAND FREE ENERGY PREDICTED BY IDOCK:   -7.49 KCAL/MOL
REMARK 924 INTRA-LIGAND FREE ENERGY PREDICTED BY IDOCK:    0.38 KCAL/MOL
REMARK 927      BINDING AFFINITY PREDICTED BY RF-SCORE:    0.00 PKD
ROOT
HETATM    1  C   UNL     1      -8.791  14.067  68.537  1.00  0.00    -0.160 C  
HETATM    2  C   UNL     1      -7.794  12.923  68.449  1.00  0.00    -0.133 C  
HETATM    3  C   UNL     1      -8.349  11.541  68.534  1.00  0.00    -0.146 A  
HETATM    4  C   UNL     1      -9.712  11.348  68.187  1.00  0.00    -0.194 A  
HETATM    5  C   UNL     1     -10.561  12.474  67.682  1.00  0.00    -0.217 C  
HETATM    6  C   UNL     1     -10.271  10.070  68.292  1.00  0.00    -0.173 A  
HETATM    7  O   UNL     1     -11.585   9.792  68.010  1.00  0.00    -0.535 OA 
HETATM    8  C   UNL     1      -9.493   9.015  68.762  1.00  0.00    -0.148 A  
HETATM    9  C   UNL     1     -10.029  13.872  67.733  1.00  0.00    -0.241 C  
HETATM   10  O   UNL     1     -11.697  12.254  67.250  1.00  0.00    -0.403 OA 
HETATM   11  C   UNL     1     -10.678  14.925  67.177  1.00  0.00    -0.296 C  
HETATM   12  H   UNL     1     -11.964   8.923  68.081  1.00  0.00     0.000 HD 
HETATM   13  C   UNL     1      -8.139   9.202  69.061  1.00  0.00    -0.102 A  
HETATM   14  C   UNL     1      -8.032  15.264  68.015  1.00  0.00    -0.135 C  
HETATM   15  C   UNL     1      -7.508  10.460  68.927  1.00  0.00    -0.099 A  
HETATM   16  C   UNL     1     -10.219  16.394  67.335  1.00  0.00    -0.281 C  
HETATM   17  C   UNL     1      -8.830  16.566  68.014  1.00  0.00    -0.197 C  
HETATM   18  H   UNL     1      -6.590  18.859  65.505  1.00  0.00     0.000 HD 
HETATM   19  O   UNL     1     -11.931  14.781  66.590  1.00  0.00    -0.314 OA 
HETATM   20  C   UNL     1      -7.821  17.585  67.363  1.00  0.00    -0.202 C  
HETATM   21  H   UNL     1     -12.385  15.520  66.201  1.00  0.00     0.000 HD 
HETATM   22  C   UNL     1     -10.294  17.301  66.081  1.00  0.00    -0.317 C  
HETATM   23  O   UNL     1     -11.231  16.962  68.205  1.00  0.00    -0.297 OA 
HETATM   24  O   UNL     1      -7.527  18.905  65.355  1.00  0.00    -0.452 OA 
HETATM   25  C   UNL     1      -8.392  18.616  66.419  1.00  0.00    -0.276 C  
HETATM   26  C   UNL     1      -9.716  18.680  66.207  1.00  0.00    -0.324 C  
HETATM   27  O   UNL     1     -10.753  16.961  64.993  1.00  0.00    -0.700 OA 
HETATM   28  H   UNL     1     -10.949  17.864  68.302  1.00  0.00     0.000 HD 
ENDROOT
BRANCH   8  29
HETATM   29  N   UNL     1     -10.099   7.748  68.856  1.00  0.00    -0.190 N  
HETATM   30  H   UNL     1     -10.756   7.588  69.619  1.00  0.00     0.000 HD 
HETATM   31  C   UNL     1      -9.862   6.709  67.977  1.00  0.00    -0.131 C  
HETATM   32  O   UNL     1      -9.113   6.748  67.004  1.00  0.00    -0.124 OA 
BRANCH  31  33
HETATM   33  C   UNL     1     -10.618   5.430  68.360  1.00  0.00    -0.078 C  
BRANCH  33  34
HETATM   34  N   UNL     1     -10.758   4.588  67.163  1.00  0.00     0.077 NA 
HETATM   35  C   UNL     1      -8.298   4.259  66.853  1.00  0.00    -0.101 C  
HETATM   36  C   UNL     1      -9.991   2.927  65.591  1.00  0.00     0.484 C  
HETATM   37  C   UNL     1      -9.688   2.522  68.036  1.00  0.00     0.117 C  
HETATM   38  H   UNL     1     -10.864   5.175  66.335  1.00  0.00     0.000 HD 
HETATM   39  C   UNL     1      -9.686   3.602  66.943  1.00  0.00    -0.065 C  
ENDBRANCH  33  34
ENDBRANCH  31  33
ENDBRANCH   8  29
BRANCH  15  40
HETATM   40  N   UNL     1      -6.134  10.556  69.144  1.00  0.00    -0.040 NA 
HETATM   41  C   UNL     1      -5.606  10.713  70.501  1.00  0.00    -0.090 C  
HETATM   42  C   UNL     1      -5.126  10.717  68.096  1.00  0.00    -0.033 C  
ENDBRANCH  15  40
BRANCH  26  43
HETATM   43  C   UNL     1     -10.315  19.740  67.074  1.00  0.00    -0.465 C  
HETATM   44  N   UNL     1     -11.661  19.832  67.116  1.00  0.00     0.601 N  
HETATM   45  H2  UNL     1     -12.249  19.199  66.573  1.00  0.00     0.000 HD 
HETATM   46  H1  UNL     1     -12.069  20.555  67.708  1.00  0.00     0.000 HD 
HETATM   47  O   UNL     1      -9.642  20.559  67.704  1.00  0.00    -0.394 OA 
ENDBRANCH  26  43
BRANCH  20  48
HETATM   48  N   UNL     1      -6.905  18.057  68.428  1.00  0.00    -0.217 NA 
HETATM   49  C   UNL     1      -7.072  19.460  68.807  1.00  0.00    -0.347 C  
HETATM   50  C   UNL     1      -5.500  17.776  68.146  1.00  0.00    -0.149 C  
ENDBRANCH  20  48
TORSDOF 6
ENDMDL
MODEL       37
REMARK 921   NORMALIZED FREE ENERGY PREDICTED BY IDOCK:   -4.94 KCAL/MOL
REMARK 922        TOTAL FREE ENERGY PREDICTED BY IDOCK:   -7.06 KCAL/MOL
REMARK 923 INTER-LIGAND FREE ENERGY PREDICTED BY IDOCK:   -6.77 KCAL/MOL
REMARK 924 INTRA-LIGAND FREE ENERGY PREDICTED BY IDOCK:   -0.29 KCAL/MOL
REMARK 927      BINDING AFFINITY PREDICTED BY RF-SCORE:    0.00 PKD
ROOT
HETATM    1  C   UNL     1      -8.291  14.922  66.551  1.00  0.00     0.071 C  
HETATM    2  C   UNL     1      -9.476  13.971  66.515  1.00  0.00    -0.295 C  
HETATM    3  C   UNL     1      -9.166  12.513  66.487  1.00  0.00    -0.210 A  
HETATM    4  C   UNL     1      -7.908  12.090  66.990  1.00  0.00    -0.138 A  
HETATM    5  C   UNL     1      -6.940  13.057  67.598  1.00  0.00    -0.154 C  
HETATM    6  C   UNL     1      -7.574  10.732  66.945  1.00  0.00    -0.123 A  
HETATM    7  O   UNL     1      -6.371  10.233  67.376  1.00  0.00    -0.058 OA 
HETATM    8  C   UNL     1      -8.465   9.822  66.379  1.00  0.00    -0.124 A  
HETATM    9  C   UNL     1      -7.208  14.525  67.494  1.00  0.00    -0.210 C  
HETATM   10  O   UNL     1      -5.918  12.648  68.159  1.00  0.00    -0.066 OA 
HETATM   11  C   UNL     1      -6.454  15.457  68.128  1.00  0.00    -0.125 C  
HETATM   12  H   UNL     1      -6.144   9.310  67.346  1.00  0.00     0.000 HD 
HETATM   13  C   UNL     1      -9.721  10.239  65.926  1.00  0.00    -0.283 A  
HETATM   14  C   UNL     1      -8.884  16.240  66.988  1.00  0.00    -0.228 C  
HETATM   15  C   UNL     1     -10.132  11.589  65.991  1.00  0.00    -0.232 A  
HETATM   16  C   UNL     1      -6.627  16.981  67.926  1.00  0.00    -0.141 C  
HETATM   17  C   UNL     1      -7.876  17.383  67.089  1.00  0.00    -0.226 C  
HETATM   18  H   UNL     1      -9.955  20.069  69.332  1.00  0.00     0.000 HD 
HETATM   19  O   UNL     1      -5.323  15.105  68.857  1.00  0.00    -0.093 OA 
HETATM   20  C   UNL     1      -8.759  18.572  67.624  1.00  0.00    -0.267 C  
HETATM   21  H   UNL     1      -4.794  15.758  69.301  1.00  0.00     0.000 HD 
HETATM   22  C   UNL     1      -6.541  17.880  69.185  1.00  0.00    -0.240 C  
HETATM   23  O   UNL     1      -5.436  17.351  67.184  1.00  0.00    -0.119 OA 
HETATM   24  O   UNL     1      -9.048  19.952  69.591  1.00  0.00     0.149 OA 
HETATM   25  C   UNL     1      -8.130  19.501  68.635  1.00  0.00    -0.340 C  
HETATM   26  C   UNL     1      -6.849  19.336  69.001  1.00  0.00    -0.372 C  
HETATM   27  O   UNL     1      -6.278  17.480  70.318  1.00  0.00    -0.048 OA 
HETATM   28  H   UNL     1      -5.543  18.286  67.060  1.00  0.00     0.000 HD 
ENDROOT
BRANCH   8  29
HETATM   29  N   UNL     1      -8.083   8.468  66.351  1.00  0.00    -0.101 N  
HETATM   30  H   UNL     1      -7.137   8.245  66.043  1.00  0.00     0.000 HD 
HETATM   31  C   UNL     1      -8.909   7.422  66.713  1.00  0.00    -0.137 C  
HETATM   32  O   UNL     1     -10.066   7.526  67.116  1.00  0.00    -0.196 OA 
BRANCH  31  33
HETATM   33  C   UNL     1      -8.243   6.053  66.525  1.00  0.00    -0.107 C  
BRANCH  33  34
HETATM   34  N   UNL     1      -7.851   5.534  67.844  1.00  0.00    -0.096 NA 
HETATM   35  C   UNL     1      -9.477   3.634  67.811  1.00  0.00    -0.231 C  
HETATM   36  C   UNL     1      -7.657   3.802  69.511  1.00  0.00    -0.052 C  
HETATM   37  C   UNL     1      -7.075   3.280  67.140  1.00  0.00    -0.058 C  
HETATM   38  H   UNL     1      -8.341   6.045  68.578  1.00  0.00     0.000 HD 
HETATM   39  C   UNL     1      -8.025   4.084  68.040  1.00  0.00    -0.085 C  
ENDBRANCH  33  34
ENDBRANCH  31  33
ENDBRANCH   8  29
BRANCH  15  40
HETATM   40  N   UNL     1     -11.434  11.921  65.616  1.00  0.00    -0.298 NA 
HETATM   41  C   UNL     1     -11.915  11.622  64.266  1.00  0.00    -0.092 C  
HETATM   42  C   UNL     1     -12.352  12.747  66.401  1.00  0.00     0.012 C  
ENDBRANCH  15  40
BRANCH  26  43
HETATM   43  C   UNL     1      -5.977  20.262  68.216  1.00  0.00    -0.269 C  
HETATM   44  N   UNL     1      -5.186  21.114  68.903  1.00  0.00    -0.443 N  
HETATM   45  H2  UNL     1      -5.184  21.124  69.923  1.00  0.00     0.000 HD 
HETATM   46  H1  UNL     1      -4.591  21.746  68.367  1.00  0.00     0.000 HD 
HETATM   47  O   UNL     1      -5.987  20.321  66.984  1.00  0.00    -0.166 OA 
ENDBRANCH  26  43
BRANCH  20  48
HETATM   48  N   UNL     1      -9.448  19.181  66.462  1.00  0.00    -0.343 NA 
HETATM   49  C   UNL     1      -8.867  20.438  65.991  1.00  0.00     0.085 C  
HETATM   50  C   UNL     1     -10.886  19.336  66.661  1.00  0.00    -0.325 C  
ENDBRANCH  20  48
TORSDOF 6
ENDMDL
MODEL       38
REMARK 921   NORMALIZED FREE ENERGY PREDICTED BY IDOCK:   -4.92 KCAL/MOL
REMARK 922        TOTAL FREE ENERGY PREDICTED BY IDOCK:   -7.03 KCAL/MOL
REMARK 923 INTER-LIGAND FREE ENERGY PREDICTED BY IDOCK:   -7.97 KCAL/MOL
REMARK 924 INTRA-LIGAND FREE ENERGY PREDICTED BY IDOCK:    0.95 KCAL/MOL
REMARK 927      BINDING AFFINITY PREDICTED BY RF-SCORE:    0.00 PKD
ROOT
HETATM    1  C   UNL     1      -9.978  10.125  68.012  1.00  0.00    -0.173 C  
HETATM    2  C   UNL     1      -8.945   9.649  69.020  1.00  0.00    -0.148 C  
HETATM    3  C   UNL     1      -8.596   8.199  68.988  1.00  0.00    -0.133 A  
HETATM    4  C   UNL     1      -8.820   7.486  67.781  1.00  0.00    -0.132 A  
HETATM    5  C   UNL     1      -9.323   8.170  66.547  1.00  0.00    -0.206 C  
HETATM    6  C   UNL     1      -8.536   6.117  67.732  1.00  0.00    -0.114 A  
HETATM    7  O   UNL     1      -8.749   5.339  66.622  1.00  0.00    -0.114 OA 
HETATM    8  C   UNL     1      -8.070   5.469  68.873  1.00  0.00    -0.095 A  
HETATM    9  C   UNL     1      -9.794   9.587  66.636  1.00  0.00    -0.293 C  
HETATM   10  O   UNL     1      -9.371   7.562  65.473  1.00  0.00     0.173 OA 
HETATM   11  C   UNL     1     -10.139  10.316  65.545  1.00  0.00    -0.281 C  
HETATM   12  H   UNL     1      -8.555   4.409  66.588  1.00  0.00     0.000 HD 
HETATM   13  C   UNL     1      -7.811   6.185  70.047  1.00  0.00    -0.106 A  
HETATM   14  C   UNL     1      -9.815  11.627  67.994  1.00  0.00    -0.193 C  
HETATM   15  C   UNL     1      -8.031   7.578  70.140  1.00  0.00    -0.111 A  
HETATM   16  C   UNL     1     -10.757  11.732  65.623  1.00  0.00    -0.280 C  
HETATM   17  C   UNL     1     -10.770  12.354  67.048  1.00  0.00    -0.268 C  
HETATM   18  H   UNL     1      -8.958  15.986  66.743  1.00  0.00     0.000 HD 
HETATM   19  O   UNL     1     -10.153   9.759  64.271  1.00  0.00    -0.407 OA 
HETATM   20  C   UNL     1     -10.316  13.855  67.193  1.00  0.00    -0.265 C  
HETATM   21  H   UNL     1     -10.394  10.269  63.507  1.00  0.00     0.000 HD 
HETATM   22  C   UNL     1     -10.249  12.786  64.607  1.00  0.00    -0.297 C  
HETATM   23  O   UNL     1     -12.128  11.514  65.202  1.00  0.00    -0.025 OA 
HETATM   24  O   UNL     1      -9.264  15.624  65.920  1.00  0.00    -0.340 OA 
HETATM   25  C   UNL     1     -10.317  14.702  65.942  1.00  0.00    -0.319 C  
HETATM   26  C   UNL     1     -10.750  14.190  64.779  1.00  0.00    -0.436 C  
HETATM   27  O   UNL     1      -9.445  12.563  63.704  1.00  0.00    -0.049 OA 
HETATM   28  H   UNL     1     -12.508  12.384  65.249  1.00  0.00     0.000 HD 
ENDROOT
BRANCH   8  29
HETATM   29  N   UNL     1      -7.804   4.090  68.777  1.00  0.00    -0.067 N  
HETATM   30  H   UNL     1      -8.579   3.469  68.550  1.00  0.00     0.000 HD 
HETATM   31  C   UNL     1      -6.557   3.526  68.971  1.00  0.00    -0.037 C  
HETATM   32  O   UNL     1      -5.525   4.139  69.235  1.00  0.00    -0.011 OA 
BRANCH  31  33
HETATM   33  C   UNL     1      -6.580   1.997  68.860  1.00  0.00    -0.029 C  
BRANCH  33  34
HETATM   34  N   UNL     1      -5.719   1.592  67.738  1.00  0.00    -0.018 NA 
HETATM   35  C   UNL     1      -7.536   1.724  66.025  1.00  0.00    -0.062 C  
HETATM   36  C   UNL     1      -5.132   1.472  65.403  1.00  0.00    -0.004 C  
HETATM   37  C   UNL     1      -5.933   3.640  66.348  1.00  0.00    -0.024 C  
HETATM   38  H   UNL     1      -5.650   0.574  67.703  1.00  0.00     0.000 HD 
HETATM   39  C   UNL     1      -6.101   2.114  66.415  1.00  0.00    -0.023 C  
ENDBRANCH  33  34
ENDBRANCH  31  33
ENDBRANCH   8  29
BRANCH  15  40
HETATM   40  N   UNL     1      -7.657   8.248  71.305  1.00  0.00    -0.075 NA 
HETATM   41  C   UNL     1      -6.328   8.853  71.417  1.00  0.00    -0.073 C  
HETATM   42  C   UNL     1      -8.413   8.247  72.557  1.00  0.00    -0.187 C  
ENDBRANCH  15  40
BRANCH  26  43
HETATM   43  C   UNL     1     -12.174  14.582  64.554  1.00  0.00    -0.465 C  
HETATM   44  N   UNL     1     -12.411  15.749  63.917  1.00  0.00    -0.766 N  
HETATM   45  H2  UNL     1     -11.644  16.342  63.601  1.00  0.00     0.000 HD 
HETATM   46  H1  UNL     1     -13.383  16.017  63.764  1.00  0.00     0.000 HD 
HETATM   47  O   UNL     1     -13.131  13.923  64.966  1.00  0.00    -0.749 OA 
ENDBRANCH  26  43
BRANCH  20  48
HETATM   48  N   UNL     1     -10.970  14.410  68.402  1.00  0.00    -0.241 NA 
HETATM   49  C   UNL     1     -12.250  13.794  68.748  1.00  0.00    -0.186 C  
HETATM   50  C   UNL     1     -11.104  15.863  68.368  1.00  0.00    -0.345 C  
ENDBRANCH  20  48
TORSDOF 6
ENDMDL
MODEL       39
REMARK 921   NORMALIZED FREE ENERGY PREDICTED BY IDOCK:   -4.91 KCAL/MOL
REMARK 922        TOTAL FREE ENERGY PREDICTED BY IDOCK:   -7.01 KCAL/MOL
REMARK 923 INTER-LIGAND FREE ENERGY PREDICTED BY IDOCK:   -7.61 KCAL/MOL
REMARK 924 INTRA-LIGAND FREE ENERGY PREDICTED BY IDOCK:    0.59 KCAL/MOL
REMARK 927      BINDING AFFINITY PREDICTED BY RF-SCORE:    0.00 PKD
ROOT
HETATM    1  C   UNL     1      -9.567  10.678  68.306  1.00  0.00    -0.167 C  
HETATM    2  C   UNL     1      -8.393  10.304  69.196  1.00  0.00    -0.154 C  
HETATM    3  C   UNL     1      -8.099   8.849  69.342  1.00  0.00    -0.105 A  
HETATM    4  C   UNL     1      -8.545   7.973  68.318  1.00  0.00    -0.130 A  
HETATM    5  C   UNL     1      -9.229   8.486  67.089  1.00  0.00    -0.142 C  
HETATM    6  C   UNL     1      -8.315   6.599  68.444  1.00  0.00    -0.122 A  
HETATM    7  O   UNL     1      -8.736   5.672  67.524  1.00  0.00    -0.109 OA 
HETATM    8  C   UNL     1      -7.682   6.108  69.584  1.00  0.00    -0.098 A  
HETATM    9  C   UNL     1      -9.635   9.924  67.023  1.00  0.00    -0.218 C  
HETATM   10  O   UNL     1      -9.476   7.725  66.148  1.00  0.00    -0.157 OA 
HETATM   11  C   UNL     1     -10.137  10.496  65.900  1.00  0.00    -0.260 C  
HETATM   12  H   UNL     1      -8.579   4.739  67.609  1.00  0.00     0.000 HD 
HETATM   13  C   UNL     1      -7.206   6.981  70.569  1.00  0.00    -0.068 A  
HETATM   14  C   UNL     1      -9.364  12.147  68.020  1.00  0.00    -0.197 C  
HETATM   15  C   UNL     1      -7.366   8.381  70.472  1.00  0.00    -0.057 A  
HETATM   16  C   UNL     1     -10.691  11.940  65.848  1.00  0.00    -0.284 C  
HETATM   17  C   UNL     1     -10.443  12.773  67.138  1.00  0.00    -0.240 C  
HETATM   18  H   UNL     1      -8.600  16.206  65.962  1.00  0.00     0.000 HD 
HETATM   19  O   UNL     1     -10.384   9.751  64.752  1.00  0.00    -0.215 OA 
HETATM   20  C   UNL     1      -9.927  14.250  66.964  1.00  0.00    -0.258 C  
HETATM   21  H   UNL     1     -10.736  10.151  63.965  1.00  0.00     0.000 HD 
HETATM   22  C   UNL     1     -10.331  12.794  64.607  1.00  0.00    -0.338 C  
HETATM   23  O   UNL     1     -12.119  11.738  65.696  1.00  0.00    -0.336 OA 
HETATM   24  O   UNL     1      -9.052  15.740  65.268  1.00  0.00    -0.019 OA 
HETATM   25  C   UNL     1     -10.114  14.893  65.610  1.00  0.00    -0.359 C  
HETATM   26  C   UNL     1     -10.752  14.234  64.629  1.00  0.00    -0.384 C  
HETATM   27  O   UNL     1      -9.698  12.390  63.633  1.00  0.00    -0.261 OA 
HETATM   28  H   UNL     1     -12.459  12.624  65.664  1.00  0.00     0.000 HD 
ENDROOT
BRANCH   8  29
HETATM   29  N   UNL     1      -7.477   4.719  69.670  1.00  0.00    -0.055 N  
HETATM   30  H   UNL     1      -6.538   4.362  69.495  1.00  0.00     0.000 HD 
HETATM   31  C   UNL     1      -8.469   3.807  69.975  1.00  0.00    -0.059 C  
HETATM   32  O   UNL     1      -9.642   4.078  70.223  1.00  0.00    -0.173 OA 
BRANCH  31  33
HETATM   33  C   UNL     1      -7.968   2.358  69.939  1.00  0.00    -0.041 C  
BRANCH  33  34
HETATM   34  N   UNL     1      -8.114   1.774  71.281  1.00  0.00    -0.046 NA 
HETATM   35  C   UNL     1      -5.776   2.307  71.993  1.00  0.00    -0.008 C  
HETATM   36  C   UNL     1      -7.518   1.531  73.605  1.00  0.00    -0.029 C  
HETATM   37  C   UNL     1      -7.688   3.821  72.624  1.00  0.00    -0.069 C  
HETATM   38  H   UNL     1      -7.957   0.767  71.241  1.00  0.00     0.000 HD 
HETATM   39  C   UNL     1      -7.274   2.370  72.334  1.00  0.00    -0.038 C  
ENDBRANCH  33  34
ENDBRANCH  31  33
ENDBRANCH   8  29
BRANCH  15  40
HETATM   40  N   UNL     1      -6.779   9.200  71.437  1.00  0.00    -0.205 NA 
HETATM   41  C   UNL     1      -5.767  10.187  71.055  1.00  0.00    -0.076 C  
HETATM   42  C   UNL     1      -6.934   9.042  72.882  1.00  0.00     0.401 C  
ENDBRANCH  15  40
BRANCH  26  43
HETATM   43  C   UNL     1     -12.182  14.667  64.579  1.00  0.00    -0.456 C  
HETATM   44  N   UNL     1     -12.468  15.814  63.925  1.00  0.00    -0.612 N  
HETATM   45  H2  UNL     1     -11.733  16.365  63.482  1.00  0.00     0.000 HD 
HETATM   46  H1  UNL     1     -13.443  16.109  63.891  1.00  0.00     0.000 HD 
HETATM   47  O   UNL     1     -13.094  14.061  65.145  1.00  0.00    -0.776 OA 
ENDBRANCH  26  43
BRANCH  20  48
HETATM   48  N   UNL     1     -10.349  15.020  68.157  1.00  0.00    -0.237 NA 
HETATM   49  C   UNL     1     -11.727  15.507  68.121  1.00  0.00    -0.229 C  
HETATM   50  C   UNL     1      -9.438  16.113  68.489  1.00  0.00    -0.216 C  
ENDBRANCH  20  48
TORSDOF 6
ENDMDL
MODEL       40
REMARK 921   NORMALIZED FREE ENERGY PREDICTED BY IDOCK:   -4.87 KCAL/MOL
REMARK 922        TOTAL FREE ENERGY PREDICTED BY IDOCK:   -6.96 KCAL/MOL
REMARK 923 INTER-LIGAND FREE ENERGY PREDICTED BY IDOCK:   -7.28 KCAL/MOL
REMARK 924 INTRA-LIGAND FREE ENERGY PREDICTED BY IDOCK:    0.32 KCAL/MOL
REMARK 927      BINDING AFFINITY PREDICTED BY RF-SCORE:    0.00 PKD
ROOT
HETATM    1  C   UNL     1      -8.948   9.404  68.263  1.00  0.00    -0.128 C  
HETATM    2  C   UNL     1     -10.035  10.438  68.503  1.00  0.00    -0.179 C  
HETATM    3  C   UNL     1      -9.633  11.870  68.400  1.00  0.00    -0.196 A  
HETATM    4  C   UNL     1      -8.485  12.186  67.628  1.00  0.00    -0.163 A  
HETATM    5  C   UNL     1      -7.730  11.133  66.876  1.00  0.00    -0.148 C  
HETATM    6  C   UNL     1      -8.061  13.517  67.542  1.00  0.00    -0.186 A  
HETATM    7  O   UNL     1      -6.947  13.914  66.847  1.00  0.00    -0.318 OA 
HETATM    8  C   UNL     1      -8.753  14.505  68.239  1.00  0.00    -0.173 A  
HETATM    9  C   UNL     1      -8.065   9.692  67.099  1.00  0.00    -0.110 C  
HETATM   10  O   UNL     1      -6.826  11.450  66.096  1.00  0.00    -0.014 OA 
HETATM   11  C   UNL     1      -7.523   8.689  66.364  1.00  0.00    -0.087 C  
HETATM   12  H   UNL     1      -6.660  14.818  66.788  1.00  0.00     0.000 HD 
HETATM   13  C   UNL     1      -9.909  14.194  68.962  1.00  0.00    -0.034 A  
HETATM   14  C   UNL     1      -9.703   8.119  68.019  1.00  0.00    -0.186 C  
HETATM   15  C   UNL     1     -10.411  12.876  69.044  1.00  0.00     0.009 A  
HETATM   16  C   UNL     1      -7.747   7.189  66.666  1.00  0.00    -0.097 C  
HETATM   17  C   UNL     1      -8.815   6.903  67.761  1.00  0.00    -0.119 C  
HETATM   18  H   UNL     1     -11.489   4.308  66.123  1.00  0.00     0.000 HD 
HETATM   19  O   UNL     1      -6.551   8.936  65.401  1.00  0.00    -0.066 OA 
HETATM   20  C   UNL     1      -9.865   5.766  67.476  1.00  0.00    -0.130 C  
HETATM   21  H   UNL     1      -6.171   8.234  64.886  1.00  0.00     0.000 HD 
HETATM   22  C   UNL     1      -7.986   6.248  65.458  1.00  0.00    -0.115 C  
HETATM   23  O   UNL     1      -6.453   6.756  67.159  1.00  0.00    -0.042 OA 
HETATM   24  O   UNL     1     -10.651   4.351  65.676  1.00  0.00    -0.257 OA 
HETATM   25  C   UNL     1      -9.525   4.763  66.399  1.00  0.00    -0.158 C  
HETATM   26  C   UNL     1      -8.342   4.824  65.767  1.00  0.00    -0.117 C  
HETATM   27  O   UNL     1      -7.943   6.593  64.279  1.00  0.00    -0.118 OA 
HETATM   28  H   UNL     1      -6.591   5.835  67.344  1.00  0.00     0.000 HD 
ENDROOT
BRANCH   8  29
HETATM   29  N   UNL     1      -8.287  15.829  68.127  1.00  0.00    -0.158 N  
HETATM   30  H   UNL     1      -7.908  16.274  68.962  1.00  0.00     0.000 HD 
HETATM   31  C   UNL     1      -8.311  16.562  66.956  1.00  0.00    -0.190 C  
HETATM   32  O   UNL     1      -8.722  16.165  65.868  1.00  0.00    -0.328 OA 
BRANCH  31  33
HETATM   33  C   UNL     1      -7.793  17.993  67.147  1.00  0.00    -0.217 C  
BRANCH  33  34
HETATM   34  N   UNL     1      -8.470  18.590  68.308  1.00  0.00    -0.310 NA 
HETATM   35  C   UNL     1      -9.252  20.618  67.070  1.00  0.00    -0.390 C  
HETATM   36  C   UNL     1     -10.090  20.041  69.350  1.00  0.00    -0.138 C  
HETATM   37  C   UNL     1     -10.783  18.644  67.400  1.00  0.00    -0.456 C  
HETATM   38  H   UNL     1      -7.796  19.100  68.879  1.00  0.00     0.000 HD 
HETATM   39  C   UNL     1      -9.624  19.453  68.003  1.00  0.00    -0.346 C  
ENDBRANCH  33  34
ENDBRANCH  31  33
ENDBRANCH   8  29
BRANCH  15  40
HETATM   40  N   UNL     1     -11.623  12.650  69.697  1.00  0.00    -0.277 NA 
HETATM   41  C   UNL     1     -12.324  13.753  70.360  1.00  0.00    -0.353 C  
HETATM   42  C   UNL     1     -12.202  11.335  69.967  1.00  0.00    -0.314 C  
ENDBRANCH  15  40
BRANCH  26  43
HETATM   43  C   UNL     1      -7.385   3.861  66.395  1.00  0.00    -0.076 C  
HETATM   44  N   UNL     1      -6.076   3.992  66.095  1.00  0.00    -0.030 N  
HETATM   45  H2  UNL     1      -5.750   4.723  65.462  1.00  0.00     0.000 HD 
HETATM   46  H1  UNL     1      -5.423   3.335  66.523  1.00  0.00     0.000 HD 
HETATM   47  O   UNL     1      -7.740   2.931  67.122  1.00  0.00    -0.072 OA 
ENDBRANCH  26  43
BRANCH  20  48
HETATM   48  N   UNL     1     -10.331   5.243  68.782  1.00  0.00    -0.167 NA 
HETATM   49  C   UNL     1     -11.403   6.017  69.409  1.00  0.00    -0.212 C  
HETATM   50  C   UNL     1      -9.247   5.024  69.735  1.00  0.00    -0.118 C  
ENDBRANCH  20  48
TORSDOF 6
ENDMDL
MODEL       41
REMARK 921   NORMALIZED FREE ENERGY PREDICTED BY IDOCK:   -4.79 KCAL/MOL
REMARK 922        TOTAL FREE ENERGY PREDICTED BY IDOCK:   -6.85 KCAL/MOL
REMARK 923 INTER-LIGAND FREE ENERGY PREDICTED BY IDOCK:   -6.74 KCAL/MOL
REMARK 924 INTRA-LIGAND FREE ENERGY PREDICTED BY IDOCK:   -0.11 KCAL/MOL
REMARK 927      BINDING AFFINITY PREDICTED BY RF-SCORE:    0.00 PKD
ROOT
HETATM    1  C   UNL     1      -8.897   9.782  68.885  1.00  0.00    -0.140 C  
HETATM    2  C   UNL     1     -10.036  10.784  68.783  1.00  0.00    -0.201 C  
HETATM    3  C   UNL     1      -9.665  12.188  68.448  1.00  0.00    -0.193 A  
HETATM    4  C   UNL     1      -8.437  12.410  67.772  1.00  0.00    -0.169 A  
HETATM    5  C   UNL     1      -7.563  11.274  67.338  1.00  0.00    -0.120 C  
HETATM    6  C   UNL     1      -8.045  13.720  67.476  1.00  0.00    -0.185 A  
HETATM    7  O   UNL     1      -6.862  14.035  66.855  1.00  0.00    -0.291 OA 
HETATM    8  C   UNL     1      -8.848  14.786  67.876  1.00  0.00    -0.167 A  
HETATM    9  C   UNL     1      -7.882   9.887  67.801  1.00  0.00    -0.094 C  
HETATM   10  O   UNL     1      -6.575  11.482  66.626  1.00  0.00    -0.133 OA 
HETATM   11  C   UNL     1      -7.221   8.792  67.348  1.00  0.00    -0.080 C  
HETATM   12  H   UNL     1      -6.596  14.925  66.653  1.00  0.00     0.000 HD 
HETATM   13  C   UNL     1     -10.077  14.559  68.503  1.00  0.00    -0.242 A  
HETATM   14  C   UNL     1      -9.578   8.435  68.811  1.00  0.00    -0.150 C  
HETATM   15  C   UNL     1     -10.548  13.256  68.783  1.00  0.00    -0.201 A  
HETATM   16  C   UNL     1      -7.440   7.368  67.912  1.00  0.00    -0.101 C  
HETATM   17  C   UNL     1      -8.629   7.242  68.906  1.00  0.00    -0.129 C  
HETATM   18  H   UNL     1     -10.997   4.242  67.506  1.00  0.00     0.000 HD 
HETATM   19  O   UNL     1      -6.142   8.900  66.479  1.00  0.00    -0.058 OA 
HETATM   20  C   UNL     1      -9.602   6.017  68.728  1.00  0.00    -0.129 C  
HETATM   21  H   UNL     1      -5.679   8.133  66.162  1.00  0.00     0.000 HD 
HETATM   22  C   UNL     1      -7.495   6.201  66.894  1.00  0.00    -0.087 C  
HETATM   23  O   UNL     1      -6.207   7.108  68.632  1.00  0.00    -0.029 OA 
HETATM   24  O   UNL     1     -10.111   4.242  67.162  1.00  0.00    -0.158 OA 
HETATM   25  C   UNL     1      -9.098   4.845  67.919  1.00  0.00    -0.113 C  
HETATM   26  C   UNL     1      -7.846   4.846  67.434  1.00  0.00    -0.095 C  
HETATM   27  O   UNL     1      -7.312   6.314  65.683  1.00  0.00    -0.075 OA 
HETATM   28  H   UNL     1      -6.341   6.233  68.978  1.00  0.00     0.000 HD 
ENDROOT
BRANCH   8  29
HETATM   29  N   UNL     1      -8.409  16.086  67.561  1.00  0.00    -0.156 N  
HETATM   30  H   UNL     1      -7.690  16.504  68.151  1.00  0.00     0.000 HD 
HETATM   31  C   UNL     1      -8.892  16.832  66.503  1.00  0.00    -0.277 C  
HETATM   32  O   UNL     1      -9.745  16.466  65.697  1.00  0.00    -0.492 OA 
BRANCH  31  33
HETATM   33  C   UNL     1      -8.272  18.233  66.439  1.00  0.00    -0.251 C  
BRANCH  33  34
HETATM   34  N   UNL     1      -7.421  18.319  65.243  1.00  0.00    -0.089 NA 
HETATM   35  C   UNL     1      -5.778  19.899  66.272  1.00  0.00    -0.180 C  
HETATM   36  C   UNL     1      -5.341  18.746  64.101  1.00  0.00    -0.221 C  
HETATM   37  C   UNL     1      -5.319  17.423  66.218  1.00  0.00    -0.202 C  
HETATM   38  H   UNL     1      -7.801  19.011  64.596  1.00  0.00     0.000 HD 
HETATM   39  C   UNL     1      -5.995  18.593  65.489  1.00  0.00    -0.233 C  
ENDBRANCH  33  34
ENDBRANCH  31  33
ENDBRANCH   8  29
BRANCH  15  40
HETATM   40  N   UNL     1     -11.826  13.097  69.318  1.00  0.00    -0.320 NA 
HETATM   41  C   UNL     1     -12.534  14.240  69.898  1.00  0.00    -0.264 C  
HETATM   42  C   UNL     1     -12.490  11.813  69.544  1.00  0.00     0.083 C  
ENDBRANCH  15  40
BRANCH  26  43
HETATM   43  C   UNL     1      -6.951   4.075  68.349  1.00  0.00    -0.048 C  
HETATM   44  N   UNL     1      -5.618   4.199  68.174  1.00  0.00    -0.016 N  
HETATM   45  H2  UNL     1      -5.236   4.799  67.443  1.00  0.00     0.000 HD 
HETATM   46  H1  UNL     1      -5.006   3.672  68.799  1.00  0.00     0.000 HD 
HETATM   47  O   UNL     1      -7.369   3.297  69.209  1.00  0.00    -0.048 OA 
ENDBRANCH  26  43
BRANCH  20  48
HETATM   48  N   UNL     1     -10.216   5.732  70.046  1.00  0.00    -0.217 NA 
HETATM   49  C   UNL     1     -11.539   6.321  70.251  1.00  0.00    -0.309 C  
HETATM   50  C   UNL     1      -9.342   6.055  71.171  1.00  0.00    -0.160 C  
ENDBRANCH  20  48
TORSDOF 6
ENDMDL
MODEL       42
REMARK 921   NORMALIZED FREE ENERGY PREDICTED BY IDOCK:   -4.70 KCAL/MOL
REMARK 922        TOTAL FREE ENERGY PREDICTED BY IDOCK:   -6.73 KCAL/MOL
REMARK 923 INTER-LIGAND FREE ENERGY PREDICTED BY IDOCK:   -6.31 KCAL/MOL
REMARK 924 INTRA-LIGAND FREE ENERGY PREDICTED BY IDOCK:   -0.42 KCAL/MOL
REMARK 927      BINDING AFFINITY PREDICTED BY RF-SCORE:    0.00 PKD
ROOT
HETATM    1  C   UNL     1      -8.692  14.459  67.685  1.00  0.00    -0.191 C  
HETATM    2  C   UNL     1      -9.677  13.461  68.273  1.00  0.00    -0.226 C  
HETATM    3  C   UNL     1      -9.210  12.050  68.394  1.00  0.00    -0.160 A  
HETATM    4  C   UNL     1      -7.812  11.813  68.449  1.00  0.00    -0.141 A  
HETATM    5  C   UNL     1      -6.824  12.939  68.459  1.00  0.00    -0.095 C  
HETATM    6  C   UNL     1      -7.343  10.497  68.526  1.00  0.00    -0.088 A  
HETATM    7  O   UNL     1      -6.011  10.167  68.552  1.00  0.00    -0.042 OA 
HETATM    8  C   UNL     1      -8.252   9.441  68.516  1.00  0.00    -0.113 A  
HETATM    9  C   UNL     1      -7.301  14.333  68.201  1.00  0.00    -0.128 C  
HETATM   10  O   UNL     1      -5.625  12.715  68.654  1.00  0.00    -0.060 OA 
HETATM   11  C   UNL     1      -6.497  15.419  68.322  1.00  0.00    -0.116 C  
HETATM   12  H   UNL     1      -5.693   9.273  68.605  1.00  0.00     0.000 HD 
HETATM   13  C   UNL     1      -9.629   9.683  68.505  1.00  0.00    -0.152 A  
HETATM   14  C   UNL     1      -9.254  15.807  68.068  1.00  0.00    -0.188 C  
HETATM   15  C   UNL     1     -10.161  10.991  68.477  1.00  0.00    -0.192 A  
HETATM   16  C   UNL     1      -6.928  16.852  67.929  1.00  0.00    -0.148 C  
HETATM   17  C   UNL     1      -8.435  16.997  67.571  1.00  0.00    -0.208 C  
HETATM   18  H   UNL     1      -9.897  19.990  69.911  1.00  0.00     0.000 HD 
HETATM   19  O   UNL     1      -5.144  15.293  68.618  1.00  0.00    -0.086 OA 
HETATM   20  C   UNL     1      -9.213  18.224  68.177  1.00  0.00    -0.301 C  
HETATM   21  H   UNL     1      -4.580  16.054  68.703  1.00  0.00     0.000 HD 
HETATM   22  C   UNL     1      -6.511  18.004  68.877  1.00  0.00    -0.229 C  
HETATM   23  O   UNL     1      -6.143  17.115  66.738  1.00  0.00    -0.174 OA 
HETATM   24  O   UNL     1      -8.951  19.980  69.823  1.00  0.00     0.363 OA 
HETATM   25  C   UNL     1      -8.388  19.382  68.688  1.00  0.00    -0.362 C  
HETATM   26  C   UNL     1      -7.051  19.368  68.564  1.00  0.00    -0.350 C  
HETATM   27  O   UNL     1      -5.808  17.874  69.877  1.00  0.00    -0.237 OA 
HETATM   28  H   UNL     1      -6.408  17.995  66.497  1.00  0.00     0.000 HD 
ENDROOT
BRANCH   8  29
HETATM   29  N   UNL     1      -7.733   8.134  68.589  1.00  0.00    -0.109 N  
HETATM   30  H   UNL     1      -7.480   7.671  67.717  1.00  0.00     0.000 HD 
HETATM   31  C   UNL     1      -7.544   7.441  69.769  1.00  0.00    -0.095 C  
HETATM   32  O   UNL     1      -7.785   7.864  70.897  1.00  0.00    -0.079 OA 
BRANCH  31  33
HETATM   33  C   UNL     1      -7.020   6.018  69.538  1.00  0.00    -0.067 C  
BRANCH  33  34
HETATM   34  N   UNL     1      -7.833   5.378  68.493  1.00  0.00    -0.087 NA 
HETATM   35  C   UNL     1      -7.112   3.053  69.064  1.00  0.00    -0.048 C  
HETATM   36  C   UNL     1      -9.012   3.517  67.513  1.00  0.00    -0.170 C  
HETATM   37  C   UNL     1      -9.279   3.980  69.952  1.00  0.00    -0.213 C  
HETATM   38  H   UNL     1      -7.335   5.400  67.603  1.00  0.00     0.000 HD 
HETATM   39  C   UNL     1      -8.285   4.007  68.781  1.00  0.00    -0.074 C  
ENDBRANCH  33  34
ENDBRANCH  31  33
ENDBRANCH   8  29
BRANCH  15  40
HETATM   40  N   UNL     1     -11.542  11.165  68.571  1.00  0.00    -0.351 NA 
HETATM   41  C   UNL     1     -12.254  11.983  67.586  1.00  0.00     0.426 C  
HETATM   42  C   UNL     1     -12.367  10.757  69.707  1.00  0.00    -0.236 C  
ENDBRANCH  15  40
BRANCH  26  43
HETATM   43  C   UNL     1      -6.649  20.148  67.353  1.00  0.00    -0.216 C  
HETATM   44  N   UNL     1      -5.456  19.862  66.790  1.00  0.00    -0.169 N  
HETATM   45  H2  UNL     1      -4.850  19.138  67.178  1.00  0.00     0.000 HD 
HETATM   46  H1  UNL     1      -5.182  20.394  65.964  1.00  0.00     0.000 HD 
HETATM   47  O   UNL     1      -7.325  21.066  66.884  1.00  0.00    -0.261 OA 
ENDBRANCH  26  43
BRANCH  20  48
HETATM   48  N   UNL     1     -10.347  18.531  67.274  1.00  0.00    -0.379 NA 
HETATM   49  C   UNL     1     -10.200  18.030  65.908  1.00  0.00    -0.229 C  
HETATM   50  C   UNL     1     -10.701  19.948  67.255  1.00  0.00    -0.329 C  
ENDBRANCH  20  48
TORSDOF 6
ENDMDL
MODEL       43
REMARK 921   NORMALIZED FREE ENERGY PREDICTED BY IDOCK:   -4.69 KCAL/MOL
REMARK 922        TOTAL FREE ENERGY PREDICTED BY IDOCK:   -6.72 KCAL/MOL
REMARK 923 INTER-LIGAND FREE ENERGY PREDICTED BY IDOCK:   -5.97 KCAL/MOL
REMARK 924 INTRA-LIGAND FREE ENERGY PREDICTED BY IDOCK:   -0.76 KCAL/MOL
REMARK 927      BINDING AFFINITY PREDICTED BY RF-SCORE:    0.00 PKD
ROOT
HETATM    1  C   UNL     1      -8.962   7.029  69.449  1.00  0.00    -0.139 C  
HETATM    2  C   UNL     1      -7.972   7.601  68.448  1.00  0.00    -0.123 C  
HETATM    3  C   UNL     1      -8.290   8.945  67.883  1.00  0.00    -0.118 A  
HETATM    4  C   UNL     1      -9.144   9.796  68.631  1.00  0.00    -0.130 A  
HETATM    5  C   UNL     1      -9.662   9.401  69.980  1.00  0.00    -0.224 C  
HETATM    6  C   UNL     1      -9.490  11.048  68.111  1.00  0.00    -0.172 A  
HETATM    7  O   UNL     1     -10.333  11.926  68.744  1.00  0.00    -0.252 OA 
HETATM    8  C   UNL     1      -9.017  11.427  66.856  1.00  0.00    -0.171 A  
HETATM    9  C   UNL     1      -9.446   8.003  70.467  1.00  0.00    -0.166 C  
HETATM   10  O   UNL     1     -10.282  10.214  70.673  1.00  0.00    -0.132 OA 
HETATM   11  C   UNL     1      -9.765   7.605  71.723  1.00  0.00    -0.161 C  
HETATM   12  H   UNL     1     -10.567  12.776  68.391  1.00  0.00     0.000 HD 
HETATM   13  C   UNL     1      -8.140  10.601  66.144  1.00  0.00    -0.154 A  
HETATM   14  C   UNL     1      -8.199   5.919  70.134  1.00  0.00    -0.118 C  
HETATM   15  C   UNL     1      -7.718   9.348  66.642  1.00  0.00    -0.097 A  
HETATM   16  C   UNL     1      -9.678   6.137  72.204  1.00  0.00    -0.154 C  
HETATM   17  C   UNL     1      -8.998   5.167  71.197  1.00  0.00    -0.162 C  
HETATM   18  H   UNL     1      -6.018   3.286  73.234  1.00  0.00     0.000 HD 
HETATM   19  O   UNL     1     -10.396   8.461  72.620  1.00  0.00    -0.310 OA 
HETATM   20  C   UNL     1      -7.938   4.151  71.765  1.00  0.00    -0.083 C  
HETATM   21  H   UNL     1     -10.620   8.182  73.500  1.00  0.00     0.000 HD 
HETATM   22  C   UNL     1      -9.109   5.887  73.624  1.00  0.00    -0.127 C  
HETATM   23  O   UNL     1     -11.071   5.755  72.344  1.00  0.00    -0.253 OA 
HETATM   24  O   UNL     1      -6.680   3.690  73.782  1.00  0.00    -0.040 OA 
HETATM   25  C   UNL     1      -7.962   3.886  73.252  1.00  0.00    -0.088 C  
HETATM   26  C   UNL     1      -8.898   4.457  74.027  1.00  0.00    -0.103 C  
HETATM   27  O   UNL     1      -8.787   6.768  74.418  1.00  0.00    -0.156 OA 
HETATM   28  H   UNL     1     -11.018   4.854  72.639  1.00  0.00     0.000 HD 
ENDROOT
BRANCH   8  29
HETATM   29  N   UNL     1      -9.395  12.692  66.372  1.00  0.00    -0.321 N  
HETATM   30  H   UNL     1     -10.147  12.736  65.684  1.00  0.00     0.000 HD 
HETATM   31  C   UNL     1      -8.812  13.880  66.769  1.00  0.00    -0.149 C  
HETATM   32  O   UNL     1      -7.909  13.996  67.595  1.00  0.00    -0.147 OA 
BRANCH  31  33
HETATM   33  C   UNL     1      -9.388  15.095  66.030  1.00  0.00    -0.291 C  
BRANCH  33  34
HETATM   34  N   UNL     1     -10.143  14.622  64.861  1.00  0.00    -0.485 NA 
HETATM   35  C   UNL     1     -12.274  14.265  66.121  1.00  0.00    -0.430 C  
HETATM   36  C   UNL     1     -12.173  14.204  63.627  1.00  0.00    -0.051 C  
HETATM   37  C   UNL     1     -11.895  16.383  64.813  1.00  0.00     0.516 C  
HETATM   38  H   UNL     1      -9.970  13.627  64.715  1.00  0.00     0.000 HD 
HETATM   39  C   UNL     1     -11.593  14.879  64.886  1.00  0.00    -0.395 C  
ENDBRANCH  33  34
ENDBRANCH  31  33
ENDBRANCH   8  29
BRANCH  15  40
HETATM   40  N   UNL     1      -6.764   8.621  65.929  1.00  0.00    -0.060 NA 
HETATM   41  C   UNL     1      -7.179   7.575  64.992  1.00  0.00    -0.066 C  
HETATM   42  C   UNL     1      -5.322   8.661  66.169  1.00  0.00    -0.034 C  
ENDBRANCH  15  40
BRANCH  26  43
HETATM   43  C   UNL     1     -10.022   3.497  74.250  1.00  0.00    -0.134 C  
HETATM   44  N   UNL     1      -9.719   2.184  74.333  1.00  0.00    -0.087 N  
HETATM   45  H2  UNL     1      -8.756   1.859  74.246  1.00  0.00     0.000 HD 
HETATM   46  H1  UNL     1     -10.486   1.529  74.486  1.00  0.00     0.000 HD 
HETATM   47  O   UNL     1     -11.204   3.841  74.308  1.00  0.00     0.007 OA 
ENDBRANCH  26  43
BRANCH  20  48
HETATM   48  N   UNL     1      -7.899   2.981  70.856  1.00  0.00    -0.046 NA 
HETATM   49  C   UNL     1      -9.196   2.581  70.312  1.00  0.00    -0.129 C  
HETATM   50  C   UNL     1      -7.218   1.826  71.433  1.00  0.00    -0.032 C  
ENDBRANCH  20  48
TORSDOF 6
ENDMDL
MODEL       44
REMARK 921   NORMALIZED FREE ENERGY PREDICTED BY IDOCK:   -4.59 KCAL/MOL
REMARK 922        TOTAL FREE ENERGY PREDICTED BY IDOCK:   -6.58 KCAL/MOL
REMARK 923 INTER-LIGAND FREE ENERGY PREDICTED BY IDOCK:   -6.13 KCAL/MOL
REMARK 924 INTRA-LIGAND FREE ENERGY PREDICTED BY IDOCK:   -0.45 KCAL/MOL
REMARK 927      BINDING AFFINITY PREDICTED BY RF-SCORE:    0.00 PKD
ROOT
HETATM    1  C   UNL     1      -8.784  14.550  67.331  1.00  0.00    -0.210 C  
HETATM    2  C   UNL     1      -9.544  13.477  68.092  1.00  0.00    -0.215 C  
HETATM    3  C   UNL     1      -9.019  12.084  67.993  1.00  0.00    -0.187 A  
HETATM    4  C   UNL     1      -7.650  11.911  67.660  1.00  0.00    -0.136 A  
HETATM    5  C   UNL     1      -6.731  13.080  67.481  1.00  0.00    -0.152 C  
HETATM    6  C   UNL     1      -7.137  10.616  67.524  1.00  0.00    -0.089 A  
HETATM    7  O   UNL     1      -5.838  10.349  67.174  1.00  0.00    -0.048 OA 
HETATM    8  C   UNL     1      -7.983   9.520  67.685  1.00  0.00    -0.106 A  
HETATM    9  C   UNL     1      -7.302  14.462  67.451  1.00  0.00    -0.167 C  
HETATM   10  O   UNL     1      -5.517  12.903  67.337  1.00  0.00    -0.272 OA 
HETATM   11  C   UNL     1      -6.528  15.576  67.425  1.00  0.00    -0.109 C  
HETATM   12  H   UNL     1      -5.490   9.469  67.082  1.00  0.00     0.000 HD 
HETATM   13  C   UNL     1      -9.320   9.697  68.056  1.00  0.00    -0.142 A  
HETATM   14  C   UNL     1      -9.264  15.848  67.936  1.00  0.00    -0.198 C  
HETATM   15  C   UNL     1      -9.880  10.979  68.255  1.00  0.00    -0.178 A  
HETATM   16  C   UNL     1      -7.093  17.006  67.255  1.00  0.00    -0.163 C  
HETATM   17  C   UNL     1      -8.645  17.100  67.319  1.00  0.00    -0.214 C  
HETATM   18  H   UNL     1      -9.520  19.888  70.153  1.00  0.00     0.000 HD 
HETATM   19  O   UNL     1      -5.143  15.498  67.343  1.00  0.00    -0.321 OA 
HETATM   20  C   UNL     1      -9.270  18.254  68.188  1.00  0.00    -0.301 C  
HETATM   21  H   UNL     1      -4.601  16.279  67.325  1.00  0.00     0.000 HD 
HETATM   22  C   UNL     1      -6.474  18.124  68.132  1.00  0.00    -0.192 C  
HETATM   23  O   UNL     1      -6.664  17.371  65.918  1.00  0.00    -0.210 OA 
HETATM   24  O   UNL     1      -8.632  19.928  69.817  1.00  0.00     0.322 OA 
HETATM   25  C   UNL     1      -8.375  19.420  68.537  1.00  0.00    -0.363 C  
HETATM   26  C   UNL     1      -7.120  19.476  68.062  1.00  0.00    -0.298 C  
HETATM   27  O   UNL     1      -5.526  17.972  68.899  1.00  0.00    -0.180 OA 
HETATM   28  H   UNL     1      -7.010  18.249  65.814  1.00  0.00     0.000 HD 
ENDROOT
BRANCH   8  29
HETATM   29  N   UNL     1      -7.423   8.238  67.533  1.00  0.00    -0.093 N  
HETATM   30  H   UNL     1      -7.143   7.947  66.597  1.00  0.00     0.000 HD 
HETATM   31  C   UNL     1      -7.229   7.349  68.573  1.00  0.00    -0.087 C  
HETATM   32  O   UNL     1      -7.501   7.554  69.754  1.00  0.00    -0.087 OA 
BRANCH  31  33
HETATM   33  C   UNL     1      -6.656   6.007  68.100  1.00  0.00    -0.055 C  
BRANCH  33  34
HETATM   34  N   UNL     1      -7.082   5.773  66.712  1.00  0.00    -0.068 NA 
HETATM   35  C   UNL     1      -7.395   3.309  67.003  1.00  0.00    -0.070 C  
HETATM   36  C   UNL     1      -8.205   4.527  64.980  1.00  0.00    -0.109 C  
HETATM   37  C   UNL     1      -9.356   4.881  67.167  1.00  0.00    -0.139 C  
HETATM   38  H   UNL     1      -6.264   5.679  66.110  1.00  0.00     0.000 HD 
HETATM   39  C   UNL     1      -7.993   4.635  66.504  1.00  0.00    -0.103 C  
ENDBRANCH  33  34
ENDBRANCH  31  33
ENDBRANCH   8  29
BRANCH  15  40
HETATM   40  N   UNL     1     -11.190  11.082  68.722  1.00  0.00    -0.242 NA 
HETATM   41  C   UNL     1     -11.581  10.443  69.981  1.00  0.00    -0.301 C  
HETATM   42  C   UNL     1     -12.316  11.624  67.961  1.00  0.00     0.720 C  
ENDBRANCH  15  40
BRANCH  26  43
HETATM   43  C   UNL     1      -7.081  20.339  66.842  1.00  0.00    -0.258 C  
HETATM   44  N   UNL     1      -8.111  20.246  65.975  1.00  0.00    -0.545 N  
HETATM   45  H2  UNL     1      -8.889  19.610  66.146  1.00  0.00     0.000 HD 
HETATM   46  H1  UNL     1      -8.084  20.835  65.142  1.00  0.00     0.000 HD 
HETATM   47  O   UNL     1      -6.136  21.081  66.569  1.00  0.00    -0.235 OA 
ENDBRANCH  26  43
BRANCH  20  48
HETATM   48  N   UNL     1     -10.613  18.556  67.640  1.00  0.00    -0.424 NA 
HETATM   49  C   UNL     1     -10.826  18.124  66.259  1.00  0.00     0.047 C  
HETATM   50  C   UNL     1     -10.996  19.957  67.793  1.00  0.00     0.045 C  
ENDBRANCH  20  48
TORSDOF 6
ENDMDL
MODEL       45
REMARK 921   NORMALIZED FREE ENERGY PREDICTED BY IDOCK:   -4.41 KCAL/MOL
REMARK 922        TOTAL FREE ENERGY PREDICTED BY IDOCK:   -6.34 KCAL/MOL
REMARK 923 INTER-LIGAND FREE ENERGY PREDICTED BY IDOCK:   -6.40 KCAL/MOL
REMARK 924 INTRA-LIGAND FREE ENERGY PREDICTED BY IDOCK:    0.07 KCAL/MOL
REMARK 927      BINDING AFFINITY PREDICTED BY RF-SCORE:    0.00 PKD
ROOT
HETATM    1  C   UNL     1      -7.670   8.901  67.966  1.00  0.00    -0.101 C  
HETATM    2  C   UNL     1      -7.206   9.890  69.021  1.00  0.00    -0.077 C  
HETATM    3  C   UNL     1      -7.690  11.294  68.884  1.00  0.00    -0.125 A  
HETATM    4  C   UNL     1      -8.884  11.518  68.150  1.00  0.00    -0.165 A  
HETATM    5  C   UNL     1      -9.683  10.384  67.585  1.00  0.00    -0.168 C  
HETATM    6  C   UNL     1      -9.344  12.827  67.973  1.00  0.00    -0.213 A  
HETATM    7  O   UNL     1     -10.469  13.145  67.254  1.00  0.00    -0.241 OA 
HETATM    8  C   UNL     1      -8.609  13.891  68.491  1.00  0.00    -0.137 A  
HETATM    9  C   UNL     1      -9.114   9.001  67.616  1.00  0.00    -0.144 C  
HETATM   10  O   UNL     1     -10.791  10.592  67.079  1.00  0.00    -0.268 OA 
HETATM   11  C   UNL     1      -9.825   7.906  67.247  1.00  0.00    -0.195 C  
HETATM   12  H   UNL     1     -10.781  14.034  67.134  1.00  0.00     0.000 HD 
HETATM   13  C   UNL     1      -7.457  13.661  69.250  1.00  0.00     0.188 A  
HETATM   14  C   UNL     1      -7.390   7.547  68.576  1.00  0.00    -0.099 C  
HETATM   15  C   UNL     1      -6.972  12.358  69.503  1.00  0.00     0.161 A  
HETATM   16  C   UNL     1      -9.217   6.487  67.140  1.00  0.00    -0.128 C  
HETATM   17  C   UNL     1      -7.765   6.364  67.685  1.00  0.00    -0.102 C  
HETATM   18  H   UNL     1      -7.799   3.324  70.391  1.00  0.00     0.000 HD 
HETATM   19  O   UNL     1     -11.113   8.012  66.736  1.00  0.00    -0.265 OA 
HETATM   20  C   UNL     1      -7.433   5.128  68.602  1.00  0.00    -0.074 C  
HETATM   21  H   UNL     1     -11.611   7.245  66.478  1.00  0.00     0.000 HD 
HETATM   22  C   UNL     1     -10.068   5.306  67.672  1.00  0.00    -0.171 C  
HETATM   23  O   UNL     1      -9.194   6.248  65.709  1.00  0.00    -0.331 OA 
HETATM   24  O   UNL     1      -8.534   3.328  69.789  1.00  0.00    -0.054 OA 
HETATM   25  C   UNL     1      -8.377   3.950  68.544  1.00  0.00    -0.082 C  
HETATM   26  C   UNL     1      -9.415   3.956  67.692  1.00  0.00    -0.233 C  
HETATM   27  O   UNL     1     -11.213   5.405  68.108  1.00  0.00     0.352 OA 
HETATM   28  H   UNL     1      -8.821   5.377  65.643  1.00  0.00     0.000 HD 
ENDROOT
BRANCH   8  29
HETATM   29  N   UNL     1      -9.108  15.191  68.283  1.00  0.00    -0.179 N  
HETATM   30  H   UNL     1      -8.637  15.779  67.596  1.00  0.00     0.000 HD 
HETATM   31  C   UNL     1     -10.195  15.719  68.951  1.00  0.00    -0.219 C  
HETATM   32  O   UNL     1     -10.874  15.136  69.793  1.00  0.00    -0.261 OA 
BRANCH  31  33
HETATM   33  C   UNL     1     -10.474  17.177  68.562  1.00  0.00    -0.377 C  
BRANCH  33  34
HETATM   34  N   UNL     1      -9.215  17.933  68.631  1.00  0.00    -0.285 NA 
HETATM   35  C   UNL     1      -9.366  18.801  66.290  1.00  0.00    -0.271 C  
HETATM   36  C   UNL     1      -7.706  19.680  67.934  1.00  0.00    -0.331 C  
HETATM   37  C   UNL     1     -10.127  20.210  68.235  1.00  0.00    -0.471 C  
HETATM   38  H   UNL     1      -8.427  17.315  68.435  1.00  0.00     0.000 HD 
HETATM   39  C   UNL     1      -9.137  19.129  67.775  1.00  0.00    -0.299 C  
ENDBRANCH  33  34
ENDBRANCH  31  33
ENDBRANCH   8  29
BRANCH  15  40
HETATM   40  N   UNL     1      -5.877  12.194  70.351  1.00  0.00    -0.168 NA 
HETATM   41  C   UNL     1      -5.192  13.361  70.912  1.00  0.00    -0.143 C  
HETATM   42  C   UNL     1      -5.188  10.928  70.601  1.00  0.00    -0.093 C  
ENDBRANCH  15  40
BRANCH  26  43
HETATM   43  C   UNL     1      -9.053   3.205  66.451  1.00  0.00    -0.154 C  
HETATM   44  N   UNL     1      -9.785   3.437  65.341  1.00  0.00    -0.347 N  
HETATM   45  H2  UNL     1     -10.558   4.103  65.349  1.00  0.00     0.000 HD 
HETATM   46  H1  UNL     1      -9.538   2.925  64.494  1.00  0.00     0.000 HD 
HETATM   47  O   UNL     1      -8.163   2.353  66.411  1.00  0.00    -0.082 OA 
ENDBRANCH  26  43
BRANCH  20  48
HETATM   48  N   UNL     1      -5.982   4.854  68.484  1.00  0.00    -0.025 NA 
HETATM   49  C   UNL     1      -5.359   5.348  67.256  1.00  0.00    -0.008 C  
HETATM   50  C   UNL     1      -5.641   3.449  68.691  1.00  0.00    -0.021 C  
ENDBRANCH  20  48
TORSDOF 6
ENDMDL
MODEL       46
REMARK 921   NORMALIZED FREE ENERGY PREDICTED BY IDOCK:   -4.34 KCAL/MOL
REMARK 922        TOTAL FREE ENERGY PREDICTED BY IDOCK:   -6.24 KCAL/MOL
REMARK 923 INTER-LIGAND FREE ENERGY PREDICTED BY IDOCK:   -5.60 KCAL/MOL
REMARK 924 INTRA-LIGAND FREE ENERGY PREDICTED BY IDOCK:   -0.65 KCAL/MOL
REMARK 927      BINDING AFFINITY PREDICTED BY RF-SCORE:    0.00 PKD
ROOT
HETATM    1  C   UNL     1      -9.922  12.029  68.269  1.00  0.00    -0.203 C  
HETATM    2  C   UNL     1     -10.406  11.169  69.425  1.00  0.00    -0.090 C  
HETATM    3  C   UNL     1     -10.168   9.701  69.314  1.00  0.00    -0.215 A  
HETATM    4  C   UNL     1      -9.121   9.259  68.464  1.00  0.00    -0.132 A  
HETATM    5  C   UNL     1      -8.227  10.225  67.750  1.00  0.00    -0.110 C  
HETATM    6  C   UNL     1      -8.897   7.886  68.311  1.00  0.00    -0.129 A  
HETATM    7  O   UNL     1      -7.931   7.363  67.490  1.00  0.00    -0.110 OA 
HETATM    8  C   UNL     1      -9.723   6.976  68.968  1.00  0.00    -0.145 A  
HETATM    9  C   UNL     1      -8.564  11.683  67.766  1.00  0.00    -0.144 C  
HETATM   10  O   UNL     1      -7.235   9.821  67.135  1.00  0.00    -0.086 OA 
HETATM   11  C   UNL     1      -7.740  12.633  67.258  1.00  0.00    -0.140 C  
HETATM   12  H   UNL     1      -7.778   6.430  67.386  1.00  0.00     0.000 HD 
HETATM   13  C   UNL     1     -10.725   7.419  69.838  1.00  0.00    -0.254 A  
HETATM   14  C   UNL     1      -9.911  13.433  68.829  1.00  0.00    -0.063 C  
HETATM   15  C   UNL     1     -10.965   8.792  70.069  1.00  0.00    -0.209 A  
HETATM   16  C   UNL     1      -8.127  14.126  67.139  1.00  0.00    -0.115 C  
HETATM   17  C   UNL     1      -9.465  14.505  67.836  1.00  0.00    -0.212 C  
HETATM   18  H   UNL     1      -8.629  17.599  70.344  1.00  0.00     0.000 HD 
HETATM   19  O   UNL     1      -6.555  12.299  66.613  1.00  0.00    -0.420 OA 
HETATM   20  C   UNL     1      -9.486  15.812  68.712  1.00  0.00    -0.219 C  
HETATM   21  H   UNL     1      -5.977  12.965  66.257  1.00  0.00     0.000 HD 
HETATM   22  C   UNL     1      -7.043  15.172  67.504  1.00  0.00    -0.198 C  
HETATM   23  O   UNL     1      -8.283  14.311  65.708  1.00  0.00     1.059 OA 
HETATM   24  O   UNL     1      -7.982  17.453  69.664  1.00  0.00     0.373 OA 
HETATM   25  C   UNL     1      -8.383  16.818  68.482  1.00  0.00    -0.243 C  
HETATM   26  C   UNL     1      -7.468  16.611  67.521  1.00  0.00    -0.176 C  
HETATM   27  O   UNL     1      -5.884  14.905  67.814  1.00  0.00    -0.198 OA 
HETATM   28  H   UNL     1      -8.520  15.228  65.635  1.00  0.00     0.000 HD 
ENDROOT
BRANCH   8  29
HETATM   29  N   UNL     1      -9.463   5.606  68.780  1.00  0.00    -0.123 N  
HETATM   30  H   UNL     1      -9.091   5.077  69.569  1.00  0.00     0.000 HD 
HETATM   31  C   UNL     1      -9.680   4.932  67.594  1.00  0.00    -0.159 C  
HETATM   32  O   UNL     1     -10.133   5.422  66.562  1.00  0.00    -0.176 OA 
BRANCH  31  33
HETATM   33  C   UNL     1      -9.251   3.461  67.665  1.00  0.00    -0.190 C  
BRANCH  33  34
HETATM   34  N   UNL     1      -8.048   3.360  68.506  1.00  0.00    -0.065 NA 
HETATM   35  C   UNL     1      -6.967   1.590  67.109  1.00  0.00    -0.038 C  
HETATM   36  C   UNL     1      -5.735   2.807  68.906  1.00  0.00    -0.022 C  
HETATM   37  C   UNL     1      -6.354   4.014  66.810  1.00  0.00    -0.036 C  
HETATM   38  H   UNL     1      -8.228   2.739  69.295  1.00  0.00     0.000 HD 
HETATM   39  C   UNL     1      -6.815   2.947  67.814  1.00  0.00    -0.048 C  
ENDBRANCH  33  34
ENDBRANCH  31  33
ENDBRANCH   8  29
BRANCH  15  40
HETATM   40  N   UNL     1     -11.911   9.165  71.024  1.00  0.00    -0.291 NA 
HETATM   41  C   UNL     1     -11.994   8.453  72.301  1.00  0.00    -0.389 C  
HETATM   42  C   UNL     1     -13.006  10.109  70.801  1.00  0.00    -0.305 C  
ENDBRANCH  15  40
BRANCH  26  43
HETATM   43  C   UNL     1      -7.854  17.363  66.288  1.00  0.00    -0.295 C  
HETATM   44  N   UNL     1      -7.037  18.357  65.878  1.00  0.00    -0.267 N  
HETATM   45  H2  UNL     1      -6.186  18.586  66.392  1.00  0.00     0.000 HD 
HETATM   46  H1  UNL     1      -7.300  18.870  65.036  1.00  0.00     0.000 HD 
HETATM   47  O   UNL     1      -8.898  17.156  65.667  1.00  0.00    -0.482 OA 
ENDBRANCH  26  43
BRANCH  20  48
HETATM   48  N   UNL     1     -10.880  16.313  68.743  1.00  0.00    -0.297 NA 
HETATM   49  C   UNL     1     -11.119  17.521  67.954  1.00  0.00     0.021 C  
HETATM   50  C   UNL     1     -11.400  16.486  70.097  1.00  0.00    -0.055 C  
ENDBRANCH  20  48
TORSDOF 6
ENDMDL
MODEL       47
REMARK 921   NORMALIZED FREE ENERGY PREDICTED BY IDOCK:   -4.24 KCAL/MOL
REMARK 922        TOTAL FREE ENERGY PREDICTED BY IDOCK:   -6.11 KCAL/MOL
REMARK 923 INTER-LIGAND FREE ENERGY PREDICTED BY IDOCK:   -5.64 KCAL/MOL
REMARK 924 INTRA-LIGAND FREE ENERGY PREDICTED BY IDOCK:   -0.47 KCAL/MOL
REMARK 927      BINDING AFFINITY PREDICTED BY RF-SCORE:    0.00 PKD
ROOT
HETATM    1  C   UNL     1      -8.543   8.961  69.752  1.00  0.00    -0.134 C  
HETATM    2  C   UNL     1      -8.541   9.464  68.318  1.00  0.00    -0.120 C  
HETATM    3  C   UNL     1      -8.242  10.911  68.115  1.00  0.00    -0.121 A  
HETATM    4  C   UNL     1      -7.512  11.589  69.126  1.00  0.00    -0.025 A  
HETATM    5  C   UNL     1      -6.989  10.871  70.332  1.00  0.00     0.429 C  
HETATM    6  C   UNL     1      -7.247  12.955  68.981  1.00  0.00     0.017 A  
HETATM    7  O   UNL     1      -6.578  13.701  69.918  1.00  0.00    -0.302 OA 
HETATM    8  C   UNL     1      -7.731  13.635  67.865  1.00  0.00    -0.157 A  
HETATM    9  C   UNL     1      -7.412   9.458  70.584  1.00  0.00    -0.150 C  
HETATM   10  O   UNL     1      -6.234  11.446  71.123  1.00  0.00    -0.214 OA 
HETATM   11  C   UNL     1      -6.884   8.698  71.575  1.00  0.00    -0.084 C  
HETATM   12  H   UNL     1      -6.398  14.629  69.819  1.00  0.00     0.000 HD 
HETATM   13  C   UNL     1      -8.412  12.953  66.852  1.00  0.00    -0.093 A  
HETATM   14  C   UNL     1      -8.452   7.459  69.620  1.00  0.00    -0.133 C  
HETATM   15  C   UNL     1      -8.665  11.564  66.920  1.00  0.00    -0.181 A  
HETATM   16  C   UNL     1      -7.402   7.287  71.941  1.00  0.00    -0.080 C  
HETATM   17  C   UNL     1      -8.451   6.708  70.950  1.00  0.00    -0.133 C  
HETATM   18  H   UNL     1      -7.060   3.063  69.791  1.00  0.00     0.000 HD 
HETATM   19  O   UNL     1      -5.964   9.218  72.479  1.00  0.00    -0.249 OA 
HETATM   20  C   UNL     1      -8.276   5.210  70.496  1.00  0.00    -0.102 C  
HETATM   21  H   UNL     1      -5.593   8.686  73.174  1.00  0.00     0.000 HD 
HETATM   22  C   UNL     1      -6.343   6.202  72.261  1.00  0.00    -0.053 C  
HETATM   23  O   UNL     1      -8.045   7.497  73.224  1.00  0.00    -0.104 OA 
HETATM   24  O   UNL     1      -6.670   3.401  70.589  1.00  0.00    -0.031 OA 
HETATM   25  C   UNL     1      -7.396   4.327  71.348  1.00  0.00    -0.051 C  
HETATM   26  C   UNL     1      -6.847   4.806  72.476  1.00  0.00    -0.065 C  
HETATM   27  O   UNL     1      -5.130   6.396  72.312  1.00  0.00    -0.025 OA 
HETATM   28  H   UNL     1      -8.363   6.630  73.449  1.00  0.00     0.000 HD 
ENDROOT
BRANCH   8  29
HETATM   29  N   UNL     1      -7.444  15.009  67.765  1.00  0.00    -0.142 N  
HETATM   30  H   UNL     1      -6.804  15.415  68.447  1.00  0.00     0.000 HD 
HETATM   31  C   UNL     1      -7.977  15.844  66.801  1.00  0.00    -0.252 C  
HETATM   32  O   UNL     1      -8.749  15.506  65.906  1.00  0.00    -0.172 OA 
BRANCH  31  33
HETATM   33  C   UNL     1      -7.533  17.302  66.974  1.00  0.00    -0.190 C  
BRANCH  33  34
HETATM   34  N   UNL     1      -8.377  17.935  67.998  1.00  0.00    -0.251 NA 
HETATM   35  C   UNL     1      -8.223  20.225  67.005  1.00  0.00    -0.369 C  
HETATM   36  C   UNL     1      -9.845  19.663  68.817  1.00  0.00    -0.519 C  
HETATM   37  C   UNL     1     -10.204  18.746  66.523  1.00  0.00    -0.458 C  
HETATM   38  H   UNL     1      -7.814  18.166  68.817  1.00  0.00     0.000 HD 
HETATM   39  C   UNL     1      -9.135  19.119  67.561  1.00  0.00    -0.294 C  
ENDBRANCH  33  34
ENDBRANCH  31  33
ENDBRANCH   8  29
BRANCH  15  40
HETATM   40  N   UNL     1      -9.259  10.928  65.831  1.00  0.00    -0.184 NA 
HETATM   41  C   UNL     1     -10.717  10.818  65.741  1.00  0.00    -0.070 C  
HETATM   42  C   UNL     1      -8.545  10.154  64.815  1.00  0.00    -0.181 C  
ENDBRANCH  15  40
BRANCH  26  43
HETATM   43  C   UNL     1      -7.682   4.411  73.651  1.00  0.00    -0.082 C  
HETATM   44  N   UNL     1      -7.150   3.542  74.537  1.00  0.00    -0.050 N  
HETATM   45  H2  UNL     1      -6.210   3.168  74.408  1.00  0.00     0.000 HD 
HETATM   46  H1  UNL     1      -7.720   3.273  75.338  1.00  0.00     0.000 HD 
HETATM   47  O   UNL     1      -8.841   4.797  73.818  1.00  0.00    -0.106 OA 
ENDBRANCH  26  43
BRANCH  20  48
HETATM   48  N   UNL     1      -9.612   4.693  70.118  1.00  0.00    -0.176 NA 
HETATM   49  C   UNL     1     -10.258   3.857  71.128  1.00  0.00     0.145 C  
HETATM   50  C   UNL     1      -9.623   4.017  68.823  1.00  0.00    -0.130 C  
ENDBRANCH  20  48
TORSDOF 6
ENDMDL
MODEL       48
REMARK 921   NORMALIZED FREE ENERGY PREDICTED BY IDOCK:   -3.31 KCAL/MOL
REMARK 922        TOTAL FREE ENERGY PREDICTED BY IDOCK:   -4.85 KCAL/MOL
REMARK 923 INTER-LIGAND FREE ENERGY PREDICTED BY IDOCK:   -4.49 KCAL/MOL
REMARK 924 INTRA-LIGAND FREE ENERGY PREDICTED BY IDOCK:   -0.36 KCAL/MOL
REMARK 927      BINDING AFFINITY PREDICTED BY RF-SCORE:    0.00 PKD
ROOT
HETATM    1  C   UNL     1      -9.659  12.957  68.524  1.00  0.00    -0.113 C  
HETATM    2  C   UNL     1     -10.592  12.357  69.563  1.00  0.00     0.345 C  
HETATM    3  C   UNL     1     -10.414  10.908  69.867  1.00  0.00     0.043 A  
HETATM    4  C   UNL     1      -9.151  10.320  69.596  1.00  0.00    -0.149 A  
HETATM    5  C   UNL     1      -8.000  11.133  69.088  1.00  0.00    -0.042 C  
HETATM    6  C   UNL     1      -8.965   8.955  69.837  1.00  0.00    -0.156 A  
HETATM    7  O   UNL     1      -7.791   8.292  69.577  1.00  0.00    -0.099 OA 
HETATM    8  C   UNL     1     -10.028   8.187  70.307  1.00  0.00    -0.189 A  
HETATM    9  C   UNL     1      -8.234  12.547  68.663  1.00  0.00     0.001 C  
HETATM   10  O   UNL     1      -6.874  10.632  68.999  1.00  0.00    -0.060 OA 
HETATM   11  C   UNL     1      -7.226  13.387  68.317  1.00  0.00    -0.111 C  
HETATM   12  H   UNL     1      -7.665   7.365  69.742  1.00  0.00     0.000 HD 
HETATM   13  C   UNL     1     -11.258   8.781  70.613  1.00  0.00    -0.294 A  
HETATM   14  C   UNL     1      -9.780  14.448  68.732  1.00  0.00    -0.190 C  
HETATM   15  C   UNL     1     -11.488  10.163  70.437  1.00  0.00    -0.322 A  
HETATM   16  C   UNL     1      -7.452  14.806  67.744  1.00  0.00    -0.163 C  
HETATM   17  C   UNL     1      -8.930  15.289  67.781  1.00  0.00    -0.177 C  
HETATM   18  H   UNL     1      -8.928  18.881  69.695  1.00  0.00     0.000 HD 
HETATM   19  O   UNL     1      -5.905  12.954  68.260  1.00  0.00    -0.066 OA 
HETATM   20  C   UNL     1      -9.206  16.756  68.282  1.00  0.00    -0.227 C  
HETATM   21  H   UNL     1      -5.199  13.543  68.018  1.00  0.00     0.000 HD 
HETATM   22  C   UNL     1      -6.529  15.938  68.262  1.00  0.00    -0.120 C  
HETATM   23  O   UNL     1      -7.046  14.669  66.358  1.00  0.00     0.480 OA 
HETATM   24  O   UNL     1      -8.082  18.608  69.361  1.00  0.00     0.056 OA 
HETATM   25  C   UNL     1      -8.042  17.718  68.281  1.00  0.00    -0.283 C  
HETATM   26  C   UNL     1      -6.845  17.332  67.809  1.00  0.00    -0.172 C  
HETATM   27  O   UNL     1      -5.590  15.779  69.040  1.00  0.00    -0.103 OA 
HETATM   28  H   UNL     1      -7.184  15.540  66.007  1.00  0.00     0.000 HD 
ENDROOT
BRANCH   8  29
HETATM   29  N   UNL     1      -9.796   6.817  70.529  1.00  0.00    -0.176 N  
HETATM   30  H   UNL     1      -9.118   6.558  71.246  1.00  0.00     0.000 HD 
HETATM   31  C   UNL     1     -10.427   5.802  69.838  1.00  0.00    -0.290 C  
HETATM   32  O   UNL     1     -11.274   5.950  68.959  1.00  0.00    -0.315 OA 
BRANCH  31  33
HETATM   33  C   UNL     1      -9.932   4.411  70.252  1.00  0.00    -0.177 C  
BRANCH  33  34
HETATM   34  N   UNL     1      -9.026   4.555  71.401  1.00  0.00    -0.124 NA 
HETATM   35  C   UNL     1     -10.845   4.441  73.114  1.00  0.00    -0.321 C  
HETATM   36  C   UNL     1      -8.429   4.298  73.723  1.00  0.00    -0.092 C  
HETATM   37  C   UNL     1      -9.505   2.391  72.526  1.00  0.00    -0.150 C  
HETATM   38  H   UNL     1      -8.826   5.542  71.564  1.00  0.00     0.000 HD 
HETATM   39  C   UNL     1      -9.473   3.921  72.654  1.00  0.00    -0.121 C  
ENDBRANCH  33  34
ENDBRANCH  31  33
ENDBRANCH   8  29
BRANCH  15  40
HETATM   40  N   UNL     1     -12.702  10.708  70.856  1.00  0.00    -0.383 NA 
HETATM   41  C   UNL     1     -13.942   9.938  70.733  1.00  0.00     0.519 C  
HETATM   42  C   UNL     1     -12.909  12.103  71.246  1.00  0.00    -0.250 C  
ENDBRANCH  15  40
BRANCH  26  43
HETATM   43  C   UNL     1      -6.693  17.784  66.392  1.00  0.00    -0.246 C  
HETATM   44  N   UNL     1      -5.659  18.603  66.103  1.00  0.00    -0.150 N  
HETATM   45  H2  UNL     1      -5.005  18.902  66.826  1.00  0.00     0.000 HD 
HETATM   46  H1  UNL     1      -5.555  18.912  65.136  1.00  0.00     0.000 HD 
HETATM   47  O   UNL     1      -7.489  17.491  65.498  1.00  0.00    -0.373 OA 
ENDBRANCH  26  43
BRANCH  20  48
HETATM   48  N   UNL     1     -10.477  17.211  67.671  1.00  0.00    -0.348 NA 
HETATM   49  C   UNL     1     -10.346  18.325  66.734  1.00  0.00    -0.384 C  
HETATM   50  C   UNL     1     -11.517  17.500  68.655  1.00  0.00     1.002 C  
ENDBRANCH  20  48
TORSDOF 6
ENDMDL
MODEL       49
REMARK 921   NORMALIZED FREE ENERGY PREDICTED BY IDOCK:   -2.88 KCAL/MOL
REMARK 922        TOTAL FREE ENERGY PREDICTED BY IDOCK:   -4.27 KCAL/MOL
REMARK 923 INTER-LIGAND FREE ENERGY PREDICTED BY IDOCK:   -3.64 KCAL/MOL
REMARK 924 INTRA-LIGAND FREE ENERGY PREDICTED BY IDOCK:   -0.63 KCAL/MOL
REMARK 927      BINDING AFFINITY PREDICTED BY RF-SCORE:    0.00 PKD
ROOT
HETATM    1  C   UNL     1      -8.091   7.791  67.965  1.00  0.00    -0.123 C  
HETATM    2  C   UNL     1      -7.306   8.570  66.923  1.00  0.00    -0.083 C  
HETATM    3  C   UNL     1      -7.169  10.038  67.147  1.00  0.00    -0.090 A  
HETATM    4  C   UNL     1      -7.304  10.526  68.473  1.00  0.00    -0.088 A  
HETATM    5  C   UNL     1      -7.507   9.600  69.633  1.00  0.00    -0.102 C  
HETATM    6  C   UNL     1      -7.216  11.902  68.709  1.00  0.00    -0.112 A  
HETATM    7  O   UNL     1      -7.365  12.469  69.950  1.00  0.00     0.039 OA 
HETATM    8  C   UNL     1      -7.030  12.774  67.638  1.00  0.00    -0.146 A  
HETATM    9  C   UNL     1      -7.777   8.151  69.375  1.00  0.00    -0.103 C  
HETATM   10  O   UNL     1      -7.475  10.033  70.790  1.00  0.00    -0.298 OA 
HETATM   11  C   UNL     1      -7.840   7.228  70.367  1.00  0.00    -0.099 C  
HETATM   12  H   UNL     1      -7.305  13.404  70.110  1.00  0.00     0.000 HD 
HETATM   13  C   UNL     1      -6.854  12.284  66.340  1.00  0.00     0.880 A  
HETATM   14  C   UNL     1      -7.713   6.350  67.715  1.00  0.00    -0.103 C  
HETATM   15  C   UNL     1      -6.884  10.902  66.049  1.00  0.00    -0.072 A  
HETATM   16  C   UNL     1      -8.252   5.754  70.139  1.00  0.00    -0.116 C  
HETATM   17  C   UNL     1      -8.395   5.347  68.644  1.00  0.00    -0.093 C  
HETATM   18  H   UNL     1      -6.054   2.061  68.111  1.00  0.00     0.000 HD 
HETATM   19  O   UNL     1      -7.738   7.589  71.705  1.00  0.00    -0.082 OA 
HETATM   20  C   UNL     1      -7.758   3.979  68.198  1.00  0.00    -0.066 C  
HETATM   21  H   UNL     1      -7.782   6.943  72.400  1.00  0.00     0.000 HD 
HETATM   22  C   UNL     1      -7.447   4.666  70.893  1.00  0.00    -0.056 C  
HETATM   23  O   UNL     1      -9.559   5.679  70.764  1.00  0.00    -0.161 OA 
HETATM   24  O   UNL     1      -6.278   2.247  69.015  1.00  0.00    -0.024 OA 
HETATM   25  C   UNL     1      -7.444   2.975  69.282  1.00  0.00    -0.047 C  
HETATM   26  C   UNL     1      -7.761   3.238  70.560  1.00  0.00    -0.043 C  
HETATM   27  O   UNL     1      -6.554   4.890  71.708  1.00  0.00    -0.029 OA 
HETATM   28  H   UNL     1      -9.812   4.774  70.625  1.00  0.00     0.000 HD 
ENDROOT
BRANCH   8  29
HETATM   29  N   UNL     1      -6.954  14.150  67.924  1.00  0.00    -0.147 N  
HETATM   30  H   UNL     1      -7.609  14.773  67.453  1.00  0.00     0.000 HD 
HETATM   31  C   UNL     1      -6.047  14.710  68.803  1.00  0.00    -0.084 C  
HETATM   32  O   UNL     1      -5.206  14.095  69.456  1.00  0.00    -0.087 OA 
BRANCH  31  33
HETATM   33  C   UNL     1      -6.159  16.238  68.870  1.00  0.00    -0.131 C  
BRANCH  33  34
HETATM   34  N   UNL     1      -6.362  16.757  67.510  1.00  0.00    -0.147 NA 
HETATM   35  C   UNL     1      -8.306  18.203  68.128  1.00  0.00    -0.285 C  
HETATM   36  C   UNL     1      -7.162  18.380  65.917  1.00  0.00    -0.267 C  
HETATM   37  C   UNL     1      -5.985  19.169  67.972  1.00  0.00    -0.222 C  
HETATM   38  H   UNL     1      -6.922  16.099  66.967  1.00  0.00     0.000 HD 
HETATM   39  C   UNL     1      -6.946  18.106  67.418  1.00  0.00    -0.197 C  
ENDBRANCH  33  34
ENDBRANCH  31  33
ENDBRANCH   8  29
BRANCH  15  40
HETATM   40  N   UNL     1      -6.601  10.475  64.751  1.00  0.00    -0.036 NA 
HETATM   41  C   UNL     1      -5.235  10.548  64.229  1.00  0.00    -0.152 C  
HETATM   42  C   UNL     1      -7.601  10.125  63.743  1.00  0.00    -0.133 C  
ENDBRANCH  15  40
BRANCH  26  43
HETATM   43  C   UNL     1      -9.062   2.586  70.901  1.00  0.00    -0.112 C  
HETATM   44  N   UNL     1      -9.778   3.109  71.919  1.00  0.00    -0.155 N  
HETATM   45  H2  UNL     1      -9.442   3.921  72.437  1.00  0.00     0.000 HD 
HETATM   46  H1  UNL     1     -10.666   2.664  72.152  1.00  0.00     0.000 HD 
HETATM   47  O   UNL     1      -9.480   1.573  70.337  1.00  0.00    -0.097 OA 
ENDBRANCH  26  43
BRANCH  20  48
HETATM   48  N   UNL     1      -8.503   3.500  67.010  1.00  0.00    -0.102 NA 
HETATM   49  C   UNL     1      -9.529   2.495  67.289  1.00  0.00     0.005 C  
HETATM   50  C   UNL     1      -7.633   3.043  65.929  1.00  0.00    -0.073 C  
ENDBRANCH  20  48
TORSDOF 6
ENDMDL
MODEL       50
REMARK 921   NORMALIZED FREE ENERGY PREDICTED BY IDOCK:   -2.66 KCAL/MOL
REMARK 922        TOTAL FREE ENERGY PREDICTED BY IDOCK:   -3.97 KCAL/MOL
REMARK 923 INTER-LIGAND FREE ENERGY PREDICTED BY IDOCK:   -7.26 KCAL/MOL
REMARK 924 INTRA-LIGAND FREE ENERGY PREDICTED BY IDOCK:    3.29 KCAL/MOL
REMARK 927      BINDING AFFINITY PREDICTED BY RF-SCORE:    0.00 PKD
ROOT
HETATM    1  C   UNL     1     -10.457   8.894  67.390  1.00  0.00    -0.347 C  
HETATM    2  C   UNL     1     -10.274  10.341  66.965  1.00  0.00    -0.282 C  
HETATM    3  C   UNL     1     -10.971  11.374  67.784  1.00  0.00    -0.301 A  
HETATM    4  C   UNL     1     -11.310  11.045  69.122  1.00  0.00    -0.348 A  
HETATM    5  C   UNL     1     -10.925   9.732  69.730  1.00  0.00    -0.256 C  
HETATM    6  C   UNL     1     -11.997  11.981  69.904  1.00  0.00    -0.318 A  
HETATM    7  O   UNL     1     -12.395  11.743  71.196  1.00  0.00    -0.324 OA 
HETATM    8  C   UNL     1     -12.363  13.205  69.350  1.00  0.00    -0.003 A  
HETATM    9  C   UNL     1     -10.350   8.662  68.858  1.00  0.00    -0.228 C  
HETATM   10  O   UNL     1     -11.101   9.526  70.936  1.00  0.00    -0.279 OA 
HETATM   11  C   UNL     1      -9.856   7.499  69.350  1.00  0.00    -0.166 C  
HETATM   12  H   UNL     1     -12.861  12.378  71.727  1.00  0.00     0.000 HD 
HETATM   13  C   UNL     1     -11.987  13.540  68.045  1.00  0.00    -0.372 A  
HETATM   14  C   UNL     1      -9.348   8.154  66.679  1.00  0.00    -0.250 C  
HETATM   15  C   UNL     1     -11.252  12.655  67.225  1.00  0.00    -0.298 A  
HETATM   16  C   UNL     1      -9.385   6.324  68.461  1.00  0.00    -0.121 C  
HETATM   17  C   UNL     1      -9.326   6.648  66.940  1.00  0.00    -0.171 C  
HETATM   18  H   UNL     1      -5.570   5.693  65.697  1.00  0.00     0.000 HD 
HETATM   19  O   UNL     1      -9.928   7.193  70.705  1.00  0.00    -0.190 OA 
HETATM   20  C   UNL     1      -8.049   6.183  66.144  1.00  0.00    -0.115 C  
HETATM   21  H   UNL     1      -9.582   6.378  71.050  1.00  0.00     0.000 HD 
HETATM   22  C   UNL     1      -8.085   5.591  68.880  1.00  0.00    -0.095 C  
HETATM   23  O   UNL     1     -10.407   5.317  68.678  1.00  0.00    -0.174 OA 
HETATM   24  O   UNL     1      -5.829   5.295  66.520  1.00  0.00    -0.017 OA 
HETATM   25  C   UNL     1      -7.194   5.110  66.775  1.00  0.00    -0.077 C  
HETATM   26  C   UNL     1      -7.561   4.548  67.938  1.00  0.00    -0.077 C  
HETATM   27  O   UNL     1      -7.442   5.828  69.901  1.00  0.00    -0.075 OA 
HETATM   28  H   UNL     1     -10.117   4.596  68.132  1.00  0.00     0.000 HD 
ENDROOT
BRANCH   8  29
HETATM   29  N   UNL     1     -13.057  14.112  70.173  1.00  0.00    -0.296 N  
HETATM   30  H   UNL     1     -13.113  15.085  69.871  1.00  0.00     0.000 HD 
HETATM   31  C   UNL     1     -13.667  13.767  71.363  1.00  0.00    -0.126 C  
HETATM   32  O   UNL     1     -13.701  12.641  71.853  1.00  0.00    -0.290 OA 
BRANCH  31  33
HETATM   33  C   UNL     1     -14.296  14.973  72.073  1.00  0.00    -0.573 C  
BRANCH  33  34
HETATM   34  N   UNL     1     -13.406  16.132  71.914  1.00  0.00    -0.250 NA 
HETATM   35  C   UNL     1     -12.643  16.134  74.296  1.00  0.00    -0.633 C  
HETATM   36  C   UNL     1     -11.531  17.514  72.539  1.00  0.00     1.646 C  
HETATM   37  C   UNL     1     -11.257  15.032  72.505  1.00  0.00     0.116 C  
HETATM   38  H   UNL     1     -13.941  16.996  72.002  1.00  0.00     0.000 HD 
HETATM   39  C   UNL     1     -12.239  16.172  72.813  1.00  0.00    -0.531 C  
ENDBRANCH  33  34
ENDBRANCH  31  33
ENDBRANCH   8  29
BRANCH  15  40
HETATM   40  N   UNL     1     -10.822  13.090  65.971  1.00  0.00    -0.270 NA 
HETATM   41  C   UNL     1      -9.780  14.112  65.859  1.00  0.00    -0.241 C  
HETATM   42  C   UNL     1     -11.464  12.757  64.699  1.00  0.00    -0.324 C  
ENDBRANCH  15  40
BRANCH  26  43
HETATM   43  C   UNL     1      -8.266   3.257  67.674  1.00  0.00    -0.081 C  
HETATM   44  N   UNL     1      -7.831   2.503  66.642  1.00  0.00    -0.075 N  
HETATM   45  H2  UNL     1      -7.047   2.805  66.063  1.00  0.00     0.000 HD 
HETATM   46  H1  UNL     1      -8.312   1.622  66.462  1.00  0.00     0.000 HD 
HETATM   47  O   UNL     1      -9.250   2.880  68.314  1.00  0.00    -0.157 OA 
ENDBRANCH  26  43
BRANCH  20  48
HETATM   48  N   UNL     1      -8.440   6.008  64.726  1.00  0.00    -0.084 NA 
HETATM   49  C   UNL     1      -9.029   4.708  64.404  1.00  0.00    -0.142 C  
HETATM   50  C   UNL     1      -7.364   6.318  63.789  1.00  0.00    -0.069 C  
ENDBRANCH  20  48
TORSDOF 6
ENDMDL
MODEL       51
REMARK 921   NORMALIZED FREE ENERGY PREDICTED BY IDOCK:   -2.40 KCAL/MOL
REMARK 922        TOTAL FREE ENERGY PREDICTED BY IDOCK:   -3.62 KCAL/MOL
REMARK 923 INTER-LIGAND FREE ENERGY PREDICTED BY IDOCK:   -3.98 KCAL/MOL
REMARK 924 INTRA-LIGAND FREE ENERGY PREDICTED BY IDOCK:    0.36 KCAL/MOL
REMARK 927      BINDING AFFINITY PREDICTED BY RF-SCORE:    0.00 PKD
ROOT
HETATM    1  C   UNL     1      -9.348  11.891  68.661  1.00  0.00    -0.076 C  
HETATM    2  C   UNL     1      -8.240  11.090  69.325  1.00  0.00     0.010 C  
HETATM    3  C   UNL     1      -8.418   9.610  69.373  1.00  0.00    -0.156 A  
HETATM    4  C   UNL     1      -9.275   9.011  68.414  1.00  0.00    -0.137 A  
HETATM    5  C   UNL     1      -9.932   9.817  67.336  1.00  0.00    -0.191 C  
HETATM    6  C   UNL     1      -9.490   7.629  68.456  1.00  0.00    -0.147 A  
HETATM    7  O   UNL     1     -10.325   6.965  67.592  1.00  0.00    -0.167 OA 
HETATM    8  C   UNL     1      -8.887   6.869  69.455  1.00  0.00    -0.133 A  
HETATM    9  C   UNL     1      -9.852  11.310  67.385  1.00  0.00    -0.201 C  
HETATM   10  O   UNL     1     -10.554   9.255  66.428  1.00  0.00    -0.142 OA 
HETATM   11  C   UNL     1     -10.304  12.104  66.383  1.00  0.00    -0.218 C  
HETATM   12  H   UNL     1     -10.470   6.027  67.621  1.00  0.00     0.000 HD 
HETATM   13  C   UNL     1      -8.009   7.459  70.370  1.00  0.00    -0.103 A  
HETATM   14  C   UNL     1      -8.722  13.239  68.390  1.00  0.00    -0.126 C  
HETATM   15  C   UNL     1      -7.715   8.841  70.346  1.00  0.00    -0.091 A  
HETATM   16  C   UNL     1     -10.357  13.647  66.471  1.00  0.00    -0.282 C  
HETATM   17  C   UNL     1      -9.658  14.247  67.725  1.00  0.00    -0.221 C  
HETATM   18  H   UNL     1      -6.996  17.006  66.359  1.00  0.00     0.000 HD 
HETATM   19  O   UNL     1     -10.951  11.575  65.271  1.00  0.00    -0.284 OA 
HETATM   20  C   UNL     1      -8.721  15.494  67.511  1.00  0.00    -0.172 C  
HETATM   21  H   UNL     1     -11.268  12.131  64.569  1.00  0.00     0.000 HD 
HETATM   22  C   UNL     1      -9.930  14.446  65.213  1.00  0.00    -0.280 C  
HETATM   23  O   UNL     1     -11.778  13.922  66.560  1.00  0.00    -0.354 OA 
HETATM   24  O   UNL     1      -7.675  16.768  65.738  1.00  0.00    -0.164 OA 
HETATM   25  C   UNL     1      -8.890  16.275  66.230  1.00  0.00    -0.331 C  
HETATM   26  C   UNL     1      -9.850  15.938  65.353  1.00  0.00    -0.163 C  
HETATM   27  O   UNL     1      -9.619  13.946  64.134  1.00  0.00     0.680 OA 
HETATM   28  H   UNL     1     -11.811  14.870  66.613  1.00  0.00     0.000 HD 
ENDROOT
BRANCH   8  29
HETATM   29  N   UNL     1      -9.137   5.484  69.461  1.00  0.00    -0.119 N  
HETATM   30  H   UNL     1      -9.951   5.147  69.974  1.00  0.00     0.000 HD 
HETATM   31  C   UNL     1      -8.348   4.551  68.815  1.00  0.00    -0.080 C  
HETATM   32  O   UNL     1      -7.346   4.797  68.147  1.00  0.00    -0.065 OA 
BRANCH  31  33
HETATM   33  C   UNL     1      -8.830   3.113  69.043  1.00  0.00    -0.107 C  
BRANCH  33  34
HETATM   34  N   UNL     1      -9.834   3.117  70.118  1.00  0.00     0.021 NA 
HETATM   35  C   UNL     1      -8.561   1.553  71.596  1.00  0.00    -0.072 C  
HETATM   36  C   UNL     1     -10.553   2.824  72.401  1.00  0.00    -0.010 C  
HETATM   37  C   UNL     1      -8.424   4.044  71.941  1.00  0.00    -0.107 C  
HETATM   38  H   UNL     1     -10.571   2.444  69.906  1.00  0.00     0.000 HD 
HETATM   39  C   UNL     1      -9.319   2.885  71.478  1.00  0.00    -0.130 C  
ENDBRANCH  33  34
ENDBRANCH  31  33
ENDBRANCH   8  29
BRANCH  15  40
HETATM   40  N   UNL     1      -6.754   9.347  71.221  1.00  0.00    -0.265 NA 
HETATM   41  C   UNL     1      -5.863  10.428  70.798  1.00  0.00    -0.093 C  
HETATM   42  C   UNL     1      -6.397   8.757  72.511  1.00  0.00    -0.028 C  
ENDBRANCH  15  40
BRANCH  26  43
HETATM   43  C   UNL     1     -11.050  16.804  65.561  1.00  0.00     0.099 C  
HETATM   44  N   UNL     1     -10.860  18.013  66.131  1.00  0.00    -0.089 N  
HETATM   45  H2  UNL     1      -9.930  18.324  66.410  1.00  0.00     0.000 HD 
HETATM   46  H1  UNL     1     -11.680  18.604  66.273  1.00  0.00     0.000 HD 
HETATM   47  O   UNL     1     -12.198  16.448  65.288  1.00  0.00     1.225 OA 
ENDBRANCH  26  43
BRANCH  20  48
HETATM   48  N   UNL     1      -8.682  16.254  68.782  1.00  0.00    -0.232 NA 
HETATM   49  C   UNL     1      -9.878  17.048  69.062  1.00  0.00    -0.240 C  
HETATM   50  C   UNL     1      -7.486  17.079  68.924  1.00  0.00    -0.237 C  
ENDBRANCH  20  48
TORSDOF 6
ENDMDL
MODEL       52
REMARK 921   NORMALIZED FREE ENERGY PREDICTED BY IDOCK:   -1.61 KCAL/MOL
REMARK 922        TOTAL FREE ENERGY PREDICTED BY IDOCK:   -2.55 KCAL/MOL
REMARK 923 INTER-LIGAND FREE ENERGY PREDICTED BY IDOCK:   -2.76 KCAL/MOL
REMARK 924 INTRA-LIGAND FREE ENERGY PREDICTED BY IDOCK:    0.21 KCAL/MOL
REMARK 927      BINDING AFFINITY PREDICTED BY RF-SCORE:    0.00 PKD
ROOT
HETATM    1  C   UNL     1      -9.090  11.648  67.348  1.00  0.00    -0.169 C  
HETATM    2  C   UNL     1      -8.755  11.062  65.987  1.00  0.00    -0.192 C  
HETATM    3  C   UNL     1      -8.822   9.577  65.860  1.00  0.00    -0.193 A  
HETATM    4  C   UNL     1      -9.639   8.867  66.778  1.00  0.00    -0.262 A  
HETATM    5  C   UNL     1     -10.469   9.577  67.803  1.00  0.00    -0.254 C  
HETATM    6  C   UNL     1      -9.694   7.471  66.708  1.00  0.00    -0.216 A  
HETATM    7  O   UNL     1     -10.429   6.697  67.570  1.00  0.00    -0.178 OA 
HETATM    8  C   UNL     1      -8.925   6.798  65.761  1.00  0.00    -0.016 A  
HETATM    9  C   UNL     1     -10.285  11.048  68.003  1.00  0.00    -0.201 C  
HETATM   10  O   UNL     1     -11.281   8.950  68.492  1.00  0.00     0.167 OA 
HETATM   11  C   UNL     1     -11.086  11.785  68.813  1.00  0.00    -0.241 C  
HETATM   12  H   UNL     1     -10.467   5.748  67.522  1.00  0.00     0.000 HD 
HETATM   13  C   UNL     1      -8.156   7.506  64.831  1.00  0.00    -0.121 A  
HETATM   14  C   UNL     1      -9.345  13.111  67.072  1.00  0.00    -0.238 C  
HETATM   15  C   UNL     1      -8.100   8.918  64.823  1.00  0.00    -0.144 A  
HETATM   16  C   UNL     1     -10.832  13.275  69.142  1.00  0.00    -0.104 C  
HETATM   17  C   UNL     1      -9.695  13.935  68.309  1.00  0.00    -0.223 C  
HETATM   18  H   UNL     1     -11.295  17.268  66.605  1.00  0.00     0.000 HD 
HETATM   19  O   UNL     1     -12.087  11.197  69.578  1.00  0.00    -0.322 OA 
HETATM   20  C   UNL     1      -9.971  15.362  67.702  1.00  0.00    -0.225 C  
HETATM   21  H   UNL     1     -12.648  11.713  70.145  1.00  0.00     0.000 HD 
HETATM   22  C   UNL     1     -12.062  14.217  69.170  1.00  0.00    -0.325 C  
HETATM   23  O   UNL     1     -10.423  13.239  70.533  1.00  0.00     1.414 OA 
HETATM   24  O   UNL     1     -11.782  16.928  67.346  1.00  0.00     0.539 OA 
HETATM   25  C   UNL     1     -11.102  16.162  68.302  1.00  0.00    -0.348 C  
HETATM   26  C   UNL     1     -11.791  15.681  69.350  1.00  0.00    -0.391 C  
HETATM   27  O   UNL     1     -13.228  13.856  69.018  1.00  0.00     1.446 OA 
HETATM   28  H   UNL     1     -10.267  14.154  70.735  1.00  0.00     0.000 HD 
ENDROOT
BRANCH   8  29
HETATM   29  N   UNL     1      -9.009   5.394  65.731  1.00  0.00    -0.157 N  
HETATM   30  H   UNL     1      -9.730   4.970  65.147  1.00  0.00     0.000 HD 
HETATM   31  C   UNL     1      -8.175   4.552  66.443  1.00  0.00    -0.106 C  
HETATM   32  O   UNL     1      -7.254   4.906  67.176  1.00  0.00    -0.074 OA 
BRANCH  31  33
HETATM   33  C   UNL     1      -8.538   3.073  66.261  1.00  0.00    -0.121 C  
BRANCH  33  34
HETATM   34  N   UNL     1      -9.378   2.936  65.062  1.00  0.00    -0.176 NA 
HETATM   35  C   UNL     1      -7.753   4.073  63.539  1.00  0.00    -0.070 C  
HETATM   36  C   UNL     1      -9.738   2.828  62.681  1.00  0.00    -0.091 C  
HETATM   37  C   UNL     1      -7.836   1.560  63.683  1.00  0.00    -0.060 C  
HETATM   38  H   UNL     1     -10.061   3.694  65.029  1.00  0.00     0.000 HD 
HETATM   39  C   UNL     1      -8.658   2.854  63.780  1.00  0.00    -0.086 C  
ENDBRANCH  33  34
ENDBRANCH  31  33
ENDBRANCH   8  29
BRANCH  15  40
HETATM   40  N   UNL     1      -7.396   9.564  63.807  1.00  0.00    -0.109 NA 
HETATM   41  C   UNL     1      -5.970   9.859  63.966  1.00  0.00    -0.121 C  
HETATM   42  C   UNL     1      -7.998  10.178  62.624  1.00  0.00    -0.142 C  
ENDBRANCH  15  40
BRANCH  26  43
HETATM   43  C   UNL     1     -11.251  16.262  70.617  1.00  0.00    -0.288 C  
HETATM   44  N   UNL     1     -11.557  15.637  71.774  1.00  0.00    -0.419 N  
HETATM   45  H2  UNL     1     -12.136  14.797  71.782  1.00  0.00     0.000 HD 
HETATM   46  H1  UNL     1     -11.189  16.034  72.639  1.00  0.00     0.000 HD 
HETATM   47  O   UNL     1     -10.593  17.304  70.658  1.00  0.00     0.594 OA 
ENDBRANCH  26  43
BRANCH  20  48
HETATM   48  N   UNL     1      -8.664  16.039  67.527  1.00  0.00    -0.179 NA 
HETATM   49  C   UNL     1      -7.639  15.659  68.499  1.00  0.00    -0.132 C  
HETATM   50  C   UNL     1      -8.774  17.493  67.454  1.00  0.00    -0.228 C  
ENDBRANCH  20  48
TORSDOF 6
ENDMDL
MODEL       53
REMARK 921   NORMALIZED FREE ENERGY PREDICTED BY IDOCK:   -1.60 KCAL/MOL
REMARK 922        TOTAL FREE ENERGY PREDICTED BY IDOCK:   -2.55 KCAL/MOL
REMARK 923 INTER-LIGAND FREE ENERGY PREDICTED BY IDOCK:   -2.40 KCAL/MOL
REMARK 924 INTRA-LIGAND FREE ENERGY PREDICTED BY IDOCK:   -0.14 KCAL/MOL
REMARK 927      BINDING AFFINITY PREDICTED BY RF-SCORE:    0.00 PKD
ROOT
HETATM    1  C   UNL     1      -8.631  14.695  66.481  1.00  0.00    -0.023 C  
HETATM    2  C   UNL     1      -9.863  13.968  65.969  1.00  0.00    -0.316 C  
HETATM    3  C   UNL     1      -9.824  12.478  65.999  1.00  0.00    -0.266 A  
HETATM    4  C   UNL     1      -8.938  11.853  66.915  1.00  0.00    -0.196 A  
HETATM    5  C   UNL     1      -8.113  12.651  67.878  1.00  0.00    -0.165 C  
HETATM    6  C   UNL     1      -8.853  10.457  66.942  1.00  0.00    -0.133 A  
HETATM    7  O   UNL     1      -8.004   9.765  67.769  1.00  0.00    -0.101 OA 
HETATM    8  C   UNL     1      -9.613   9.704  66.050  1.00  0.00    -0.242 A  
HETATM    9  C   UNL     1      -8.064  14.139  67.742  1.00  0.00    -0.170 C  
HETATM   10  O   UNL     1      -7.463  12.083  68.762  1.00  0.00    -0.114 OA 
HETATM   11  C   UNL     1      -7.451  14.941  68.648  1.00  0.00    -0.124 C  
HETATM   12  H   UNL     1      -7.947   8.817  67.787  1.00  0.00     0.000 HD 
HETATM   13  C   UNL     1     -10.516  10.323  65.180  1.00  0.00    -0.069 A  
HETATM   14  C   UNL     1      -9.105  16.109  66.720  1.00  0.00    -0.257 C  
HETATM   15  C   UNL     1     -10.681  11.726  65.143  1.00  0.00    -0.291 A  
HETATM   16  C   UNL     1      -7.268  16.465  68.458  1.00  0.00    -0.170 C  
HETATM   17  C   UNL     1      -8.024  17.059  67.235  1.00  0.00    -0.197 C  
HETATM   18  H   UNL     1     -10.288  20.130  68.653  1.00  0.00     0.000 HD 
HETATM   19  O   UNL     1      -6.753  14.415  69.730  1.00  0.00    -0.148 OA 
HETATM   20  C   UNL     1      -8.822  18.399  67.451  1.00  0.00    -0.257 C  
HETATM   21  H   UNL     1      -6.323  14.976  70.365  1.00  0.00     0.000 HD 
HETATM   22  C   UNL     1      -7.502  17.369  69.695  1.00  0.00     0.500 C  
HETATM   23  O   UNL     1      -5.842  16.598  68.228  1.00  0.00    -0.113 OA 
HETATM   24  O   UNL     1      -9.578  19.862  69.225  1.00  0.00    -0.240 OA 
HETATM   25  C   UNL     1      -8.463  19.230  68.661  1.00  0.00    -0.368 C  
HETATM   26  C   UNL     1      -7.460  18.851  69.469  1.00  0.00     0.081 C  
HETATM   27  O   UNL     1      -7.754  16.960  70.827  1.00  0.00     3.257 OA 
HETATM   28  H   UNL     1      -5.730  17.534  68.111  1.00  0.00     0.000 HD 
ENDROOT
BRANCH   8  29
HETATM   29  N   UNL     1      -9.490   8.303  66.110  1.00  0.00    -0.354 N  
HETATM   30  H   UNL     1      -9.928   7.818  66.892  1.00  0.00     0.000 HD 
HETATM   31  C   UNL     1      -8.813   7.544  65.175  1.00  0.00     0.240 C  
HETATM   32  O   UNL     1      -8.246   7.976  64.174  1.00  0.00    -0.139 OA 
BRANCH  31  33
HETATM   33  C   UNL     1      -8.795   6.052  65.530  1.00  0.00    -0.073 C  
BRANCH  33  34
HETATM   34  N   UNL     1      -9.876   5.378  64.794  1.00  0.00     0.005 NA 
HETATM   35  C   UNL     1      -8.341   3.949  63.432  1.00  0.00    -0.091 C  
HETATM   36  C   UNL     1     -10.806   3.563  63.508  1.00  0.00    -0.205 C  
HETATM   37  C   UNL     1      -9.422   3.046  65.520  1.00  0.00    -0.048 C  
HETATM   38  H   UNL     1     -10.169   5.954  64.005  1.00  0.00     0.000 HD 
HETATM   39  C   UNL     1      -9.584   4.010  64.335  1.00  0.00    -0.170 C  
ENDBRANCH  33  34
ENDBRANCH  31  33
ENDBRANCH   8  29
BRANCH  15  40
HETATM   40  N   UNL     1     -11.670  12.273  64.325  1.00  0.00    -0.359 NA 
HETATM   41  C   UNL     1     -11.891  11.744  62.977  1.00  0.00     0.102 C  
HETATM   42  C   UNL     1     -12.416  13.498  64.609  1.00  0.00    -0.323 C  
ENDBRANCH  15  40
BRANCH  26  43
HETATM   43  C   UNL     1      -6.212  19.587  69.102  1.00  0.00    -0.283 C  
HETATM   44  N   UNL     1      -5.446  20.063  70.107  1.00  0.00    -0.233 N  
HETATM   45  H2  UNL     1      -5.711  19.926  71.082  1.00  0.00     0.000 HD 
HETATM   46  H1  UNL     1      -4.594  20.566  69.856  1.00  0.00     0.000 HD 
HETATM   47  O   UNL     1      -5.882  19.822  67.938  1.00  0.00    -0.199 OA 
ENDBRANCH  26  43
BRANCH  20  48
HETATM   48  N   UNL     1      -8.910  19.088  66.143  1.00  0.00    -0.460 NA 
HETATM   49  C   UNL     1      -7.663  19.124  65.379  1.00  0.00     0.484 C  
HETATM   50  C   UNL     1      -9.482  20.428  66.235  1.00  0.00    -0.177 C  
ENDBRANCH  20  48
TORSDOF 6
ENDMDL
MODEL       54
REMARK 921   NORMALIZED FREE ENERGY PREDICTED BY IDOCK:   -1.50 KCAL/MOL
REMARK 922        TOTAL FREE ENERGY PREDICTED BY IDOCK:   -2.40 KCAL/MOL
REMARK 923 INTER-LIGAND FREE ENERGY PREDICTED BY IDOCK:   -1.57 KCAL/MOL
REMARK 924 INTRA-LIGAND FREE ENERGY PREDICTED BY IDOCK:   -0.84 KCAL/MOL
REMARK 927      BINDING AFFINITY PREDICTED BY RF-SCORE:    0.00 PKD
ROOT
HETATM    1  C   UNL     1      -8.933  14.299  66.643  1.00  0.00    -0.212 C  
HETATM    2  C   UNL     1      -9.719  13.455  65.653  1.00  0.00    -0.103 C  
HETATM    3  C   UNL     1      -9.798  11.992  65.933  1.00  0.00    -0.259 A  
HETATM    4  C   UNL     1      -9.608  11.559  67.271  1.00  0.00    -0.183 A  
HETATM    5  C   UNL     1      -9.405  12.532  68.391  1.00  0.00    -0.149 C  
HETATM    6  C   UNL     1      -9.641  10.189  67.559  1.00  0.00    -0.156 A  
HETATM    7  O   UNL     1      -9.437   9.674  68.814  1.00  0.00    -0.144 OA 
HETATM    8  C   UNL     1      -9.826   9.273  66.525  1.00  0.00    -0.263 A  
HETATM    9  C   UNL     1      -9.195  13.979  68.074  1.00  0.00    -0.201 C  
HETATM   10  O   UNL     1      -9.389  12.141  69.563  1.00  0.00     0.874 OA 
HETATM   11  C   UNL     1      -9.136  14.939  69.030  1.00  0.00    -0.175 C  
HETATM   12  H   UNL     1      -9.459   8.744  69.009  1.00  0.00     0.000 HD 
HETATM   13  C   UNL     1     -10.056   9.709  65.216  1.00  0.00    -0.007 A  
HETATM   14  C   UNL     1      -9.369  15.716  66.353  1.00  0.00    -0.332 C  
HETATM   15  C   UNL     1     -10.083  11.080  64.875  1.00  0.00    -0.300 A  
HETATM   16  C   UNL     1      -8.782  16.417  68.738  1.00  0.00    -0.246 C  
HETATM   17  C   UNL     1      -8.696  16.774  67.226  1.00  0.00    -0.214 C  
HETATM   18  H   UNL     1     -11.167  19.956  66.646  1.00  0.00     0.000 HD 
HETATM   19  O   UNL     1      -9.187  14.624  70.383  1.00  0.00     0.303 OA 
HETATM   20  C   UNL     1      -9.394  18.103  66.750  1.00  0.00    -0.286 C  
HETATM   21  H   UNL     1      -9.146  15.297  71.053  1.00  0.00     0.000 HD 
HETATM   22  C   UNL     1      -9.604  17.504  69.477  1.00  0.00     0.344 C  
HETATM   23  O   UNL     1      -7.462  16.560  69.321  1.00  0.00    -0.240 OA 
HETATM   24  O   UNL     1     -10.911  19.812  67.549  1.00  0.00    -0.411 OA 
HETATM   25  C   UNL     1      -9.712  19.134  67.807  1.00  0.00    -0.321 C  
HETATM   26  C   UNL     1      -9.350  18.929  69.083  1.00  0.00    -0.150 C  
HETATM   27  O   UNL     1     -10.465  17.280  70.325  1.00  0.00     0.278 OA 
HETATM   28  H   UNL     1      -7.245  17.467  69.142  1.00  0.00     0.000 HD 
ENDROOT
BRANCH   8  29
HETATM   29  N   UNL     1      -9.846   7.907  66.862  1.00  0.00    -0.216 N  
HETATM   30  H   UNL     1     -10.743   7.487  67.102  1.00  0.00     0.000 HD 
HETATM   31  C   UNL     1      -8.725   7.099  66.887  1.00  0.00    -0.126 C  
HETATM   32  O   UNL     1      -7.580   7.450  66.611  1.00  0.00    -0.095 OA 
BRANCH  31  33
HETATM   33  C   UNL     1      -9.041   5.670  67.345  1.00  0.00    -0.110 C  
BRANCH  33  34
HETATM   34  N   UNL     1      -8.373   5.429  68.633  1.00  0.00    -0.094 NA 
HETATM   35  C   UNL     1     -10.376   6.006  70.015  1.00  0.00    -0.290 C  
HETATM   36  C   UNL     1      -8.351   4.920  70.990  1.00  0.00    -0.109 C  
HETATM   37  C   UNL     1      -9.837   3.606  69.475  1.00  0.00     0.040 C  
HETATM   38  H   UNL     1      -7.844   6.256  68.910  1.00  0.00     0.000 HD 
HETATM   39  C   UNL     1      -9.247   4.999  69.738  1.00  0.00    -0.118 C  
ENDBRANCH  33  34
ENDBRANCH  31  33
ENDBRANCH   8  29
BRANCH  15  40
HETATM   40  N   UNL     1     -10.418  11.449  63.572  1.00  0.00    -0.392 NA 
HETATM   41  C   UNL     1      -9.455  11.275  62.483  1.00  0.00    -0.131 C  
HETATM   42  C   UNL     1     -11.612  12.203  63.191  1.00  0.00    -0.188 C  
ENDBRANCH  15  40
BRANCH  26  43
HETATM   43  C   UNL     1      -8.064  19.637  69.363  1.00  0.00     0.112 C  
HETATM   44  N   UNL     1      -7.339  19.226  70.425  1.00  0.00     0.769 N  
HETATM   45  H2  UNL     1      -7.658  18.459  71.016  1.00  0.00     0.000 HD 
HETATM   46  H1  UNL     1      -6.461  19.709  70.615  1.00  0.00     0.000 HD 
HETATM   47  O   UNL     1      -7.666  20.603  68.707  1.00  0.00     0.334 OA 
ENDBRANCH  26  43
BRANCH  20  48
HETATM   48  N   UNL     1      -8.700  18.563  65.524  1.00  0.00     0.208 NA 
HETATM   49  C   UNL     1      -7.300  18.154  65.418  1.00  0.00     0.421 C  
HETATM   50  C   UNL     1      -8.822  20.001  65.298  1.00  0.00     0.974 C  
ENDBRANCH  20  48
TORSDOF 6
ENDMDL
MODEL       55
REMARK 921   NORMALIZED FREE ENERGY PREDICTED BY IDOCK:   -1.16 KCAL/MOL
REMARK 922        TOTAL FREE ENERGY PREDICTED BY IDOCK:   -1.94 KCAL/MOL
REMARK 923 INTER-LIGAND FREE ENERGY PREDICTED BY IDOCK:   -3.52 KCAL/MOL
REMARK 924 INTRA-LIGAND FREE ENERGY PREDICTED BY IDOCK:    1.57 KCAL/MOL
REMARK 927      BINDING AFFINITY PREDICTED BY RF-SCORE:    0.00 PKD
ROOT
HETATM    1  C   UNL     1      -9.330  11.812  68.685  1.00  0.00    -0.096 C  
HETATM    2  C   UNL     1      -8.036  11.429  69.382  1.00  0.00     0.257 C  
HETATM    3  C   UNL     1      -7.864   9.991  69.736  1.00  0.00    -0.185 A  
HETATM    4  C   UNL     1      -8.607   9.031  69.001  1.00  0.00    -0.134 A  
HETATM    5  C   UNL     1      -9.486   9.428  67.855  1.00  0.00    -0.132 C  
HETATM    6  C   UNL     1      -8.495   7.676  69.334  1.00  0.00    -0.132 A  
HETATM    7  O   UNL     1      -9.197   6.680  68.702  1.00  0.00    -0.130 OA 
HETATM    8  C   UNL     1      -7.683   7.294  70.399  1.00  0.00    -0.094 A  
HETATM    9  C   UNL     1      -9.750  10.878  67.603  1.00  0.00    -0.188 C  
HETATM   10  O   UNL     1     -10.007   8.565  67.140  1.00  0.00    -0.192 OA 
HETATM   11  C   UNL     1     -10.424  11.324  66.513  1.00  0.00    -0.253 C  
HETATM   12  H   UNL     1      -9.120   5.760  68.929  1.00  0.00     0.000 HD 
HETATM   13  C   UNL     1      -6.920   8.241  71.092  1.00  0.00    -0.057 A  
HETATM   14  C   UNL     1      -9.048  13.174  68.096  1.00  0.00    -0.200 C  
HETATM   15  C   UNL     1      -6.955   9.616  70.768  1.00  0.00    -0.079 A  
HETATM   16  C   UNL     1     -10.827  12.803  66.302  1.00  0.00    -0.275 C  
HETATM   17  C   UNL     1     -10.223  13.792  67.340  1.00  0.00    -0.252 C  
HETATM   18  H   UNL     1      -8.343  16.704  65.207  1.00  0.00     0.000 HD 
HETATM   19  O   UNL     1     -10.986  10.445  65.595  1.00  0.00     0.105 OA 
HETATM   20  C   UNL     1      -9.611  15.136  66.796  1.00  0.00    -0.245 C  
HETATM   21  H   UNL     1     -11.458  10.757  64.831  1.00  0.00     0.000 HD 
HETATM   22  C   UNL     1     -10.660  13.388  64.877  1.00  0.00    -0.385 C  
HETATM   23  O   UNL     1     -12.267  12.777  66.473  1.00  0.00    -0.494 OA 
HETATM   24  O   UNL     1      -8.979  16.199  64.714  1.00  0.00     1.686 OA 
HETATM   25  C   UNL     1     -10.021  15.572  65.409  1.00  0.00    -0.304 C  
HETATM   26  C   UNL     1     -10.920  14.857  64.713  1.00  0.00    -0.390 C  
HETATM   27  O   UNL     1     -10.297  12.749  63.891  1.00  0.00    -0.420 OA 
HETATM   28  H   UNL     1     -12.515  13.685  66.342  1.00  0.00     0.000 HD 
ENDROOT
BRANCH   8  29
HETATM   29  N   UNL     1      -7.606   5.922  70.701  1.00  0.00    -0.090 N  
HETATM   30  H   UNL     1      -6.681   5.498  70.766  1.00  0.00     0.000 HD 
HETATM   31  C   UNL     1      -8.705   5.112  70.914  1.00  0.00    -0.130 C  
HETATM   32  O   UNL     1      -9.879   5.474  70.884  1.00  0.00    -0.169 OA 
BRANCH  31  33
HETATM   33  C   UNL     1      -8.319   3.649  71.165  1.00  0.00    -0.067 C  
BRANCH  33  34
HETATM   34  N   UNL     1      -6.930   3.446  70.727  1.00  0.00    -0.033 NA 
HETATM   35  C   UNL     1      -7.462   1.499  69.251  1.00  0.00    -0.042 C  
HETATM   36  C   UNL     1      -5.244   2.643  69.202  1.00  0.00    -0.012 C  
HETATM   37  C   UNL     1      -7.250   3.818  68.292  1.00  0.00    -0.054 C  
HETATM   38  H   UNL     1      -6.427   2.887  71.417  1.00  0.00     0.000 HD 
HETATM   39  C   UNL     1      -6.759   2.860  69.387  1.00  0.00    -0.034 C  
ENDBRANCH  33  34
ENDBRANCH  31  33
ENDBRANCH   8  29
BRANCH  15  40
HETATM   40  N   UNL     1      -6.094  10.491  71.430  1.00  0.00    -0.306 NA 
HETATM   41  C   UNL     1      -5.485  11.614  70.713  1.00  0.00    -0.135 C  
HETATM   42  C   UNL     1      -5.560  10.289  72.776  1.00  0.00     0.573 C  
ENDBRANCH  15  40
BRANCH  26  43
HETATM   43  C   UNL     1     -12.275  15.468  64.862  1.00  0.00     0.248 C  
HETATM   44  N   UNL     1     -13.148  14.863  65.696  1.00  0.00     0.078 N  
HETATM   45  H2  UNL     1     -12.891  14.018  66.205  1.00  0.00     0.000 HD 
HETATM   46  H1  UNL     1     -14.074  15.280  65.797  1.00  0.00     0.000 HD 
HETATM   47  O   UNL     1     -12.646  16.457  64.226  1.00  0.00     0.016 OA 
ENDBRANCH  26  43
BRANCH  20  48
HETATM   48  N   UNL     1      -9.685  16.139  67.884  1.00  0.00    -0.224 NA 
HETATM   49  C   UNL     1     -11.013  16.708  68.109  1.00  0.00    -0.327 C  
HETATM   50  C   UNL     1      -8.697  17.207  67.751  1.00  0.00    -0.220 C  
ENDBRANCH  20  48
TORSDOF 6
ENDMDL
MODEL       56
REMARK 921   NORMALIZED FREE ENERGY PREDICTED BY IDOCK:   -0.94 KCAL/MOL
REMARK 922        TOTAL FREE ENERGY PREDICTED BY IDOCK:   -1.65 KCAL/MOL
REMARK 923 INTER-LIGAND FREE ENERGY PREDICTED BY IDOCK:   -1.58 KCAL/MOL
REMARK 924 INTRA-LIGAND FREE ENERGY PREDICTED BY IDOCK:   -0.07 KCAL/MOL
REMARK 927      BINDING AFFINITY PREDICTED BY RF-SCORE:    0.00 PKD
ROOT
HETATM    1  C   UNL     1      -8.171   7.061  66.761  1.00  0.00    -0.111 C  
HETATM    2  C   UNL     1      -7.638   7.847  65.574  1.00  0.00    -0.083 C  
HETATM    3  C   UNL     1      -7.768   9.331  65.639  1.00  0.00    -0.095 A  
HETATM    4  C   UNL     1      -7.885   9.934  66.919  1.00  0.00    -0.102 A  
HETATM    5  C   UNL     1      -7.811   9.126  68.178  1.00  0.00    -0.099 C  
HETATM    6  C   UNL     1      -8.044  11.321  67.010  1.00  0.00    -0.149 A  
HETATM    7  O   UNL     1      -8.197  11.990  68.199  1.00  0.00    -0.147 OA 
HETATM    8  C   UNL     1      -8.117  12.084  65.847  1.00  0.00     0.689 A  
HETATM    9  C   UNL     1      -7.818   7.633  68.091  1.00  0.00    -0.121 C  
HETATM   10  O   UNL     1      -7.769   9.686  69.278  1.00  0.00    -0.083 OA 
HETATM   11  C   UNL     1      -7.622   6.833  69.169  1.00  0.00    -0.100 C  
HETATM   12  H   UNL     1      -8.305  12.932  68.260  1.00  0.00     0.000 HD 
HETATM   13  C   UNL     1      -7.957  11.489  64.591  1.00  0.00     1.290 A  
HETATM   14  C   UNL     1      -7.545   5.694  66.615  1.00  0.00    -0.092 C  
HETATM   15  C   UNL     1      -7.745  10.100  64.440  1.00  0.00    -0.134 A  
HETATM   16  C   UNL     1      -7.760   5.292  69.128  1.00  0.00    -0.081 C  
HETATM   17  C   UNL     1      -7.944   4.698  67.702  1.00  0.00    -0.093 C  
HETATM   18  H   UNL     1      -5.067   1.854  67.255  1.00  0.00     0.000 HD 
HETATM   19  O   UNL     1      -7.481   7.358  70.448  1.00  0.00    -0.082 OA 
HETATM   20  C   UNL     1      -7.095   3.426  67.328  1.00  0.00    -0.058 C  
HETATM   21  H   UNL     1      -7.344   6.797  71.204  1.00  0.00     0.000 HD 
HETATM   22  C   UNL     1      -6.702   4.463  69.899  1.00  0.00    -0.034 C  
HETATM   23  O   UNL     1      -8.973   5.053  69.887  1.00  0.00    -0.102 OA 
HETATM   24  O   UNL     1      -5.247   2.098  68.155  1.00  0.00    -0.011 OA 
HETATM   25  C   UNL     1      -6.506   2.627  68.467  1.00  0.00    -0.029 C  
HETATM   26  C   UNL     1      -6.762   2.972  69.739  1.00  0.00    -0.034 C  
HETATM   27  O   UNL     1      -5.805   4.937  70.593  1.00  0.00    -0.015 OA 
HETATM   28  H   UNL     1      -9.058   4.107  69.863  1.00  0.00     0.000 HD 
ENDROOT
BRANCH   8  29
HETATM   29  N   UNL     1      -8.283  13.474  65.988  1.00  0.00     0.814 N  
HETATM   30  H   UNL     1      -7.468  14.029  66.246  1.00  0.00     0.000 HD 
HETATM   31  C   UNL     1      -9.482  14.134  65.799  1.00  0.00    -0.035 C  
HETATM   32  O   UNL     1     -10.546  13.612  65.474  1.00  0.00    -0.280 OA 
BRANCH  31  33
HETATM   33  C   UNL     1      -9.376  15.639  66.078  1.00  0.00    -0.349 C  
BRANCH  33  34
HETATM   34  N   UNL     1      -8.001  15.945  66.501  1.00  0.00    -0.248 NA 
HETATM   35  C   UNL     1      -8.254  18.420  66.250  1.00  0.00    -0.245 C  
HETATM   36  C   UNL     1      -6.289  17.389  67.394  1.00  0.00    -0.166 C  
HETATM   37  C   UNL     1      -8.526  17.323  68.501  1.00  0.00    -0.267 C  
HETATM   38  H   UNL     1      -7.365  15.849  65.709  1.00  0.00     0.000 HD 
HETATM   39  C   UNL     1      -7.805  17.254  67.146  1.00  0.00    -0.198 C  
ENDBRANCH  33  34
ENDBRANCH  31  33
ENDBRANCH   8  29
BRANCH  15  40
HETATM   40  N   UNL     1      -7.492   9.586  63.167  1.00  0.00    -0.107 NA 
HETATM   41  C   UNL     1      -6.384  10.108  62.365  1.00  0.00    -0.120 C  
HETATM   42  C   UNL     1      -8.372   8.673  62.438  1.00  0.00    -0.200 C  
ENDBRANCH  15  40
BRANCH  26  43
HETATM   43  C   UNL     1      -7.882   2.138  70.272  1.00  0.00    -0.042 C  
HETATM   44  N   UNL     1      -7.988   2.012  71.612  1.00  0.00    -0.041 N  
HETATM   45  H2  UNL     1      -7.326   2.472  72.239  1.00  0.00     0.000 HD 
HETATM   46  H1  UNL     1      -8.752   1.443  71.976  1.00  0.00     0.000 HD 
HETATM   47  O   UNL     1      -8.670   1.523  69.552  1.00  0.00    -0.051 OA 
ENDBRANCH  26  43
BRANCH  20  48
HETATM   48  N   UNL     1      -7.829   2.687  66.274  1.00  0.00    -0.079 NA 
HETATM   49  C   UNL     1      -7.843   3.334  64.963  1.00  0.00    -0.082 C  
HETATM   50  C   UNL     1      -9.186   2.318  66.668  1.00  0.00    -0.010 C  
ENDBRANCH  20  48
TORSDOF 6
ENDMDL
MODEL       57
REMARK 921   NORMALIZED FREE ENERGY PREDICTED BY IDOCK:   -0.20 KCAL/MOL
REMARK 922        TOTAL FREE ENERGY PREDICTED BY IDOCK:   -0.65 KCAL/MOL
REMARK 923 INTER-LIGAND FREE ENERGY PREDICTED BY IDOCK:   -0.35 KCAL/MOL
REMARK 924 INTRA-LIGAND FREE ENERGY PREDICTED BY IDOCK:   -0.30 KCAL/MOL
REMARK 927      BINDING AFFINITY PREDICTED BY RF-SCORE:    0.00 PKD
ROOT
HETATM    1  C   UNL     1      -7.351  13.063  66.807  1.00  0.00     0.608 C  
HETATM    2  C   UNL     1      -8.351  12.234  66.017  1.00  0.00     0.533 C  
HETATM    3  C   UNL     1      -8.321  10.760  66.237  1.00  0.00    -0.160 A  
HETATM    4  C   UNL     1      -7.778  10.279  67.457  1.00  0.00    -0.094 A  
HETATM    5  C   UNL     1      -7.310  11.213  68.531  1.00  0.00    -0.104 C  
HETATM    6  C   UNL     1      -7.703   8.899  67.677  1.00  0.00    -0.101 A  
HETATM    7  O   UNL     1      -7.166   8.340  68.809  1.00  0.00    -0.075 OA 
HETATM    8  C   UNL     1      -8.133   8.020  66.686  1.00  0.00    -0.103 A  
HETATM    9  C   UNL     1      -7.221  12.677  68.239  1.00  0.00    -0.113 C  
HETATM   10  O   UNL     1      -6.978  10.775  69.637  1.00  0.00    -0.112 OA 
HETATM   11  C   UNL     1      -6.935  13.600  69.192  1.00  0.00    -0.070 C  
HETATM   12  H   UNL     1      -7.116   7.403  68.959  1.00  0.00     0.000 HD 
HETATM   13  C   UNL     1      -8.708   8.500  65.504  1.00  0.00    -0.208 A  
HETATM   14  C   UNL     1      -7.879  14.475  66.709  1.00  0.00     0.324 C  
HETATM   15  C   UNL     1      -8.854   9.882  65.248  1.00  0.00    -0.181 A  
HETATM   16  C   UNL     1      -6.703  15.099  68.889  1.00  0.00    -0.110 C  
HETATM   17  C   UNL     1      -7.025  15.520  67.426  1.00  0.00    -0.232 C  
HETATM   18  H   UNL     1      -9.630  18.637  67.663  1.00  0.00     0.000 HD 
HETATM   19  O   UNL     1      -6.623  13.228  70.495  1.00  0.00    -0.367 OA 
HETATM   20  C   UNL     1      -7.852  16.842  67.212  1.00  0.00    -0.178 C  
HETATM   21  H   UNL     1      -6.422  13.875  71.162  1.00  0.00     0.000 HD 
HETATM   22  C   UNL     1      -7.326  16.127  69.867  1.00  0.00     0.343 C  
HETATM   23  O   UNL     1      -5.279  15.263  69.113  1.00  0.00    -0.095 OA 
HETATM   24  O   UNL     1      -9.143  18.465  68.461  1.00  0.00    -0.317 OA 
HETATM   25  C   UNL     1      -7.905  17.819  68.364  1.00  0.00    -0.284 C  
HETATM   26  C   UNL     1      -7.216  17.575  69.490  1.00  0.00     0.153 C  
HETATM   27  O   UNL     1      -7.929  15.839  70.899  1.00  0.00     2.034 OA 
HETATM   28  H   UNL     1      -5.137  16.183  68.927  1.00  0.00     0.000 HD 
ENDROOT
BRANCH   8  29
HETATM   29  N   UNL     1      -8.034   6.641  66.950  1.00  0.00    -0.107 N  
HETATM   30  H   UNL     1      -7.274   6.323  67.552  1.00  0.00     0.000 HD 
HETATM   31  C   UNL     1      -8.900   5.691  66.445  1.00  0.00    -0.129 C  
HETATM   32  O   UNL     1      -9.867   5.914  65.720  1.00  0.00     0.061 OA 
BRANCH  31  33
HETATM   33  C   UNL     1      -8.512   4.264  66.853  1.00  0.00    -0.104 C  
BRANCH  33  34
HETATM   34  N   UNL     1      -8.316   3.461  65.637  1.00  0.00    -0.101 NA 
HETATM   35  C   UNL     1      -5.850   3.858  65.522  1.00  0.00    -0.022 C  
HETATM   36  C   UNL     1      -6.992   2.147  64.109  1.00  0.00    -0.039 C  
HETATM   37  C   UNL     1      -6.765   1.756  66.564  1.00  0.00    -0.038 C  
HETATM   38  H   UNL     1      -8.525   4.024  64.812  1.00  0.00     0.000 HD 
HETATM   39  C   UNL     1      -6.993   2.831  65.491  1.00  0.00    -0.052 C  
ENDBRANCH  33  34
ENDBRANCH  31  33
ENDBRANCH   8  29
BRANCH  15  40
HETATM   40  N   UNL     1      -9.527  10.292  64.097  1.00  0.00    -0.282 NA 
HETATM   41  C   UNL     1     -10.795  11.016  64.199  1.00  0.00    -0.180 C  
HETATM   42  C   UNL     1      -9.183   9.891  62.733  1.00  0.00    -0.268 C  
ENDBRANCH  15  40
BRANCH  26  43
HETATM   43  C   UNL     1      -5.917  18.314  69.458  1.00  0.00    -0.252 C  
HETATM   44  N   UNL     1      -5.131  18.250  70.553  1.00  0.00    -0.231 N  
HETATM   45  H2  UNL     1      -5.413  17.715  71.374  1.00  0.00     0.000 HD 
HETATM   46  H1  UNL     1      -4.244  18.754  70.531  1.00  0.00     0.000 HD 
HETATM   47  O   UNL     1      -5.561  19.015  68.508  1.00  0.00    -0.193 OA 
ENDBRANCH  26  43
BRANCH  20  48
HETATM   48  N   UNL     1      -7.514  17.375  65.872  1.00  0.00    -0.451 NA 
HETATM   49  C   UNL     1      -6.082  17.498  65.600  1.00  0.00     0.144 C  
HETATM   50  C   UNL     1      -8.194  18.630  65.562  1.00  0.00     0.801 C  
ENDBRANCH  20  48
TORSDOF 6
ENDMDL
MODEL       58
REMARK 921   NORMALIZED FREE ENERGY PREDICTED BY IDOCK:    4.31 KCAL/MOL
REMARK 922        TOTAL FREE ENERGY PREDICTED BY IDOCK:    5.45 KCAL/MOL
REMARK 923 INTER-LIGAND FREE ENERGY PREDICTED BY IDOCK:   -1.09 KCAL/MOL
REMARK 924 INTRA-LIGAND FREE ENERGY PREDICTED BY IDOCK:    6.54 KCAL/MOL
REMARK 927      BINDING AFFINITY PREDICTED BY RF-SCORE:    0.00 PKD
ROOT
HETATM    1  C   UNL     1      -8.838  10.979  67.499  1.00  0.00    -0.131 C  
HETATM    2  C   UNL     1      -8.488  10.127  66.291  1.00  0.00    -0.132 C  
HETATM    3  C   UNL     1      -8.273   8.672  66.535  1.00  0.00    -0.107 A  
HETATM    4  C   UNL     1      -8.872   8.094  67.685  1.00  0.00    -0.136 A  
HETATM    5  C   UNL     1      -9.754   8.892  68.596  1.00  0.00    -0.161 C  
HETATM    6  C   UNL     1      -8.660   6.739  67.961  1.00  0.00    -0.122 A  
HETATM    7  O   UNL     1      -9.170   6.101  69.063  1.00  0.00    -0.126 OA 
HETATM    8  C   UNL     1      -7.839   5.987  67.123  1.00  0.00    -0.102 A  
HETATM    9  C   UNL     1      -9.847  10.374  68.412  1.00  0.00    -0.173 C  
HETATM   10  O   UNL     1     -10.380   8.335  69.504  1.00  0.00    -0.210 OA 
HETATM   11  C   UNL     1     -10.720  11.147  69.106  1.00  0.00    -0.221 C  
HETATM   12  H   UNL     1      -9.026   5.180  69.250  1.00  0.00     0.000 HD 
HETATM   13  C   UNL     1      -7.287   6.551  65.968  1.00  0.00    -0.080 A  
HETATM   14  C   UNL     1      -9.391  12.255  66.908  1.00  0.00    -0.210 C  
HETATM   15  C   UNL     1      -7.508   7.901  65.613  1.00  0.00    -0.081 A  
HETATM   16  C   UNL     1     -10.739  12.692  69.033  1.00  0.00    -0.094 C  
HETATM   17  C   UNL     1      -9.811  13.299  67.941  1.00  0.00    -0.234 C  
HETATM   18  H   UNL     1     -12.140  15.751  65.676  1.00  0.00     0.000 HD 
HETATM   19  O   UNL     1     -11.533  10.614  70.099  1.00  0.00    -0.281 OA 
HETATM   20  C   UNL     1     -10.399  14.451  67.043  1.00  0.00    -0.263 C  
HETATM   21  H   UNL     1     -12.145  11.156  70.585  1.00  0.00     0.000 HD 
HETATM   22  C   UNL     1     -12.124  13.384  68.973  1.00  0.00    -0.259 C  
HETATM   23  O   UNL     1     -10.238  13.088  70.336  1.00  0.00     1.875 OA 
HETATM   24  O   UNL     1     -12.501  15.537  66.529  1.00  0.00     0.911 OA 
HETATM   25  C   UNL     1     -11.622  15.173  67.557  1.00  0.00    -0.257 C  
HETATM   26  C   UNL     1     -12.132  14.869  68.761  1.00  0.00    -0.212 C  
HETATM   27  O   UNL     1     -13.205  12.802  69.047  1.00  0.00     1.808 OA 
HETATM   28  H   UNL     1     -10.250  14.036  70.291  1.00  0.00     0.000 HD 
ENDROOT
BRANCH   8  29
HETATM   29  N   UNL     1      -7.650   4.630  67.443  1.00  0.00    -0.085 N  
HETATM   30  H   UNL     1      -7.589   3.961  66.675  1.00  0.00     0.000 HD 
HETATM   31  C   UNL     1      -7.542   4.146  68.733  1.00  0.00    -0.055 C  
HETATM   32  O   UNL     1      -7.581   4.821  69.759  1.00  0.00    -0.055 OA 
BRANCH  31  33
HETATM   33  C   UNL     1      -7.399   2.619  68.779  1.00  0.00    -0.048 C  
BRANCH  33  34
HETATM   34  N   UNL     1      -7.598   2.085  67.423  1.00  0.00    -0.059 NA 
HETATM   35  C   UNL     1     -10.022   1.570  67.757  1.00  0.00     0.556 C  
HETATM   36  C   UNL     1      -8.943   1.508  65.507  1.00  0.00    -0.117 C  
HETATM   37  C   UNL     1      -9.307   3.707  66.632  1.00  0.00    -0.206 C  
HETATM   38  H   UNL     1      -7.312   1.106  67.390  1.00  0.00     0.000 HD 
HETATM   39  C   UNL     1      -8.955   2.230  66.869  1.00  0.00    -0.126 C  
ENDBRANCH  33  34
ENDBRANCH  31  33
ENDBRANCH   8  29
BRANCH  15  40
HETATM   40  N   UNL     1      -7.013   8.372  64.397  1.00  0.00    -0.072 NA 
HETATM   41  C   UNL     1      -7.751   8.136  63.154  1.00  0.00    -0.139 C  
HETATM   42  C   UNL     1      -5.679   8.937  64.193  1.00  0.00    -0.069 C  
ENDBRANCH  15  40
BRANCH  26  43
HETATM   43  C   UNL     1     -11.632  15.842  69.780  1.00  0.00    -0.355 C  
HETATM   44  N   UNL     1     -10.987  16.941  69.336  1.00  0.00    -0.336 N  
HETATM   45  H2  UNL     1     -10.845  17.102  68.338  1.00  0.00     0.000 HD 
HETATM   46  H1  UNL     1     -10.645  17.604  70.031  1.00  0.00     0.000 HD 
HETATM   47  O   UNL     1     -11.733  15.661  70.996  1.00  0.00    -0.328 OA 
ENDBRANCH  26  43
BRANCH  20  48
HETATM   48  N   UNL     1      -9.264  15.273  66.562  1.00  0.00    -0.269 NA 
HETATM   49  C   UNL     1      -7.943  14.798  66.971  1.00  0.00    -0.104 C  
HETATM   50  C   UNL     1      -9.408  16.692  66.874  1.00  0.00    -0.231 C  
ENDBRANCH  20  48
TORSDOF 6
ENDMDL
MODEL       59
REMARK 921   NORMALIZED FREE ENERGY PREDICTED BY IDOCK:    4.84 KCAL/MOL
REMARK 922        TOTAL FREE ENERGY PREDICTED BY IDOCK:    6.15 KCAL/MOL
REMARK 923 INTER-LIGAND FREE ENERGY PREDICTED BY IDOCK:    5.50 KCAL/MOL
REMARK 924 INTRA-LIGAND FREE ENERGY PREDICTED BY IDOCK:    0.65 KCAL/MOL
REMARK 927      BINDING AFFINITY PREDICTED BY RF-SCORE:    0.00 PKD
ROOT
HETATM    1  C   UNL     1     -10.899  10.550  68.916  1.00  0.00    -0.275 C  
HETATM    2  C   UNL     1      -9.600  11.225  68.509  1.00  0.00    -0.199 C  
HETATM    3  C   UNL     1      -9.617  12.713  68.414  1.00  0.00    -0.173 A  
HETATM    4  C   UNL     1     -10.602  13.416  69.157  1.00  0.00    -0.035 A  
HETATM    5  C   UNL     1     -11.555  12.704  70.068  1.00  0.00    -0.123 C  
HETATM    6  C   UNL     1     -10.667  14.810  69.061  1.00  0.00    -0.250 A  
HETATM    7  O   UNL     1     -11.602  15.572  69.715  1.00  0.00    -0.285 OA 
HETATM    8  C   UNL     1      -9.787  15.483  68.215  1.00  0.00    -0.213 A  
HETATM    9  C   UNL     1     -11.611  11.210  70.046  1.00  0.00    -0.421 C  
HETATM   10  O   UNL     1     -12.303  13.346  70.813  1.00  0.00    -0.353 OA 
HETATM   11  C   UNL     1     -12.348  10.489  70.928  1.00  0.00    -0.390 C  
HETATM   12  H   UNL     1     -11.645  16.519  69.650  1.00  0.00     0.000 HD 
HETATM   13  C   UNL     1      -8.792  14.789  67.520  1.00  0.00    -0.197 A  
HETATM   14  C   UNL     1     -10.482   9.157  69.326  1.00  0.00    -0.231 C  
HETATM   15  C   UNL     1      -8.647  13.387  67.617  1.00  0.00    -0.193 A  
HETATM   16  C   UNL     1     -12.530   8.955  70.839  1.00  0.00    -0.045 C  
HETATM   17  C   UNL     1     -11.635   8.259  69.773  1.00  0.00     0.394 C  
HETATM   18  H   UNL     1      -9.620   5.300  71.709  1.00  0.00     0.000 HD 
HETATM   19  O   UNL     1     -13.168  11.106  71.866  1.00  0.00    -0.470 OA 
HETATM   20  C   UNL     1     -10.893   6.936  70.196  1.00  0.00    -0.263 C  
HETATM   21  H   UNL     1     -13.684  10.601  72.484  1.00  0.00     0.000 HD 
HETATM   22  C   UNL     1     -12.469   8.154  72.164  1.00  0.00    -0.322 C  
HETATM   23  O   UNL     1     -13.917   8.813  70.440  1.00  0.00     0.201 OA 
HETATM   24  O   UNL     1     -10.392   5.618  72.163  1.00  0.00    -0.196 OA 
HETATM   25  C   UNL     1     -11.416   6.209  71.412  1.00  0.00    -0.254 C  
HETATM   26  C   UNL     1     -12.506   6.658  72.054  1.00  0.00    -0.288 C  
HETATM   27  O   UNL     1     -12.356   8.652  73.282  1.00  0.00     0.141 OA 
HETATM   28  H   UNL     1     -14.029   7.871  70.385  1.00  0.00     0.000 HD 
ENDROOT
BRANCH   8  29
HETATM   29  N   UNL     1      -9.894  16.885  68.147  1.00  0.00    -0.255 N  
HETATM   30  H   UNL     1     -10.616  17.280  67.545  1.00  0.00     0.000 HD 
HETATM   31  C   UNL     1      -9.082  17.759  68.844  1.00  0.00    -0.126 C  
HETATM   32  O   UNL     1      -8.181  17.441  69.617  1.00  0.00     0.452 OA 
BRANCH  31  33
HETATM   33  C   UNL     1      -9.391  19.228  68.529  1.00  0.00    -0.388 C  
BRANCH  33  34
HETATM   34  N   UNL     1      -9.815  19.331  67.124  1.00  0.00    -0.324 NA 
HETATM   35  C   UNL     1      -8.139  21.090  66.532  1.00  0.00     0.426 C  
HETATM   36  C   UNL     1      -9.471  19.880  64.802  1.00  0.00     2.705 C  
HETATM   37  C   UNL     1      -7.679  18.663  66.043  1.00  0.00    -0.214 C  
HETATM   38  H   UNL     1     -10.617  19.956  67.049  1.00  0.00     0.000 HD 
HETATM   39  C   UNL     1      -8.771  19.736  66.168  1.00  0.00    -0.332 C  
ENDBRANCH  33  34
ENDBRANCH  31  33
ENDBRANCH   8  29
BRANCH  15  40
HETATM   40  N   UNL     1      -7.572  12.770  66.978  1.00  0.00    -0.034 NA 
HETATM   41  C   UNL     1      -6.314  13.493  66.778  1.00  0.00     1.753 C  
HETATM   42  C   UNL     1      -7.630  11.483  66.284  1.00  0.00     0.098 C  
ENDBRANCH  15  40
BRANCH  26  43
HETATM   43  C   UNL     1     -13.710   5.903  71.591  1.00  0.00     1.717 C  
HETATM   44  N   UNL     1     -14.380   6.384  70.522  1.00  0.00     2.377 N  
HETATM   45  H2  UNL     1     -14.075   7.233  70.047  1.00  0.00     0.000 HD 
HETATM   46  H1  UNL     1     -15.202   5.869  70.206  1.00  0.00     0.000 HD 
HETATM   47  O   UNL     1     -14.146   4.904  72.167  1.00  0.00     2.171 OA 
ENDBRANCH  26  43
BRANCH  20  48
HETATM   48  N   UNL     1     -10.651   6.142  68.969  1.00  0.00    -0.246 NA 
HETATM   49  C   UNL     1      -9.244   5.987  68.603  1.00  0.00    -0.115 C  
HETATM   50  C   UNL     1     -11.422   6.609  67.819  1.00  0.00     0.272 C  
ENDBRANCH  20  48
TORSDOF 6
ENDMDL
MODEL       60
REMARK 921   NORMALIZED FREE ENERGY PREDICTED BY IDOCK:    5.15 KCAL/MOL
REMARK 922        TOTAL FREE ENERGY PREDICTED BY IDOCK:    6.58 KCAL/MOL
REMARK 923 INTER-LIGAND FREE ENERGY PREDICTED BY IDOCK:    3.41 KCAL/MOL
REMARK 924 INTRA-LIGAND FREE ENERGY PREDICTED BY IDOCK:    3.17 KCAL/MOL
REMARK 927      BINDING AFFINITY PREDICTED BY RF-SCORE:    0.00 PKD
ROOT
HETATM    1  C   UNL     1     -10.148   9.754  68.113  1.00  0.00    -0.193 C  
HETATM    2  C   UNL     1      -9.658  10.210  66.749  1.00  0.00    -0.222 C  
HETATM    3  C   UNL     1      -9.765  11.668  66.451  1.00  0.00    -0.236 A  
HETATM    4  C   UNL     1      -9.817  12.569  67.545  1.00  0.00    -0.198 A  
HETATM    5  C   UNL     1      -9.697  12.094  68.961  1.00  0.00     0.254 C  
HETATM    6  C   UNL     1      -9.953  13.940  67.298  1.00  0.00    -0.242 A  
HETATM    7  O   UNL     1     -10.044  14.884  68.290  1.00  0.00    -0.215 OA 
HETATM    8  C   UNL     1     -10.068  14.395  65.986  1.00  0.00    -0.322 A  
HETATM    9  C   UNL     1      -9.727  10.626  69.245  1.00  0.00    -0.181 C  
HETATM   10  O   UNL     1      -9.598  12.907  69.886  1.00  0.00     1.901 OA 
HETATM   11  C   UNL     1      -9.494  10.112  70.478  1.00  0.00     0.452 C  
HETATM   12  H   UNL     1     -10.136  15.814  68.122  1.00  0.00     0.000 HD 
HETATM   13  C   UNL     1      -9.972  13.505  64.911  1.00  0.00    -0.176 A  
HETATM   14  C   UNL     1      -9.547   8.379  68.284  1.00  0.00    -0.156 C  
HETATM   15  C   UNL     1      -9.785  12.117  65.098  1.00  0.00    -0.114 A  
HETATM   16  C   UNL     1      -9.655   8.612  70.825  1.00  0.00    -0.188 C  
HETATM   17  C   UNL     1      -9.910   7.690  69.598  1.00  0.00    -0.181 C  
HETATM   18  H   UNL     1      -7.093   4.755  69.751  1.00  0.00     0.000 HD 
HETATM   19  O   UNL     1      -9.289  10.931  71.582  1.00  0.00     5.070 OA 
HETATM   20  C   UNL     1      -9.095   6.345  69.516  1.00  0.00    -0.138 C  
HETATM   21  H   UNL     1      -9.126  10.571  72.447  1.00  0.00     0.000 HD 
HETATM   22  C   UNL     1      -8.574   7.973  71.733  1.00  0.00    -0.133 C  
HETATM   23  O   UNL     1     -10.835   8.596  71.668  1.00  0.00    -0.256 OA 
HETATM   24  O   UNL     1      -7.230   5.218  70.570  1.00  0.00    -0.061 OA 
HETATM   25  C   UNL     1      -8.467   5.837  70.792  1.00  0.00    -0.125 C  
HETATM   26  C   UNL     1      -8.661   6.491  71.949  1.00  0.00    -0.129 C  
HETATM   27  O   UNL     1      -7.641   8.582  72.252  1.00  0.00    -0.201 OA 
HETATM   28  H   UNL     1     -10.933   7.675  71.881  1.00  0.00     0.000 HD 
ENDROOT
BRANCH   8  29
HETATM   29  N   UNL     1     -10.209  15.780  65.787  1.00  0.00    -0.344 N  
HETATM   30  H   UNL     1      -9.361  16.340  65.703  1.00  0.00     0.000 HD 
HETATM   31  C   UNL     1     -11.425  16.430  65.697  1.00  0.00     0.570 C  
HETATM   32  O   UNL     1     -12.531  15.898  65.764  1.00  0.00     1.384 OA 
BRANCH  31  33
HETATM   33  C   UNL     1     -11.271  17.948  65.537  1.00  0.00     0.826 C  
BRANCH  33  34
HETATM   34  N   UNL     1      -9.908  18.329  65.938  1.00  0.00    -0.531 NA 
HETATM   35  C   UNL     1     -10.647  19.736  67.870  1.00  0.00    -0.468 C  
HETATM   36  C   UNL     1      -8.260  19.094  67.523  1.00  0.00    -0.310 C  
HETATM   37  C   UNL     1      -9.908  17.354  68.224  1.00  0.00    -0.310 C  
HETATM   38  H   UNL     1      -9.591  19.122  65.380  1.00  0.00     0.000 HD 
HETATM   39  C   UNL     1      -9.718  18.617  67.370  1.00  0.00    -0.306 C  
ENDBRANCH  33  34
ENDBRANCH  31  33
ENDBRANCH   8  29
BRANCH  15  40
HETATM   40  N   UNL     1      -9.596  11.301  63.983  1.00  0.00    -0.239 NA 
HETATM   41  C   UNL     1      -8.830  10.058  64.096  1.00  0.00    -0.221 C  
HETATM   42  C   UNL     1      -9.935  11.663  62.607  1.00  0.00     0.257 C  
ENDBRANCH  15  40
BRANCH  26  43
HETATM   43  C   UNL     1      -9.766   5.840  72.716  1.00  0.00    -0.155 C  
HETATM   44  N   UNL     1     -10.869   6.575  72.972  1.00  0.00    -0.259 N  
HETATM   45  H2  UNL     1     -10.945   7.540  72.653  1.00  0.00     0.000 HD 
HETATM   46  H1  UNL     1     -11.624   6.131  73.496  1.00  0.00     0.000 HD 
HETATM   47  O   UNL     1      -9.695   4.695  73.167  1.00  0.00    -0.132 OA 
ENDBRANCH  26  43
BRANCH  20  48
HETATM   48  N   UNL     1      -9.885   5.387  68.707  1.00  0.00    -0.139 NA 
HETATM   49  C   UNL     1      -9.671   3.979  69.038  1.00  0.00    -0.091 C  
HETATM   50  C   UNL     1      -9.743   5.593  67.268  1.00  0.00    -0.135 C  
ENDBRANCH  20  48
TORSDOF 6
ENDMDL
MODEL       61
REMARK 921   NORMALIZED FREE ENERGY PREDICTED BY IDOCK:    9.26 KCAL/MOL
REMARK 922        TOTAL FREE ENERGY PREDICTED BY IDOCK:   12.13 KCAL/MOL
REMARK 923 INTER-LIGAND FREE ENERGY PREDICTED BY IDOCK:   10.61 KCAL/MOL
REMARK 924 INTRA-LIGAND FREE ENERGY PREDICTED BY IDOCK:    1.52 KCAL/MOL
REMARK 927      BINDING AFFINITY PREDICTED BY RF-SCORE:    0.00 PKD
ROOT
HETATM    1  C   UNL     1     -10.632  11.224  69.880  1.00  0.00     0.253 C  
HETATM    2  C   UNL     1      -9.702  10.311  70.662  1.00  0.00     0.676 C  
HETATM    3  C   UNL     1      -8.991   9.255  69.886  1.00  0.00    -0.194 A  
HETATM    4  C   UNL     1      -8.810   9.459  68.493  1.00  0.00    -0.128 A  
HETATM    5  C   UNL     1      -9.251  10.723  67.821  1.00  0.00    -0.152 C  
HETATM    6  C   UNL     1      -8.178   8.470  67.732  1.00  0.00    -0.122 A  
HETATM    7  O   UNL     1      -7.987   8.563  66.376  1.00  0.00    -0.096 OA 
HETATM    8  C   UNL     1      -7.766   7.288  68.344  1.00  0.00    -0.120 A  
HETATM    9  C   UNL     1     -10.079  11.707  68.584  1.00  0.00    -0.206 C  
HETATM   10  O   UNL     1      -8.953  10.940  66.642  1.00  0.00    -0.156 OA 
HETATM   11  C   UNL     1     -10.406  12.929  68.094  1.00  0.00    -0.240 C  
HETATM   12  H   UNL     1      -7.558   7.891  65.859  1.00  0.00     0.000 HD 
HETATM   13  C   UNL     1      -7.908   7.112  69.725  1.00  0.00    -0.118 A  
HETATM   14  C   UNL     1     -10.861  12.399  70.802  1.00  0.00     3.013 C  
HETATM   15  C   UNL     1      -8.493   8.097  70.551  1.00  0.00    -0.125 A  
HETATM   16  C   UNL     1     -11.372  13.906  68.804  1.00  0.00    -0.277 C  
HETATM   17  C   UNL     1     -11.792  13.471  70.238  1.00  0.00    -0.327 C  
HETATM   18  H   UNL     1     -10.955  16.608  72.692  1.00  0.00     0.000 HD 
HETATM   19  O   UNL     1     -10.054  13.314  66.805  1.00  0.00    -0.248 OA 
HETATM   20  C   UNL     1     -11.774  14.568  71.367  1.00  0.00    -0.163 C  
HETATM   21  H   UNL     1     -10.283  14.170  66.461  1.00  0.00     0.000 HD 
HETATM   22  C   UNL     1     -10.985  15.407  68.815  1.00  0.00    -0.264 C  
HETATM   23  O   UNL     1     -12.547  13.883  67.953  1.00  0.00    -0.342 OA 
HETATM   24  O   UNL     1     -11.009  16.829  71.769  1.00  0.00     0.583 OA 
HETATM   25  C   UNL     1     -11.776  16.013  70.928  1.00  0.00    -0.402 C  
HETATM   26  C   UNL     1     -11.853  16.325  69.625  1.00  0.00     0.010 C  
HETATM   27  O   UNL     1     -10.007  15.885  68.245  1.00  0.00    -0.218 OA 
HETATM   28  H   UNL     1     -13.140  14.483  68.389  1.00  0.00     0.000 HD 
ENDROOT
BRANCH   8  29
HETATM   29  N   UNL     1      -7.140   6.320  67.537  1.00  0.00    -0.072 N  
HETATM   30  H   UNL     1      -6.454   6.638  66.853  1.00  0.00     0.000 HD 
HETATM   31  C   UNL     1      -7.397   4.964  67.614  1.00  0.00    -0.078 C  
HETATM   32  O   UNL     1      -8.181   4.425  68.391  1.00  0.00    -0.085 OA 
BRANCH  31  33
HETATM   33  C   UNL     1      -6.611   4.157  66.573  1.00  0.00    -0.045 C  
BRANCH  33  34
HETATM   34  N   UNL     1      -6.459   4.973  65.359  1.00  0.00    -0.035 NA 
HETATM   35  C   UNL     1      -7.911   3.510  63.943  1.00  0.00    -0.085 C  
HETATM   36  C   UNL     1      -7.155   5.767  63.192  1.00  0.00    -0.046 C  
HETATM   37  C   UNL     1      -8.843   5.587  65.022  1.00  0.00    -0.052 C  
HETATM   38  H   UNL     1      -5.596   4.719  64.877  1.00  0.00     0.000 HD 
HETATM   39  C   UNL     1      -7.589   4.937  64.416  1.00  0.00    -0.073 C  
ENDBRANCH  33  34
ENDBRANCH  31  33
ENDBRANCH   8  29
BRANCH  15  40
HETATM   40  N   UNL     1      -8.512   7.900  71.932  1.00  0.00    -0.113 NA 
HETATM   41  C   UNL     1      -9.711   8.220  72.709  1.00  0.00    -0.266 C  
HETATM   42  C   UNL     1      -7.346   7.575  72.752  1.00  0.00    -0.080 C  
ENDBRANCH  15  40
BRANCH  26  43
HETATM   43  C   UNL     1     -13.270  16.638  69.264  1.00  0.00     4.489 C  
HETATM   44  N   UNL     1     -13.485  17.397  68.168  1.00  0.00     5.182 N  
HETATM   45  H2  UNL     1     -12.708  17.743  67.606  1.00  0.00     0.000 HD 
HETATM   46  H1  UNL     1     -14.452  17.611  67.922  1.00  0.00     0.000 HD 
HETATM   47  O   UNL     1     -14.235  16.286  69.944  1.00  0.00     2.557 OA 
ENDBRANCH  26  43
BRANCH  20  48
HETATM   48  N   UNL     1     -12.748  14.161  72.408  1.00  0.00    -0.298 NA 
HETATM   49  C   UNL     1     -13.320  12.828  72.229  1.00  0.00    -0.458 C  
HETATM   50  C   UNL     1     -13.810  15.141  72.616  1.00  0.00    -0.469 C  
ENDBRANCH  20  48
TORSDOF 6
ENDMDL
MODEL       62
REMARK 921   NORMALIZED FREE ENERGY PREDICTED BY IDOCK:    9.44 KCAL/MOL
REMARK 922        TOTAL FREE ENERGY PREDICTED BY IDOCK:   12.37 KCAL/MOL
REMARK 923 INTER-LIGAND FREE ENERGY PREDICTED BY IDOCK:   11.62 KCAL/MOL
REMARK 924 INTRA-LIGAND FREE ENERGY PREDICTED BY IDOCK:    0.76 KCAL/MOL
REMARK 927      BINDING AFFINITY PREDICTED BY RF-SCORE:    0.00 PKD
ROOT
HETATM    1  C   UNL     1      -8.951  14.729  69.466  1.00  0.00     0.115 C  
HETATM    2  C   UNL     1      -7.826  13.726  69.654  1.00  0.00     0.743 C  
HETATM    3  C   UNL     1      -8.153  12.294  69.398  1.00  0.00     0.834 A  
HETATM    4  C   UNL     1      -9.253  12.004  68.550  1.00  0.00    -0.116 A  
HETATM    5  C   UNL     1     -10.027  13.090  67.868  1.00  0.00    -0.230 C  
HETATM    6  C   UNL     1      -9.608  10.670  68.319  1.00  0.00    -0.162 A  
HETATM    7  O   UNL     1     -10.673  10.292  67.541  1.00  0.00    -0.255 OA 
HETATM    8  C   UNL     1      -8.897   9.650  68.949  1.00  0.00    -0.136 A  
HETATM    9  C   UNL     1      -9.772  14.515  68.241  1.00  0.00    -0.218 C  
HETATM   10  O   UNL     1     -10.883  12.810  67.022  1.00  0.00    -0.250 OA 
HETATM   11  C   UNL     1     -10.332  15.560  67.581  1.00  0.00    -0.269 C  
HETATM   12  H   UNL     1     -10.913   9.386  67.384  1.00  0.00     0.000 HD 
HETATM   13  C   UNL     1      -7.788   9.941  69.750  1.00  0.00    -0.169 A  
HETATM   14  C   UNL     1      -8.250  16.064  69.378  1.00  0.00    -0.135 C  
HETATM   15  C   UNL     1      -7.354  11.266  69.978  1.00  0.00     0.611 A  
HETATM   16  C   UNL     1     -10.193  17.033  68.033  1.00  0.00    -0.319 C  
HETATM   17  C   UNL     1      -9.185  17.258  69.197  1.00  0.00    -0.014 C  
HETATM   18  H   UNL     1      -6.577  20.115  67.933  1.00  0.00     0.000 HD 
HETATM   19  O   UNL     1     -11.252  15.364  66.557  1.00  0.00    -0.278 OA 
HETATM   20  C   UNL     1      -8.180  18.463  69.068  1.00  0.00    -0.069 C  
HETATM   21  H   UNL     1     -11.644  16.096  66.094  1.00  0.00     0.000 HD 
HETATM   22  C   UNL     1      -9.952  18.095  66.932  1.00  0.00    -0.342 C  
HETATM   23  O   UNL     1     -11.525  17.357  68.507  1.00  0.00     0.049 OA 
HETATM   24  O   UNL     1      -7.393  20.079  67.447  1.00  0.00    -0.247 OA 
HETATM   25  C   UNL     1      -8.526  19.549  68.077  1.00  0.00    -0.321 C  
HETATM   26  C   UNL     1      -9.678  19.497  67.390  1.00  0.00    -0.449 C  
HETATM   27  O   UNL     1      -9.931  17.864  65.724  1.00  0.00    -0.551 OA 
HETATM   28  H   UNL     1     -11.440  18.261  68.785  1.00  0.00     0.000 HD 
ENDROOT
BRANCH   8  29
HETATM   29  N   UNL     1      -9.294   8.324  68.692  1.00  0.00    -0.143 N  
HETATM   30  H   UNL     1     -10.267   8.157  68.438  1.00  0.00     0.000 HD 
HETATM   31  C   UNL     1      -8.447   7.235  68.761  1.00  0.00    -0.129 C  
HETATM   32  O   UNL     1      -7.250   7.272  69.039  1.00  0.00    -0.083 OA 
BRANCH  31  33
HETATM   33  C   UNL     1      -9.168   5.910  68.487  1.00  0.00    -0.117 C  
BRANCH  33  34
HETATM   34  N   UNL     1      -8.657   5.345  67.229  1.00  0.00    -0.109 NA 
HETATM   35  C   UNL     1     -10.259   3.424  67.199  1.00  0.00     1.114 C  
HETATM   36  C   UNL     1      -8.846   4.014  65.227  1.00  0.00    -0.127 C  
HETATM   37  C   UNL     1     -10.734   5.514  65.875  1.00  0.00     0.134 C  
HETATM   38  H   UNL     1      -7.840   4.764  67.417  1.00  0.00     0.000 HD 
HETATM   39  C   UNL     1      -9.632   4.593  66.421  1.00  0.00    -0.183 C  
ENDBRANCH  33  34
ENDBRANCH  31  33
ENDBRANCH   8  29
BRANCH  15  40
HETATM   40  N   UNL     1      -6.181  11.481  70.703  1.00  0.00    -0.292 NA 
HETATM   41  C   UNL     1      -5.930  10.742  71.942  1.00  0.00     0.956 C  
HETATM   42  C   UNL     1      -5.219  12.553  70.448  1.00  0.00    -0.119 C  
ENDBRANCH  15  40
BRANCH  26  43
HETATM   43  C   UNL     1     -10.705  20.351  68.062  1.00  0.00     0.184 C  
HETATM   44  N   UNL     1     -11.990  20.210  67.675  1.00  0.00     1.797 N  
HETATM   45  H2  UNL     1     -12.252  19.543  66.949  1.00  0.00     0.000 HD 
HETATM   46  H1  UNL     1     -12.691  20.793  68.134  1.00  0.00     0.000 HD 
HETATM   47  O   UNL     1     -10.427  21.206  68.905  1.00  0.00     0.630 OA 
ENDBRANCH  26  43
BRANCH  20  48
HETATM   48  N   UNL     1      -7.793  18.877  70.437  1.00  0.00     1.740 NA 
HETATM   49  C   UNL     1      -7.223  17.814  71.264  1.00  0.00     5.348 C  
HETATM   50  C   UNL     1      -8.866  19.556  71.159  1.00  0.00     3.192 C  
ENDBRANCH  20  48
TORSDOF 6
ENDMDL
MODEL       63
REMARK 921   NORMALIZED FREE ENERGY PREDICTED BY IDOCK:   12.60 KCAL/MOL
REMARK 922        TOTAL FREE ENERGY PREDICTED BY IDOCK:   16.63 KCAL/MOL
REMARK 923 INTER-LIGAND FREE ENERGY PREDICTED BY IDOCK:   14.34 KCAL/MOL
REMARK 924 INTRA-LIGAND FREE ENERGY PREDICTED BY IDOCK:    2.29 KCAL/MOL
REMARK 927      BINDING AFFINITY PREDICTED BY RF-SCORE:    0.00 PKD
ROOT
HETATM    1  C   UNL     1     -10.302   9.179  66.425  1.00  0.00    -0.235 C  
HETATM    2  C   UNL     1      -9.362   9.852  65.438  1.00  0.00    -0.297 C  
HETATM    3  C   UNL     1      -9.626  11.287  65.133  1.00  0.00    -0.269 A  
HETATM    4  C   UNL     1     -10.346  12.050  66.089  1.00  0.00    -0.257 A  
HETATM    5  C   UNL     1     -10.774  11.465  67.400  1.00  0.00    -0.232 C  
HETATM    6  C   UNL     1     -10.640  13.390  65.815  1.00  0.00    -0.282 A  
HETATM    7  O   UNL     1     -11.357  14.197  66.662  1.00  0.00    -0.322 OA 
HETATM    8  C   UNL     1     -10.250  13.946  64.599  1.00  0.00    -0.247 A  
HETATM    9  C   UNL     1     -10.622   9.994  67.629  1.00  0.00    -0.323 C  
HETATM   10  O   UNL     1     -11.269  12.185  68.273  1.00  0.00    -0.228 OA 
HETATM   11  C   UNL     1     -10.861   9.410  68.830  1.00  0.00    -0.114 C  
HETATM   12  H   UNL     1     -11.556  15.108  66.476  1.00  0.00     0.000 HD 
HETATM   13  C   UNL     1      -9.502  13.202  63.680  1.00  0.00     2.367 A  
HETATM   14  C   UNL     1      -9.568   7.926  66.842  1.00  0.00    -0.263 C  
HETATM   15  C   UNL     1      -9.134  11.860  63.924  1.00  0.00     0.435 A  
HETATM   16  C   UNL     1     -10.843   7.879  69.055  1.00  0.00    -0.007 C  
HETATM   17  C   UNL     1     -10.327   7.054  67.841  1.00  0.00    -0.247 C  
HETATM   18  H   UNL     1      -7.332   4.681  69.245  1.00  0.00     0.000 HD 
HETATM   19  O   UNL     1     -11.345  10.138  69.910  1.00  0.00    -0.251 OA 
HETATM   20  C   UNL     1      -9.301   5.895  68.131  1.00  0.00    -0.115 C  
HETATM   21  H   UNL     1     -11.513   9.728  70.752  1.00  0.00     0.000 HD 
HETATM   22  C   UNL     1     -10.174   7.359  70.352  1.00  0.00    -0.198 C  
HETATM   23  O   UNL     1     -12.243   7.563  69.265  1.00  0.00     0.680 OA 
HETATM   24  O   UNL     1      -7.913   5.026  69.914  1.00  0.00    -0.072 OA 
HETATM   25  C   UNL     1      -9.217   5.384  69.550  1.00  0.00    -0.117 C  
HETATM   26  C   UNL     1     -10.037   5.872  70.495  1.00  0.00    -0.254 C  
HETATM   27  O   UNL     1      -9.719   8.073  71.244  1.00  0.00    -0.159 OA 
HETATM   28  H   UNL     1     -12.233   6.623  69.404  1.00  0.00     0.000 HD 
ENDROOT
BRANCH   8  29
HETATM   29  N   UNL     1     -10.572  15.296  64.365  1.00  0.00    -0.427 N  
HETATM   30  H   UNL     1     -11.402  15.500  63.809  1.00  0.00     0.000 HD 
HETATM   31  C   UNL     1      -9.835  16.363  64.844  1.00  0.00     1.140 C  
HETATM   32  O   UNL     1      -8.824  16.283  65.537  1.00  0.00    -0.277 OA 
BRANCH  31  33
HETATM   33  C   UNL     1     -10.392  17.716  64.383  1.00  0.00     3.946 C  
BRANCH  33  34
HETATM   34  N   UNL     1      -9.648  18.788  65.061  1.00  0.00     1.628 NA 
HETATM   35  C   UNL     1     -11.366  19.137  66.844  1.00  0.00     0.353 C  
HETATM   36  C   UNL     1      -9.091  20.156  66.967  1.00  0.00    -0.481 C  
HETATM   37  C   UNL     1      -9.347  17.692  67.271  1.00  0.00    -0.249 C  
HETATM   38  H   UNL     1      -9.828  19.680  64.601  1.00  0.00     0.000 HD 
HETATM   39  C   UNL     1      -9.882  18.914  66.510  1.00  0.00    -0.368 C  
ENDBRANCH  33  34
ENDBRANCH  31  33
ENDBRANCH   8  29
BRANCH  15  40
HETATM   40  N   UNL     1      -8.303  11.207  63.012  1.00  0.00     0.044 NA 
HETATM   41  C   UNL     1      -7.138  11.894  62.449  1.00  0.00     1.615 C  
HETATM   42  C   UNL     1      -8.590   9.918  62.384  1.00  0.00    -0.185 C  
ENDBRANCH  15  40
BRANCH  26  43
HETATM   43  C   UNL     1     -11.207   4.957  70.668  1.00  0.00     1.295 C  
HETATM   44  N   UNL     1     -11.829   4.516  69.555  1.00  0.00     7.050 N  
HETATM   45  H2  UNL     1     -11.512   4.798  68.627  1.00  0.00     0.000 HD 
HETATM   46  H1  UNL     1     -12.628   3.892  69.673  1.00  0.00     0.000 HD 
HETATM   47  O   UNL     1     -11.656   4.634  71.770  1.00  0.00     0.784 OA 
ENDBRANCH  26  43
BRANCH  20  48
HETATM   48  N   UNL     1      -9.429   4.896  67.045  1.00  0.00    -0.138 NA 
HETATM   49  C   UNL     1      -8.248   4.754  66.195  1.00  0.00    -0.107 C  
HETATM   50  C   UNL     1     -10.621   5.088  66.223  1.00  0.00    -0.276 C  
ENDBRANCH  20  48
TORSDOF 6
ENDMDL
MODEL       64
REMARK 921   NORMALIZED FREE ENERGY PREDICTED BY IDOCK:   16.47 KCAL/MOL
REMARK 922        TOTAL FREE ENERGY PREDICTED BY IDOCK:   21.86 KCAL/MOL
REMARK 923 INTER-LIGAND FREE ENERGY PREDICTED BY IDOCK:   13.54 KCAL/MOL
REMARK 924 INTRA-LIGAND FREE ENERGY PREDICTED BY IDOCK:    8.32 KCAL/MOL
REMARK 927      BINDING AFFINITY PREDICTED BY RF-SCORE:    0.00 PKD
ROOT
HETATM    1  C   UNL     1     -10.071  10.127  67.144  1.00  0.00    -0.260 C  
HETATM    2  C   UNL     1     -10.865   8.842  66.978  1.00  0.00    -0.031 C  
HETATM    3  C   UNL     1     -10.354   7.640  67.698  1.00  0.00    -0.303 A  
HETATM    4  C   UNL     1      -9.529   7.846  68.835  1.00  0.00    -0.150 A  
HETATM    5  C   UNL     1      -9.230   9.220  69.350  1.00  0.00    -0.159 C  
HETATM    6  C   UNL     1      -9.005   6.738  69.510  1.00  0.00    -0.139 A  
HETATM    7  O   UNL     1      -8.173   6.837  70.597  1.00  0.00    -0.117 OA 
HETATM    8  C   UNL     1      -9.274   5.455  69.040  1.00  0.00    -0.120 A  
HETATM    9  C   UNL     1      -9.636  10.410  68.540  1.00  0.00    -0.161 C  
HETATM   10  O   UNL     1      -8.633   9.369  70.421  1.00  0.00    -0.199 OA 
HETATM   11  C   UNL     1      -9.521  11.683  68.995  1.00  0.00     0.139 C  
HETATM   12  H   UNL     1      -7.818   6.084  71.056  1.00  0.00     0.000 HD 
HETATM   13  C   UNL     1     -10.122   5.258  67.945  1.00  0.00    -0.208 A  
HETATM   14  C   UNL     1     -11.016  11.211  66.679  1.00  0.00    -0.289 C  
HETATM   15  C   UNL     1     -10.720   6.336  67.255  1.00  0.00    -0.349 A  
HETATM   16  C   UNL     1      -9.805  12.931  68.126  1.00  0.00    -0.227 C  
HETATM   17  C   UNL     1     -10.435  12.622  66.738  1.00  0.00    -0.254 C  
HETATM   18  H   UNL     1     -13.816  14.874  66.475  1.00  0.00     0.000 HD 
HETATM   19  O   UNL     1      -8.936  11.966  70.224  1.00  0.00     2.375 OA 
HETATM   20  C   UNL     1     -11.650  13.511  66.275  1.00  0.00    -0.345 C  
HETATM   21  H   UNL     1      -8.855  12.858  70.543  1.00  0.00     0.000 HD 
HETATM   22  C   UNL     1     -10.574  14.100  68.792  1.00  0.00    -0.253 C  
HETATM   23  O   UNL     1      -8.483  13.493  67.918  1.00  0.00    -0.154 OA 
HETATM   24  O   UNL     1     -13.196  15.164  67.134  1.00  0.00     2.311 OA 
HETATM   25  C   UNL     1     -11.844  14.836  66.973  1.00  0.00    -0.271 C  
HETATM   26  C   UNL     1     -10.967  15.245  67.905  1.00  0.00    -0.306 C  
HETATM   27  O   UNL     1     -10.915  14.137  69.973  1.00  0.00    -0.060 OA 
HETATM   28  H   UNL     1      -8.658  14.260  67.385  1.00  0.00     0.000 HD 
ENDROOT
BRANCH   8  29
HETATM   29  N   UNL     1      -8.720   4.372  69.748  1.00  0.00    -0.072 N  
HETATM   30  H   UNL     1      -7.948   4.563  70.386  1.00  0.00     0.000 HD 
HETATM   31  C   UNL     1      -9.158   3.066  69.633  1.00  0.00    -0.129 C  
HETATM   32  O   UNL     1     -10.081   2.678  68.922  1.00  0.00     0.474 OA 
BRANCH  31  33
HETATM   33  C   UNL     1      -8.330   2.092  70.481  1.00  0.00    -0.045 C  
BRANCH  33  34
HETATM   34  N   UNL     1      -6.943   2.579  70.541  1.00  0.00    -0.033 NA 
HETATM   35  C   UNL     1      -7.576   4.940  71.067  1.00  0.00    -0.078 C  
HETATM   36  C   UNL     1      -5.226   4.119  71.244  1.00  0.00     0.000 C  
HETATM   37  C   UNL     1      -6.923   3.346  72.904  1.00  0.00    -0.043 C  
HETATM   38  H   UNL     1      -6.610   2.793  69.601  1.00  0.00     0.000 HD 
HETATM   39  C   UNL     1      -6.705   3.727  71.432  1.00  0.00    -0.027 C  
ENDBRANCH  33  34
ENDBRANCH  31  33
ENDBRANCH   8  29
BRANCH  15  40
HETATM   40  N   UNL     1     -11.635   6.067  66.237  1.00  0.00     0.958 NA 
HETATM   41  C   UNL     1     -13.075   6.129  66.501  1.00  0.00    11.010 C  
HETATM   42  C   UNL     1     -11.298   5.517  64.925  1.00  0.00     2.869 C  
ENDBRANCH  15  40
BRANCH  26  43
HETATM   43  C   UNL     1      -9.976  16.179  67.290  1.00  0.00    -0.248 C  
HETATM   44  N   UNL     1     -10.390  17.429  66.995  1.00  0.00    -0.324 N  
HETATM   45  H2  UNL     1     -11.347  17.726  67.186  1.00  0.00     0.000 HD 
HETATM   46  H1  UNL     1      -9.713  18.067  66.575  1.00  0.00     0.000 HD 
HETATM   47  O   UNL     1      -8.826  15.846  66.993  1.00  0.00    -0.191 OA 
ENDBRANCH  26  43
BRANCH  20  48
HETATM   48  N   UNL     1     -11.677  13.502  64.793  1.00  0.00    -0.355 NA 
HETATM   49  C   UNL     1     -12.033  14.779  64.176  1.00  0.00    -0.259 C  
HETATM   50  C   UNL     1     -12.498  12.429  64.239  1.00  0.00    -0.437 C  
ENDBRANCH  20  48
TORSDOF 6
ENDMDL
MODEL       65
REMARK 921   NORMALIZED FREE ENERGY PREDICTED BY IDOCK:   19.89 KCAL/MOL
REMARK 922        TOTAL FREE ENERGY PREDICTED BY IDOCK:   26.49 KCAL/MOL
REMARK 923 INTER-LIGAND FREE ENERGY PREDICTED BY IDOCK:   26.08 KCAL/MOL
REMARK 924 INTRA-LIGAND FREE ENERGY PREDICTED BY IDOCK:    0.41 KCAL/MOL
REMARK 927      BINDING AFFINITY PREDICTED BY RF-SCORE:    0.00 PKD
ROOT
HETATM    1  C   UNL     1     -10.449  13.515  69.089  1.00  0.00     0.007 C  
HETATM    2  C   UNL     1      -9.604  12.501  69.843  1.00  0.00     2.619 C  
HETATM    3  C   UNL     1      -9.347  11.202  69.159  1.00  0.00     0.019 A  
HETATM    4  C   UNL     1      -9.439  11.164  67.743  1.00  0.00    -0.173 A  
HETATM    5  C   UNL     1      -9.715  12.399  66.941  1.00  0.00    -0.215 C  
HETATM    6  C   UNL     1      -9.239   9.951  67.075  1.00  0.00    -0.142 A  
HETATM    7  O   UNL     1      -9.339   9.809  65.714  1.00  0.00    -0.186 OA 
HETATM    8  C   UNL     1      -8.984   8.795  67.810  1.00  0.00    -0.135 A  
HETATM    9  C   UNL     1     -10.103  13.659  67.647  1.00  0.00    -0.242 C  
HETATM   10  O   UNL     1      -9.646  12.370  65.708  1.00  0.00    -0.236 OA 
HETATM   11  C   UNL     1     -10.240  14.847  67.007  1.00  0.00    -0.256 C  
HETATM   12  H   UNL     1      -9.202   8.985  65.261  1.00  0.00     0.000 HD 
HETATM   13  C   UNL     1      -8.852   8.847  69.201  1.00  0.00    -0.136 A  
HETATM   14  C   UNL     1     -10.190  14.821  69.803  1.00  0.00     0.012 C  
HETATM   15  C   UNL     1      -8.995  10.052  69.924  1.00  0.00    -0.146 A  
HETATM   16  C   UNL     1     -10.772  16.130  67.689  1.00  0.00    -0.318 C  
HETATM   17  C   UNL     1     -10.950  16.016  69.231  1.00  0.00    -0.306 C  
HETATM   18  H   UNL     1      -8.886  19.118  70.868  1.00  0.00     0.000 HD 
HETATM   19  O   UNL     1     -10.106  14.951  65.627  1.00  0.00    -0.313 OA 
HETATM   20  C   UNL     1     -10.428  17.209  70.115  1.00  0.00     0.468 C  
HETATM   21  H   UNL     1     -10.202  15.783  65.179  1.00  0.00     0.000 HD 
HETATM   22  C   UNL     1     -10.057  17.463  67.352  1.00  0.00    -0.321 C  
HETATM   23  O   UNL     1     -12.079  16.304  67.085  1.00  0.00     0.871 OA 
HETATM   24  O   UNL     1      -9.093  19.221  69.947  1.00  0.00     0.449 OA 
HETATM   25  C   UNL     1     -10.195  18.532  69.425  1.00  0.00     0.229 C  
HETATM   26  C   UNL     1     -10.487  18.677  68.123  1.00  0.00    -0.361 C  
HETATM   27  O   UNL     1      -9.147  17.586  66.535  1.00  0.00    -0.255 OA 
HETATM   28  H   UNL     1     -12.405  17.092  67.504  1.00  0.00     0.000 HD 
ENDROOT
BRANCH   8  29
HETATM   29  N   UNL     1      -8.795   7.597  67.095  1.00  0.00    -0.123 N  
HETATM   30  H   UNL     1      -8.876   7.629  66.079  1.00  0.00     0.000 HD 
HETATM   31  C   UNL     1      -8.506   6.381  67.684  1.00  0.00    -0.117 C  
HETATM   32  O   UNL     1      -8.364   6.182  68.888  1.00  0.00    -0.114 OA 
BRANCH  31  33
HETATM   33  C   UNL     1      -8.412   5.240  66.663  1.00  0.00    -0.107 C  
BRANCH  33  34
HETATM   34  N   UNL     1      -9.067   5.666  65.417  1.00  0.00    -0.331 NA 
HETATM   35  C   UNL     1      -8.837   3.445  64.292  1.00  0.00    -0.097 C  
HETATM   36  C   UNL     1     -10.269   5.267  63.365  1.00  0.00     1.693 C  
HETATM   37  C   UNL     1     -10.983   4.085  65.445  1.00  0.00     0.484 C  
HETATM   38  H   UNL     1      -8.391   6.132  64.811  1.00  0.00     0.000 HD 
HETATM   39  C   UNL     1      -9.767   4.610  64.667  1.00  0.00     0.038 C  
ENDBRANCH  33  34
ENDBRANCH  31  33
ENDBRANCH   8  29
BRANCH  15  40
HETATM   40  N   UNL     1      -8.750  10.053  71.298  1.00  0.00     0.911 NA 
HETATM   41  C   UNL     1      -7.396   9.832  71.809  1.00  0.00     1.273 C  
HETATM   42  C   UNL     1      -9.780  10.062  72.336  1.00  0.00     5.107 C  
ENDBRANCH  15  40
BRANCH  26  43
HETATM   43  C   UNL     1     -11.836  19.302  67.975  1.00  0.00     2.441 C  
HETATM   44  N   UNL     1     -12.911  18.566  68.328  1.00  0.00     6.294 N  
HETATM   45  H2  UNL     1     -12.806  17.616  68.684  1.00  0.00     0.000 HD 
HETATM   46  H1  UNL     1     -13.833  18.993  68.227  1.00  0.00     0.000 HD 
HETATM   47  O   UNL     1     -12.013  20.425  67.499  1.00  0.00     1.934 OA 
ENDBRANCH  26  43
BRANCH  20  48
HETATM   48  N   UNL     1     -11.212  17.216  71.373  1.00  0.00     0.725 NA 
HETATM   49  C   UNL     1     -10.423  17.046  72.592  1.00  0.00     5.097 C  
HETATM   50  C   UNL     1     -12.328  16.274  71.361  1.00  0.00     0.041 C  
ENDBRANCH  20  48
TORSDOF 6
ENDMDL
MODEL       66
REMARK 921   NORMALIZED FREE ENERGY PREDICTED BY IDOCK:   29.22 KCAL/MOL
REMARK 922        TOTAL FREE ENERGY PREDICTED BY IDOCK:   39.09 KCAL/MOL
REMARK 923 INTER-LIGAND FREE ENERGY PREDICTED BY IDOCK:   34.86 KCAL/MOL
REMARK 924 INTRA-LIGAND FREE ENERGY PREDICTED BY IDOCK:    4.23 KCAL/MOL
REMARK 927      BINDING AFFINITY PREDICTED BY RF-SCORE:    0.00 PKD
ROOT
HETATM    1  C   UNL     1      -9.258   8.449  69.714  1.00  0.00    -0.157 C  
HETATM    2  C   UNL     1      -9.941   9.306  68.661  1.00  0.00    -0.193 C  
HETATM    3  C   UNL     1      -9.571  10.750  68.628  1.00  0.00    -0.187 A  
HETATM    4  C   UNL     1      -8.318  11.129  69.175  1.00  0.00     0.014 A  
HETATM    5  C   UNL     1      -7.354  10.114  69.708  1.00  0.00    -0.158 C  
HETATM    6  C   UNL     1      -7.959  12.482  69.191  1.00  0.00     0.433 A  
HETATM    7  O   UNL     1      -6.784  12.947  69.726  1.00  0.00    -0.335 OA 
HETATM    8  C   UNL     1      -8.847  13.436  68.700  1.00  0.00     0.020 A  
HETATM    9  C   UNL     1      -7.796   8.693  69.857  1.00  0.00    -0.093 C  
HETATM   10  O   UNL     1      -6.214  10.452  70.043  1.00  0.00    -0.066 OA 
HETATM   11  C   UNL     1      -6.948   7.693  70.206  1.00  0.00    -0.051 C  
HETATM   12  H   UNL     1      -6.540  13.866  69.736  1.00  0.00     0.000 HD 
HETATM   13  C   UNL     1     -10.062  13.051  68.123  1.00  0.00    -0.237 A  
HETATM   14  C   UNL     1      -9.491   7.031  69.250  1.00  0.00    -0.147 C  
HETATM   15  C   UNL     1     -10.456  11.697  68.035  1.00  0.00    -0.194 A  
HETATM   16  C   UNL     1      -7.408   6.245  70.500  1.00  0.00    -0.085 C  
HETATM   17  C   UNL     1      -8.900   5.961  70.166  1.00  0.00    -0.144 C  
HETATM   18  H   UNL     1      -8.941   2.714  67.712  1.00  0.00     0.000 HD 
HETATM   19  O   UNL     1      -5.619   7.944  70.529  1.00  0.00    -0.026 OA 
HETATM   20  C   UNL     1      -9.235   4.629  69.397  1.00  0.00    -0.119 C  
HETATM   21  H   UNL     1      -5.025   7.244  70.773  1.00  0.00     0.000 HD 
HETATM   22  C   UNL     1      -6.529   5.095  69.946  1.00  0.00    -0.035 C  
HETATM   23  O   UNL     1      -7.225   6.128  71.934  1.00  0.00    -0.087 OA 
HETATM   24  O   UNL     1      -8.138   2.828  68.208  1.00  0.00    -0.060 OA 
HETATM   25  C   UNL     1      -8.189   3.539  69.413  1.00  0.00    -0.052 C  
HETATM   26  C   UNL     1      -7.055   3.700  70.114  1.00  0.00    -0.041 C  
HETATM   27  O   UNL     1      -5.464   5.246  69.352  1.00  0.00    -0.006 OA 
HETATM   28  H   UNL     1      -7.506   5.239  72.114  1.00  0.00     0.000 HD 
ENDROOT
BRANCH   8  29
HETATM   29  N   UNL     1      -8.445  14.784  68.742  1.00  0.00    -0.166 N  
HETATM   30  H   UNL     1      -7.514  14.994  69.102  1.00  0.00     0.000 HD 
HETATM   31  C   UNL     1      -9.231  15.841  68.325  1.00  0.00    -0.188 C  
HETATM   32  O   UNL     1     -10.363  15.752  67.856  1.00  0.00    -0.250 OA 
BRANCH  31  33
HETATM   33  C   UNL     1      -8.553  17.200  68.542  1.00  0.00    -0.258 C  
BRANCH  33  34
HETATM   34  N   UNL     1      -8.198  17.329  69.963  1.00  0.00     1.630 NA 
HETATM   35  C   UNL     1     -10.536  17.791  70.720  1.00  0.00     1.954 C  
HETATM   36  C   UNL     1      -8.690  17.286  72.323  1.00  0.00    14.912 C  
HETATM   37  C   UNL     1      -9.577  15.467  70.861  1.00  0.00     1.495 C  
HETATM   38  H   UNL     1      -7.864  18.274  70.153  1.00  0.00     0.000 HD 
HETATM   39  C   UNL     1      -9.254  16.967  70.924  1.00  0.00     4.959 C  
ENDBRANCH  33  34
ENDBRANCH  31  33
ENDBRANCH   8  29
BRANCH  15  40
HETATM   40  N   UNL     1     -11.632  11.375  67.357  1.00  0.00    -0.561 NA 
HETATM   41  C   UNL     1     -12.724  10.692  68.053  1.00  0.00     3.769 C  
HETATM   42  C   UNL     1     -11.826  11.480  65.911  1.00  0.00     0.467 C  
ENDBRANCH  15  40
BRANCH  26  43
HETATM   43  C   UNL     1      -7.185   3.031  71.444  1.00  0.00    -0.033 C  
HETATM   44  N   UNL     1      -7.995   3.605  72.359  1.00  0.00    -0.068 N  
HETATM   45  H2  UNL     1      -8.501   4.465  72.149  1.00  0.00     0.000 HD 
HETATM   46  H1  UNL     1      -8.084   3.148  73.267  1.00  0.00     0.000 HD 
HETATM   47  O   UNL     1      -6.552   2.021  71.759  1.00  0.00    -0.017 OA 
ENDBRANCH  26  43
BRANCH  20  48
HETATM   48  N   UNL     1     -10.629   4.252  69.730  1.00  0.00     0.826 NA 
HETATM   49  C   UNL     1     -10.905   2.817  69.693  1.00  0.00     4.367 C  
HETATM   50  C   UNL     1     -11.624   4.976  68.944  1.00  0.00     4.032 C  
ENDBRANCH  20  48
TORSDOF 6
ENDMDL
MODEL       67
REMARK 921   NORMALIZED FREE ENERGY PREDICTED BY IDOCK:   30.60 KCAL/MOL
REMARK 922        TOTAL FREE ENERGY PREDICTED BY IDOCK:   40.96 KCAL/MOL
REMARK 923 INTER-LIGAND FREE ENERGY PREDICTED BY IDOCK:   39.98 KCAL/MOL
REMARK 924 INTRA-LIGAND FREE ENERGY PREDICTED BY IDOCK:    0.98 KCAL/MOL
REMARK 927      BINDING AFFINITY PREDICTED BY RF-SCORE:    0.00 PKD
ROOT
HETATM    1  C   UNL     1      -9.315   9.274  66.117  1.00  0.00    -0.270 C  
HETATM    2  C   UNL     1      -8.432  10.150  65.243  1.00  0.00    -0.165 C  
HETATM    3  C   UNL     1      -8.270  11.571  65.665  1.00  0.00     0.333 A  
HETATM    4  C   UNL     1      -8.490  11.890  67.030  1.00  0.00    -0.177 A  
HETATM    5  C   UNL     1      -8.805  10.833  68.043  1.00  0.00    -0.132 C  
HETATM    6  C   UNL     1      -8.381  13.221  67.449  1.00  0.00    -0.192 A  
HETATM    7  O   UNL     1      -8.605  13.631  68.739  1.00  0.00    -0.341 OA 
HETATM    8  C   UNL     1      -8.090  14.215  66.516  1.00  0.00     0.714 A  
HETATM    9  C   UNL     1      -9.096   9.440  67.581  1.00  0.00    -0.131 C  
HETATM   10  O   UNL     1      -8.848  11.113  69.245  1.00  0.00     0.002 OA 
HETATM   11  C   UNL     1      -9.260   8.401  68.437  1.00  0.00    -0.135 C  
HETATM   12  H   UNL     1      -8.531  14.534  69.023  1.00  0.00     0.000 HD 
HETATM   13  C   UNL     1      -7.832  13.888  65.181  1.00  0.00     7.670 A  
HETATM   14  C   UNL     1      -8.960   7.864  65.709  1.00  0.00    -0.125 C  
HETATM   15  C   UNL     1      -7.879  12.556  64.711  1.00  0.00     4.676 A  
HETATM   16  C   UNL     1      -9.696   6.985  67.991  1.00  0.00    -0.129 C  
HETATM   17  C   UNL     1      -9.738   6.778  66.450  1.00  0.00    -0.125 C  
HETATM   18  H   UNL     1      -7.458   3.500  65.660  1.00  0.00     0.000 HD 
HETATM   19  O   UNL     1      -9.248   8.585  69.815  1.00  0.00    -0.154 OA 
HETATM   20  C   UNL     1      -9.109   5.454  65.875  1.00  0.00    -0.157 C  
HETATM   21  H   UNL     1      -9.362   7.857  70.415  1.00  0.00     0.000 HD 
HETATM   22  C   UNL     1      -8.981   5.780  68.653  1.00  0.00    -0.112 C  
HETATM   23  O   UNL     1     -11.048   6.881  68.508  1.00  0.00    -0.449 OA 
HETATM   24  O   UNL     1      -7.744   3.577  66.563  1.00  0.00    -0.079 OA 
HETATM   25  C   UNL     1      -8.906   4.309  66.839  1.00  0.00    -0.116 C  
HETATM   26  C   UNL     1      -9.309   4.419  68.115  1.00  0.00    -0.195 C  
HETATM   27  O   UNL     1      -8.145   5.864  69.550  1.00  0.00    -0.102 OA 
HETATM   28  H   UNL     1     -11.315   6.011  68.234  1.00  0.00     0.000 HD 
ENDROOT
BRANCH   8  29
HETATM   29  N   UNL     1      -7.996  15.539  66.983  1.00  0.00    -0.220 N  
HETATM   30  H   UNL     1      -8.824  15.956  67.408  1.00  0.00     0.000 HD 
HETATM   31  C   UNL     1      -6.852  16.310  66.901  1.00  0.00    -0.160 C  
HETATM   32  O   UNL     1      -5.776  15.950  66.431  1.00  0.00     0.474 OA 
BRANCH  31  33
HETATM   33  C   UNL     1      -7.062  17.732  67.437  1.00  0.00    -0.185 C  
BRANCH  33  34
HETATM   34  N   UNL     1      -7.685  18.547  66.383  1.00  0.00    -0.255 NA 
HETATM   35  C   UNL     1      -6.130  20.485  66.674  1.00  0.00    -0.233 C  
HETATM   36  C   UNL     1      -7.686  20.303  64.730  1.00  0.00     0.934 C  
HETATM   37  C   UNL     1      -5.722  18.769  64.876  1.00  0.00    -0.290 C  
HETATM   38  H   UNL     1      -8.496  19.039  66.758  1.00  0.00     0.000 HD 
HETATM   39  C   UNL     1      -6.794  19.499  65.698  1.00  0.00    -0.290 C  
ENDBRANCH  33  34
ENDBRANCH  31  33
ENDBRANCH   8  29
BRANCH  15  40
HETATM   40  N   UNL     1      -7.512  12.288  63.392  1.00  0.00     3.792 NA 
HETATM   41  C   UNL     1      -8.003  11.084  62.717  1.00  0.00     0.082 C  
HETATM   42  C   UNL     1      -6.490  13.013  62.638  1.00  0.00     9.155 C  
ENDBRANCH  15  40
BRANCH  26  43
HETATM   43  C   UNL     1     -10.651   3.779  68.276  1.00  0.00     2.061 C  
HETATM   44  N   UNL     1     -10.707   2.592  68.917  1.00  0.00     3.003 N  
HETATM   45  H2  UNL     1      -9.863   2.148  69.278  1.00  0.00     0.000 HD 
HETATM   46  H1  UNL     1     -11.622   2.155  69.027  1.00  0.00     0.000 HD 
HETATM   47  O   UNL     1     -11.688   4.253  67.808  1.00  0.00     5.838 OA 
ENDBRANCH  26  43
BRANCH  20  48
HETATM   48  N   UNL     1      -9.777   5.159  64.585  1.00  0.00     0.328 NA 
HETATM   49  C   UNL     1     -10.486   6.289  63.986  1.00  0.00     6.007 C  
HETATM   50  C   UNL     1     -10.650   3.990  64.643  1.00  0.00    -0.168 C  
ENDBRANCH  20  48
TORSDOF 6
ENDMDL
MODEL       68
REMARK 921   NORMALIZED FREE ENERGY PREDICTED BY IDOCK:   39.91 KCAL/MOL
REMARK 922        TOTAL FREE ENERGY PREDICTED BY IDOCK:   53.52 KCAL/MOL
REMARK 923 INTER-LIGAND FREE ENERGY PREDICTED BY IDOCK:   53.36 KCAL/MOL
REMARK 924 INTRA-LIGAND FREE ENERGY PREDICTED BY IDOCK:    0.16 KCAL/MOL
REMARK 927      BINDING AFFINITY PREDICTED BY RF-SCORE:    0.00 PKD
ROOT
HETATM    1  C   UNL     1      -9.215   9.267  70.059  1.00  0.00    -0.231 C  
HETATM    2  C   UNL     1      -8.738  10.168  68.932  1.00  0.00    -0.149 C  
HETATM    3  C   UNL     1      -8.880  11.638  69.142  1.00  0.00     0.333 A  
HETATM    4  C   UNL     1      -8.951  12.116  70.476  1.00  0.00     6.362 A  
HETATM    5  C   UNL     1      -8.818  11.194  71.649  1.00  0.00    10.456 C  
HETATM    6  C   UNL     1      -9.120  13.486  70.704  1.00  0.00     5.762 A  
HETATM    7  O   UNL     1      -9.232  14.038  71.956  1.00  0.00     6.237 OA 
HETATM    8  C   UNL     1      -9.247  14.354  69.622  1.00  0.00     0.587 A  
HETATM    9  C   UNL     1      -8.814   9.716  71.422  1.00  0.00     0.836 C  
HETATM   10  O   UNL     1      -8.737  11.649  72.795  1.00  0.00    17.885 OA 
HETATM   11  C   UNL     1      -8.566   8.821  72.411  1.00  0.00     0.058 C  
HETATM   12  H   UNL     1      -9.346  14.968  72.111  1.00  0.00     0.000 HD 
HETATM   13  C   UNL     1      -9.133  13.882  68.310  1.00  0.00    -0.191 A  
HETATM   14  C   UNL     1      -8.582   7.929  69.760  1.00  0.00    -0.133 C  
HETATM   15  C   UNL     1      -8.912  12.517  68.020  1.00  0.00    -0.192 A  
HETATM   16  C   UNL     1      -8.691   7.289  72.230  1.00  0.00    -0.119 C  
HETATM   17  C   UNL     1      -8.926   6.829  70.763  1.00  0.00    -0.151 C  
HETATM   18  H   UNL     1      -6.042   4.080  69.936  1.00  0.00     0.000 HD 
HETATM   19  O   UNL     1      -8.380   9.225  73.728  1.00  0.00     0.580 OA 
HETATM   20  C   UNL     1      -8.080   5.610  70.237  1.00  0.00    -0.104 C  
HETATM   21  H   UNL     1      -8.206   8.598  74.421  1.00  0.00     0.000 HD 
HETATM   22  C   UNL     1      -7.595   6.406  72.877  1.00  0.00    -0.095 C  
HETATM   23  O   UNL     1      -9.870   6.963  73.010  1.00  0.00    -0.164 OA 
HETATM   24  O   UNL     1      -6.188   4.235  70.862  1.00  0.00    -0.014 OA 
HETATM   25  C   UNL     1      -7.438   4.716  71.271  1.00  0.00    -0.075 C  
HETATM   26  C   UNL     1      -7.646   4.936  72.579  1.00  0.00    -0.091 C  
HETATM   27  O   UNL     1      -6.675   6.825  73.577  1.00  0.00    -0.071 OA 
HETATM   28  H   UNL     1      -9.946   6.022  72.900  1.00  0.00     0.000 HD 
ENDROOT
BRANCH   8  29
HETATM   29  N   UNL     1      -9.422  15.722  69.901  1.00  0.00    -0.112 N  
HETATM   30  H   UNL     1     -10.367  16.103  69.855  1.00  0.00     0.000 HD 
HETATM   31  C   UNL     1      -8.393  16.583  70.232  1.00  0.00     2.213 C  
HETATM   32  O   UNL     1      -7.207  16.277  70.341  1.00  0.00     0.845 OA 
BRANCH  31  33
HETATM   33  C   UNL     1      -8.872  18.027  70.424  1.00  0.00     3.559 C  
BRANCH  33  34
HETATM   34  N   UNL     1      -8.788  18.729  69.135  1.00  0.00    -0.077 NA 
HETATM   35  C   UNL     1     -11.150  18.237  68.477  1.00  0.00     0.690 C  
HETATM   36  C   UNL     1      -9.734  19.876  67.237  1.00  0.00    -0.517 C  
HETATM   37  C   UNL     1     -10.542  20.443  69.530  1.00  0.00     0.467 C  
HETATM   38  H   UNL     1      -8.380  18.113  68.431  1.00  0.00     0.000 HD 
HETATM   39  C   UNL     1     -10.049  19.299  68.631  1.00  0.00    -0.419 C  
ENDBRANCH  33  34
ENDBRANCH  31  33
ENDBRANCH   8  29
BRANCH  15  40
HETATM   40  N   UNL     1      -8.706  12.128  66.696  1.00  0.00    -0.183 NA 
HETATM   41  C   UNL     1      -7.720  11.096  66.372  1.00  0.00    -0.124 C  
HETATM   42  C   UNL     1      -9.258  12.807  65.524  1.00  0.00     0.375 C  
ENDBRANCH  15  40
BRANCH  26  43
HETATM   43  C   UNL     1      -8.735   4.040  73.075  1.00  0.00    -0.099 C  
HETATM   44  N   UNL     1      -9.405   4.421  74.183  1.00  0.00    -0.112 N  
HETATM   45  H2  UNL     1      -9.176   5.290  74.665  1.00  0.00     0.000 HD 
HETATM   46  H1  UNL     1     -10.149   3.809  74.522  1.00  0.00     0.000 HD 
HETATM   47  O   UNL     1      -9.009   2.956  72.556  1.00  0.00    -0.084 OA 
ENDBRANCH  26  43
BRANCH  20  48
HETATM   48  N   UNL     1      -8.849   4.963  69.147  1.00  0.00    -0.091 NA 
HETATM   49  C   UNL     1      -8.112   4.781  67.897  1.00  0.00    -0.092 C  
HETATM   50  C   UNL     1     -10.132   5.609  68.886  1.00  0.00    -0.192 C  
ENDBRANCH  20  48
TORSDOF 6
ENDMDL
MODEL       69
REMARK 921   NORMALIZED FREE ENERGY PREDICTED BY IDOCK:   47.21 KCAL/MOL
REMARK 922        TOTAL FREE ENERGY PREDICTED BY IDOCK:   63.39 KCAL/MOL
REMARK 923 INTER-LIGAND FREE ENERGY PREDICTED BY IDOCK:   56.15 KCAL/MOL
REMARK 924 INTRA-LIGAND FREE ENERGY PREDICTED BY IDOCK:    7.24 KCAL/MOL
REMARK 927      BINDING AFFINITY PREDICTED BY RF-SCORE:    0.00 PKD
ROOT
HETATM    1  C   UNL     1      -9.084  13.262  69.948  1.00  0.00     2.659 C  
HETATM    2  C   UNL     1     -10.320  12.449  70.295  1.00  0.00     2.656 C  
HETATM    3  C   UNL     1     -10.131  10.979  70.461  1.00  0.00     1.812 A  
HETATM    4  C   UNL     1      -8.834  10.507  70.788  1.00  0.00     2.276 A  
HETATM    5  C   UNL     1      -7.694  11.447  71.031  1.00  0.00     5.186 C  
HETATM    6  C   UNL     1      -8.618   9.130  70.915  1.00  0.00    -0.206 A  
HETATM    7  O   UNL     1      -7.393   8.578  71.196  1.00  0.00    -0.062 OA 
HETATM    8  C   UNL     1      -9.669   8.245  70.688  1.00  0.00    -0.171 A  
HETATM    9  C   UNL     1      -7.867  12.902  70.728  1.00  0.00     5.721 C  
HETATM   10  O   UNL     1      -6.614  11.023  71.456  1.00  0.00     0.843 OA 
HETATM   11  C   UNL     1      -6.934  13.834  71.043  1.00  0.00     1.795 C  
HETATM   12  H   UNL     1      -7.247   7.643  71.283  1.00  0.00     0.000 HD 
HETATM   13  C   UNL     1     -10.955   8.718  70.409  1.00  0.00    -0.262 A  
HETATM   14  C   UNL     1      -9.477  14.688  70.254  1.00  0.00     1.059 C  
HETATM   15  C   UNL     1     -11.243  10.099  70.318  1.00  0.00    -0.318 A  
HETATM   16  C   UNL     1      -7.030  15.319  70.618  1.00  0.00     0.594 C  
HETATM   17  C   UNL     1      -8.386  15.719  69.970  1.00  0.00     0.573 C  
HETATM   18  H   UNL     1      -9.770  18.923  72.064  1.00  0.00     0.000 HD 
HETATM   19  O   UNL     1      -5.710  13.480  71.600  1.00  0.00    -0.385 OA 
HETATM   20  C   UNL     1      -9.054  17.063  70.446  1.00  0.00     2.976 C  
HETATM   21  H   UNL     1      -5.056  14.134  71.821  1.00  0.00     0.000 HD 
HETATM   22  C   UNL     1      -6.627  16.386  71.667  1.00  0.00     3.511 C  
HETATM   23  O   UNL     1      -5.986  15.441  69.617  1.00  0.00    -0.116 OA 
HETATM   24  O   UNL     1      -8.841  18.752  72.167  1.00  0.00     8.191 OA 
HETATM   25  C   UNL     1      -8.168  18.064  71.149  1.00  0.00     7.522 C  
HETATM   26  C   UNL     1      -6.855  17.822  71.295  1.00  0.00     3.928 C  
HETATM   27  O   UNL     1      -6.174  16.140  72.783  1.00  0.00     2.414 OA 
HETATM   28  H   UNL     1      -6.045  16.353  69.356  1.00  0.00     0.000 HD 
ENDROOT
BRANCH   8  29
HETATM   29  N   UNL     1      -9.403   6.869  70.822  1.00  0.00    -0.161 N  
HETATM   30  H   UNL     1      -8.638   6.475  70.275  1.00  0.00     0.000 HD 
HETATM   31  C   UNL     1     -10.113   6.019  71.648  1.00  0.00    -0.190 C  
HETATM   32  O   UNL     1     -11.048   6.342  72.377  1.00  0.00    -0.243 OA 
BRANCH  31  33
HETATM   33  C   UNL     1      -9.637   4.565  71.546  1.00  0.00    -0.163 C  
BRANCH  33  34
HETATM   34  N   UNL     1     -10.628   3.696  72.197  1.00  0.00     0.061 NA 
HETATM   35  C   UNL     1     -10.441   4.808  74.430  1.00  0.00    -0.331 C  
HETATM   36  C   UNL     1     -12.256   3.178  73.899  1.00  0.00     1.041 C  
HETATM   37  C   UNL     1     -12.285   5.435  72.833  1.00  0.00     0.159 C  
HETATM   38  H   UNL     1     -10.183   2.830  72.503  1.00  0.00     0.000 HD 
HETATM   39  C   UNL     1     -11.372   4.299  73.317  1.00  0.00    -0.203 C  
ENDBRANCH  33  34
ENDBRANCH  31  33
ENDBRANCH   8  29
BRANCH  15  40
HETATM   40  N   UNL     1     -12.565  10.506  70.138  1.00  0.00    -0.251 NA 
HETATM   41  C   UNL     1     -13.369  10.940  71.282  1.00  0.00    -0.041 C  
HETATM   42  C   UNL     1     -13.331  10.358  68.900  1.00  0.00     4.195 C  
ENDBRANCH  15  40
BRANCH  26  43
HETATM   43  C   UNL     1      -6.091  18.518  70.216  1.00  0.00    -0.013 C  
HETATM   44  N   UNL     1      -5.281  17.769  69.438  1.00  0.00    -0.176 N  
HETATM   45  H2  UNL     1      -5.193  16.763  69.582  1.00  0.00     0.000 HD 
HETATM   46  H1  UNL     1      -4.759  18.244  68.701  1.00  0.00     0.000 HD 
HETATM   47  O   UNL     1      -6.125  19.737  70.041  1.00  0.00    -0.281 OA 
ENDBRANCH  26  43
BRANCH  20  48
HETATM   48  N   UNL     1      -9.913  17.556  69.345  1.00  0.00    -0.086 NA 
HETATM   49  C   UNL     1      -9.301  17.509  68.017  1.00  0.00    -0.272 C  
HETATM   50  C   UNL     1     -10.466  18.884  69.596  1.00  0.00     0.907 C  
ENDBRANCH  20  48
TORSDOF 6
ENDMDL
MODEL       70
REMARK 921   NORMALIZED FREE ENERGY PREDICTED BY IDOCK:   50.18 KCAL/MOL
REMARK 922        TOTAL FREE ENERGY PREDICTED BY IDOCK:   67.40 KCAL/MOL
REMARK 923 INTER-LIGAND FREE ENERGY PREDICTED BY IDOCK:   63.47 KCAL/MOL
REMARK 924 INTRA-LIGAND FREE ENERGY PREDICTED BY IDOCK:    3.93 KCAL/MOL
REMARK 927      BINDING AFFINITY PREDICTED BY RF-SCORE:    0.00 PKD
ROOT
HETATM    1  C   UNL     1     -11.246  10.907  70.223  1.00  0.00    -0.271 C  
HETATM    2  C   UNL     1     -11.074  11.495  68.832  1.00  0.00    -0.288 C  
HETATM    3  C   UNL     1     -10.482  12.861  68.749  1.00  0.00    -0.183 A  
HETATM    4  C   UNL     1      -9.679  13.305  69.831  1.00  0.00     2.192 A  
HETATM    5  C   UNL     1      -9.369  12.416  70.996  1.00  0.00    10.806 C  
HETATM    6  C   UNL     1      -9.139  14.596  69.799  1.00  0.00     0.464 A  
HETATM    7  O   UNL     1      -8.379  15.125  70.811  1.00  0.00     0.628 OA 
HETATM    8  C   UNL     1      -9.423  15.434  68.722  1.00  0.00    -0.211 A  
HETATM    9  C   UNL     1     -10.079  11.106  71.127  1.00  0.00     4.787 C  
HETATM   10  O   UNL     1      -8.552  12.772  71.852  1.00  0.00    14.839 OA 
HETATM   11  C   UNL     1      -9.761  10.190  72.075  1.00  0.00     4.442 C  
HETATM   12  H   UNL     1      -8.012  16.002  70.788  1.00  0.00     0.000 HD 
HETATM   13  C   UNL     1     -10.178  14.974  67.639  1.00  0.00    -0.236 A  
HETATM   14  C   UNL     1     -11.452   9.430  69.981  1.00  0.00    -0.111 C  
HETATM   15  C   UNL     1     -10.708  13.665  67.594  1.00  0.00    -0.245 A  
HETATM   16  C   UNL     1     -10.568   8.892  72.316  1.00  0.00    -0.151 C  
HETATM   17  C   UNL     1     -11.664   8.606  71.249  1.00  0.00    -0.341 C  
HETATM   18  H   UNL     1     -10.979   4.841  69.865  1.00  0.00     0.000 HD 
HETATM   19  O   UNL     1      -8.799  10.449  73.045  1.00  0.00     6.921 OA 
HETATM   20  C   UNL     1     -11.772   7.139  70.690  1.00  0.00    -0.307 C  
HETATM   21  H   UNL     1      -8.576   9.807  73.709  1.00  0.00     0.000 HD 
HETATM   22  C   UNL     1      -9.765   7.595  72.587  1.00  0.00    -0.196 C  
HETATM   23  O   UNL     1     -11.217   9.141  73.589  1.00  0.00     2.955 OA 
HETATM   24  O   UNL     1     -10.568   5.038  70.698  1.00  0.00    -0.200 OA 
HETATM   25  C   UNL     1     -11.129   6.039  71.502  1.00  0.00    -0.276 C  
HETATM   26  C   UNL     1     -10.548   6.319  72.680  1.00  0.00    -0.243 C  
HETATM   27  O   UNL     1      -8.541   7.534  72.692  1.00  0.00    -0.109 OA 
HETATM   28  H   UNL     1     -11.712   8.344  73.737  1.00  0.00     0.000 HD 
ENDROOT
BRANCH   8  29
HETATM   29  N   UNL     1      -8.862  16.725  68.736  1.00  0.00    -0.261 N  
HETATM   30  H   UNL     1      -8.438  17.052  69.603  1.00  0.00     0.000 HD 
HETATM   31  C   UNL     1      -8.851  17.576  67.648  1.00  0.00    -0.228 C  
HETATM   32  O   UNL     1      -9.307  17.325  66.535  1.00  0.00    -0.247 OA 
BRANCH  31  33
HETATM   33  C   UNL     1      -8.225  18.938  67.973  1.00  0.00    -0.293 C  
BRANCH  33  34
HETATM   34  N   UNL     1      -8.659  19.348  69.317  1.00  0.00    -0.127 NA 
HETATM   35  C   UNL     1     -10.802  20.376  68.539  1.00  0.00     0.459 C  
HETATM   36  C   UNL     1     -10.317  19.970  70.953  1.00  0.00     1.907 C  
HETATM   37  C   UNL     1     -10.759  18.028  69.449  1.00  0.00     0.663 C  
HETATM   38  H   UNL     1      -8.228  20.240  69.563  1.00  0.00     0.000 HD 
HETATM   39  C   UNL     1     -10.114  19.420  69.528  1.00  0.00     0.064 C  
ENDBRANCH  33  34
ENDBRANCH  31  33
ENDBRANCH   8  29
BRANCH  15  40
HETATM   40  N   UNL     1     -11.365  13.237  66.440  1.00  0.00    -0.303 NA 
HETATM   41  C   UNL     1     -12.379  12.183  66.513  1.00  0.00     0.690 C  
HETATM   42  C   UNL     1     -10.999  13.611  65.074  1.00  0.00    -0.346 C  
ENDBRANCH  15  40
BRANCH  26  43
HETATM   43  C   UNL     1     -11.501   6.025  73.793  1.00  0.00     0.927 C  
HETATM   44  N   UNL     1     -11.295   4.903  74.515  1.00  0.00     0.815 N  
HETATM   45  H2  UNL     1     -10.516   4.278  74.308  1.00  0.00     0.000 HD 
HETATM   46  H1  UNL     1     -11.946   4.702  75.276  1.00  0.00     0.000 HD 
HETATM   47  O   UNL     1     -12.485   6.723  74.045  1.00  0.00     3.556 OA 
ENDBRANCH  26  43
BRANCH  20  48
HETATM   48  N   UNL     1     -13.165   6.931  70.230  1.00  0.00     0.997 NA 
HETATM   49  C   UNL     1     -13.334   6.878  68.778  1.00  0.00    10.075 C  
HETATM   50  C   UNL     1     -14.111   7.880  70.812  1.00  0.00     0.459 C  
ENDBRANCH  20  48
TORSDOF 6
ENDMDL
MODEL       71
REMARK 921   NORMALIZED FREE ENERGY PREDICTED BY IDOCK:   51.36 KCAL/MOL
REMARK 922        TOTAL FREE ENERGY PREDICTED BY IDOCK:   69.00 KCAL/MOL
REMARK 923 INTER-LIGAND FREE ENERGY PREDICTED BY IDOCK:   63.97 KCAL/MOL
REMARK 924 INTRA-LIGAND FREE ENERGY PREDICTED BY IDOCK:    5.02 KCAL/MOL
REMARK 927      BINDING AFFINITY PREDICTED BY RF-SCORE:    0.00 PKD
ROOT
HETATM    1  C   UNL     1      -9.274   8.585  68.776  1.00  0.00    -0.142 C  
HETATM    2  C   UNL     1     -10.154   8.673  67.540  1.00  0.00    -0.277 C  
HETATM    3  C   UNL     1      -9.982   9.877  66.678  1.00  0.00    -0.277 A  
HETATM    4  C   UNL     1      -8.746  10.571  66.742  1.00  0.00    -0.136 A  
HETATM    5  C   UNL     1      -7.613  10.081  67.591  1.00  0.00    -0.091 C  
HETATM    6  C   UNL     1      -8.567  11.726  65.972  1.00  0.00     0.064 A  
HETATM    7  O   UNL     1      -7.421  12.480  65.991  1.00  0.00     0.567 OA 
HETATM    8  C   UNL     1      -9.614  12.193  65.180  1.00  0.00    -0.032 A  
HETATM    9  C   UNL     1      -7.849   8.955  68.548  1.00  0.00    -0.103 C  
HETATM   10  O   UNL     1      -6.502  10.616  67.519  1.00  0.00    -0.057 OA 
HETATM   11  C   UNL     1      -6.850   8.369  69.253  1.00  0.00    -0.047 C  
HETATM   12  H   UNL     1      -7.300  13.264  65.468  1.00  0.00     0.000 HD 
HETATM   13  C   UNL     1     -10.814  11.481  65.088  1.00  0.00    -0.326 A  
HETATM   14  C   UNL     1      -9.359   7.135  69.191  1.00  0.00    -0.141 C  
HETATM   15  C   UNL     1     -11.033  10.283  65.804  1.00  0.00     0.431 A  
HETATM   16  C   UNL     1      -7.087   7.300  70.346  1.00  0.00    -0.065 C  
HETATM   17  C   UNL     1      -8.553   6.789  70.442  1.00  0.00    -0.146 C  
HETATM   18  H   UNL     1      -8.385   2.731  70.170  1.00  0.00     0.000 HD 
HETATM   19  O   UNL     1      -5.542   8.837  69.189  1.00  0.00    -0.035 OA 
HETATM   20  C   UNL     1      -8.777   5.236  70.573  1.00  0.00    -0.121 C  
HETATM   21  H   UNL     1      -4.842   8.426  69.683  1.00  0.00     0.000 HD 
HETATM   22  C   UNL     1      -6.118   6.091  70.380  1.00  0.00    -0.030 C  
HETATM   23  O   UNL     1      -6.763   8.006  71.571  1.00  0.00    -0.048 OA 
HETATM   24  O   UNL     1      -7.563   3.148  70.401  1.00  0.00    -0.043 OA 
HETATM   25  C   UNL     1      -7.600   4.403  71.023  1.00  0.00    -0.063 C  
HETATM   26  C   UNL     1      -6.439   4.992  71.350  1.00  0.00    -0.031 C  
HETATM   27  O   UNL     1      -5.138   5.953  69.650  1.00  0.00    -0.004 OA 
HETATM   28  H   UNL     1      -6.908   7.350  72.242  1.00  0.00     0.000 HD 
ENDROOT
BRANCH   8  29
HETATM   29  N   UNL     1      -9.390  13.361  64.427  1.00  0.00     0.575 N  
HETATM   30  H   UNL     1      -8.481  13.817  64.511  1.00  0.00     0.000 HD 
HETATM   31  C   UNL     1     -10.323  13.929  63.581  1.00  0.00     2.129 C  
HETATM   32  O   UNL     1     -11.452  13.495  63.363  1.00  0.00    -0.086 OA 
BRANCH  31  33
HETATM   33  C   UNL     1      -9.821  15.228  62.938  1.00  0.00    13.348 C  
BRANCH  33  34
HETATM   34  N   UNL     1      -9.378  16.141  64.002  1.00  0.00     4.693 NA 
HETATM   35  C   UNL     1     -11.687  16.640  64.823  1.00  0.00     0.610 C  
HETATM   36  C   UNL     1      -9.646  17.307  66.096  1.00  0.00    -0.224 C  
HETATM   37  C   UNL     1     -10.270  14.894  65.958  1.00  0.00    -0.317 C  
HETATM   38  H   UNL     1      -9.226  17.074  63.618  1.00  0.00     0.000 HD 
HETATM   39  C   UNL     1     -10.252  16.221  65.185  1.00  0.00    -0.005 C  
ENDBRANCH  33  34
ENDBRANCH  31  33
ENDBRANCH   8  29
BRANCH  15  40
HETATM   40  N   UNL     1     -12.212   9.569  65.589  1.00  0.00     7.627 NA 
HETATM   41  C   UNL     1     -13.131   9.307  66.698  1.00  0.00    17.068 C  
HETATM   42  C   UNL     1     -12.552   8.856  64.358  1.00  0.00    19.277 C  
ENDBRANCH  15  40
BRANCH  26  43
HETATM   43  C   UNL     1      -6.361   5.164  72.833  1.00  0.00    -0.047 C  
HETATM   44  N   UNL     1      -7.145   6.107  73.398  1.00  0.00    -0.083 N  
HETATM   45  H2  UNL     1      -7.768   6.682  72.832  1.00  0.00     0.000 HD 
HETATM   46  H1  UNL     1      -7.091   6.224  74.410  1.00  0.00     0.000 HD 
HETATM   47  O   UNL     1      -5.583   4.529  73.548  1.00  0.00    -0.008 OA 
ENDBRANCH  26  43
BRANCH  20  48
HETATM   48  N   UNL     1     -10.074   5.022  71.257  1.00  0.00    -0.199 NA 
HETATM   49  C   UNL     1     -10.154   3.802  72.060  1.00  0.00    -0.139 C  
HETATM   50  C   UNL     1     -11.220   5.108  70.357  1.00  0.00     0.903 C  
ENDBRANCH  20  48
TORSDOF 6
ENDMDL
MODEL       72
REMARK 921   NORMALIZED FREE ENERGY PREDICTED BY IDOCK:   56.92 KCAL/MOL
REMARK 922        TOTAL FREE ENERGY PREDICTED BY IDOCK:   76.51 KCAL/MOL
REMARK 923 INTER-LIGAND FREE ENERGY PREDICTED BY IDOCK:   74.65 KCAL/MOL
REMARK 924 INTRA-LIGAND FREE ENERGY PREDICTED BY IDOCK:    1.86 KCAL/MOL
REMARK 927      BINDING AFFINITY PREDICTED BY RF-SCORE:    0.00 PKD
ROOT
HETATM    1  C   UNL     1     -10.608  10.963  69.561  1.00  0.00    -0.217 C  
HETATM    2  C   UNL     1      -9.949  11.784  68.465  1.00  0.00    -0.203 C  
HETATM    3  C   UNL     1     -10.107  13.265  68.549  1.00  0.00    -0.208 A  
HETATM    4  C   UNL     1     -10.385  13.834  69.819  1.00  0.00     0.656 A  
HETATM    5  C   UNL     1     -10.450  12.996  71.059  1.00  0.00     5.402 C  
HETATM    6  C   UNL     1     -10.575  15.217  69.923  1.00  0.00    -0.235 A  
HETATM    7  O   UNL     1     -10.878  15.854  71.100  1.00  0.00    -0.153 OA 
HETATM    8  C   UNL     1     -10.519  16.007  68.777  1.00  0.00    -0.248 A  
HETATM    9  C   UNL     1     -10.424  11.505  70.936  1.00  0.00     3.609 C  
HETATM   10  O   UNL     1     -10.548  13.529  72.168  1.00  0.00     5.650 OA 
HETATM   11  C   UNL     1     -10.347  10.681  72.011  1.00  0.00     6.038 C  
HETATM   12  H   UNL     1     -11.006  16.793  71.171  1.00  0.00     0.000 HD 
HETATM   13  C   UNL     1     -10.201  15.446  67.536  1.00  0.00    -0.244 A  
HETATM   14  C   UNL     1      -9.949   9.608  69.459  1.00  0.00    -0.223 C  
HETATM   15  C   UNL     1      -9.952  14.064  67.379  1.00  0.00    -0.243 A  
HETATM   16  C   UNL     1     -10.457   9.141  71.918  1.00  0.00    -0.210 C  
HETATM   17  C   UNL     1     -10.460   8.580  70.467  1.00  0.00    -0.230 C  
HETATM   18  H   UNL     1      -7.509   5.782  70.301  1.00  0.00     0.000 HD 
HETATM   19  O   UNL     1     -10.368  11.175  73.310  1.00  0.00    12.531 OA 
HETATM   20  C   UNL     1      -9.554   7.328  70.167  1.00  0.00    -0.168 C  
HETATM   21  H   UNL     1     -10.314  10.598  74.063  1.00  0.00     0.000 HD 
HETATM   22  C   UNL     1      -9.487   8.305  72.790  1.00  0.00    -0.273 C  
HETATM   23  O   UNL     1     -11.748   8.868  72.521  1.00  0.00    -0.276 OA 
HETATM   24  O   UNL     1      -7.799   6.001  71.178  1.00  0.00    -0.106 OA 
HETATM   25  C   UNL     1      -9.094   6.508  71.349  1.00  0.00    -0.148 C  
HETATM   26  C   UNL     1      -9.505   6.818  72.589  1.00  0.00    -0.152 C  
HETATM   27  O   UNL     1      -8.686   8.772  73.597  1.00  0.00    -0.215 OA 
HETATM   28  H   UNL     1     -11.816   7.922  72.464  1.00  0.00     0.000 HD 
ENDROOT
BRANCH   8  29
HETATM   29  N   UNL     1     -10.721  17.392  68.930  1.00  0.00    -0.319 N  
HETATM   30  H   UNL     1     -11.677  17.743  68.879  1.00  0.00     0.000 HD 
HETATM   31  C   UNL     1      -9.706  18.304  69.146  1.00  0.00    -0.104 C  
HETATM   32  O   UNL     1      -8.511  18.038  69.246  1.00  0.00     0.050 OA 
BRANCH  31  33
HETATM   33  C   UNL     1     -10.218  19.748  69.216  1.00  0.00    -0.132 C  
BRANCH  33  34
HETATM   34  N   UNL     1     -11.547  19.749  69.846  1.00  0.00     3.776 NA 
HETATM   35  C   UNL     1     -12.662  20.982  67.978  1.00  0.00     7.047 C  
HETATM   36  C   UNL     1     -13.955  19.878  69.805  1.00  0.00    18.751 C  
HETATM   37  C   UNL     1     -12.782  18.470  68.110  1.00  0.00     6.871 C  
HETATM   38  H   UNL     1     -11.618  20.523  70.506  1.00  0.00     0.000 HD 
HETATM   39  C   UNL     1     -12.695  19.770  68.923  1.00  0.00     9.243 C  
ENDBRANCH  33  34
ENDBRANCH  31  33
ENDBRANCH   8  29
BRANCH  15  40
HETATM   40  N   UNL     1      -9.541  13.586  66.135  1.00  0.00    -0.245 NA 
HETATM   41  C   UNL     1      -9.723  14.400  64.931  1.00  0.00     0.313 C  
HETATM   42  C   UNL     1      -9.103  12.217  65.862  1.00  0.00     0.050 C  
ENDBRANCH  15  40
BRANCH  26  43
HETATM   43  C   UNL     1     -10.668   5.957  72.965  1.00  0.00    -0.256 C  
HETATM   44  N   UNL     1     -10.485   5.050  73.948  1.00  0.00    -0.247 N  
HETATM   45  H2  UNL     1      -9.585   4.955  74.417  1.00  0.00     0.000 HD 
HETATM   46  H1  UNL     1     -11.279   4.462  74.204  1.00  0.00     0.000 HD 
HETATM   47  O   UNL     1     -11.756   6.001  72.389  1.00  0.00    -0.309 OA 
ENDBRANCH  26  43
BRANCH  20  48
HETATM   48  N   UNL     1     -10.145   6.607  69.016  1.00  0.00    -0.156 NA 
HETATM   49  C   UNL     1      -9.350   6.645  67.789  1.00  0.00    -0.119 C  
HETATM   50  C   UNL     1     -11.523   7.002  68.735  1.00  0.00     0.298 C  
ENDBRANCH  20  48
TORSDOF 6
ENDMDL
MODEL       73
REMARK 921   NORMALIZED FREE ENERGY PREDICTED BY IDOCK:   61.36 KCAL/MOL
REMARK 922        TOTAL FREE ENERGY PREDICTED BY IDOCK:   82.51 KCAL/MOL
REMARK 923 INTER-LIGAND FREE ENERGY PREDICTED BY IDOCK:   82.05 KCAL/MOL
REMARK 924 INTRA-LIGAND FREE ENERGY PREDICTED BY IDOCK:    0.46 KCAL/MOL
REMARK 927      BINDING AFFINITY PREDICTED BY RF-SCORE:    0.00 PKD
ROOT
HETATM    1  C   UNL     1      -9.801   9.724  64.740  1.00  0.00    -0.123 C  
HETATM    2  C   UNL     1     -10.526  10.819  63.975  1.00  0.00    -0.287 C  
HETATM    3  C   UNL     1      -9.928  12.184  64.029  1.00  0.00    -0.301 A  
HETATM    4  C   UNL     1      -8.544  12.294  64.322  1.00  0.00     1.988 A  
HETATM    5  C   UNL     1      -7.681  11.084  64.503  1.00  0.00     0.580 C  
HETATM    6  C   UNL     1      -7.963  13.564  64.416  1.00  0.00    10.248 A  
HETATM    7  O   UNL     1      -6.642  13.771  64.725  1.00  0.00    12.989 OA 
HETATM    8  C   UNL     1      -8.755  14.698  64.252  1.00  0.00     7.912 A  
HETATM    9  C   UNL     1      -8.320   9.734  64.579  1.00  0.00    -0.168 C  
HETATM   10  O   UNL     1      -6.456  11.201  64.611  1.00  0.00     0.505 OA 
HETATM   11  C   UNL     1      -7.603   8.582  64.610  1.00  0.00    -0.102 C  
HETATM   12  H   UNL     1      -6.247  14.634  64.788  1.00  0.00     0.000 HD 
HETATM   13  C   UNL     1     -10.109  14.582  63.921  1.00  0.00     2.810 A  
HETATM   14  C   UNL     1     -10.363   8.441  64.177  1.00  0.00     6.358 C  
HETATM   15  C   UNL     1     -10.739  13.326  63.765  1.00  0.00     0.066 A  
HETATM   16  C   UNL     1      -8.235   7.187  64.827  1.00  0.00    -0.050 C  
HETATM   17  C   UNL     1      -9.790   7.171  64.806  1.00  0.00     2.994 C  
HETATM   18  H   UNL     1     -10.883   4.373  62.060  1.00  0.00     0.000 HD 
HETATM   19  O   UNL     1      -6.214   8.590  64.653  1.00  0.00    -0.064 OA 
HETATM   20  C   UNL     1     -10.497   6.032  63.980  1.00  0.00     4.864 C  
HETATM   21  H   UNL     1      -5.712   7.784  64.674  1.00  0.00     0.000 HD 
HETATM   22  C   UNL     1      -7.698   6.020  63.959  1.00  0.00    -0.105 C  
HETATM   23  O   UNL     1      -7.788   6.829  66.160  1.00  0.00    -0.096 OA 
HETATM   24  O   UNL     1      -9.990   4.295  62.372  1.00  0.00    -0.152 OA 
HETATM   25  C   UNL     1      -9.672   4.815  63.633  1.00  0.00     0.328 C  
HETATM   26  C   UNL     1      -8.409   4.705  64.076  1.00  0.00    -0.120 C  
HETATM   27  O   UNL     1      -6.764   6.107  63.164  1.00  0.00    -0.038 OA 
HETATM   28  H   UNL     1      -8.176   5.972  66.293  1.00  0.00     0.000 HD 
ENDROOT
BRANCH   8  29
HETATM   29  N   UNL     1      -8.128  15.953  64.360  1.00  0.00     8.614 N  
HETATM   30  H   UNL     1      -7.503  16.241  63.608  1.00  0.00     0.000 HD 
HETATM   31  C   UNL     1      -8.305  16.819  65.422  1.00  0.00     1.639 C  
HETATM   32  O   UNL     1      -9.032  16.624  66.394  1.00  0.00    -0.248 OA 
BRANCH  31  33
HETATM   33  C   UNL     1      -7.450  18.086  65.297  1.00  0.00     1.026 C  
BRANCH  33  34
HETATM   34  N   UNL     1      -7.933  19.079  66.269  1.00  0.00    -0.298 NA 
HETATM   35  C   UNL     1      -6.188  18.557  67.983  1.00  0.00    -0.193 C  
HETATM   36  C   UNL     1      -7.668  20.560  68.153  1.00  0.00    -0.014 C  
HETATM   37  C   UNL     1      -5.893  20.493  66.398  1.00  0.00    -0.216 C  
HETATM   38  H   UNL     1      -8.700  18.686  66.814  1.00  0.00     0.000 HD 
HETATM   39  C   UNL     1      -6.913  19.642  67.170  1.00  0.00    -0.206 C  
ENDBRANCH  33  34
ENDBRANCH  31  33
ENDBRANCH   8  29
BRANCH  15  40
HETATM   40  N   UNL     1     -12.065  13.281  63.335  1.00  0.00    -0.621 NA 
HETATM   41  C   UNL     1     -13.075  14.141  63.956  1.00  0.00     1.181 C  
HETATM   42  C   UNL     1     -12.620  12.284  62.420  1.00  0.00     2.274 C  
ENDBRANCH  15  40
BRANCH  26  43
HETATM   43  C   UNL     1      -8.380   3.867  65.313  1.00  0.00    -0.105 C  
HETATM   44  N   UNL     1      -8.516   2.532  65.171  1.00  0.00    -0.095 N  
HETATM   45  H2  UNL     1      -8.635   2.110  64.250  1.00  0.00     0.000 HD 
HETATM   46  H1  UNL     1      -8.497   1.960  66.016  1.00  0.00     0.000 HD 
HETATM   47  O   UNL     1      -8.293   4.340  66.449  1.00  0.00    -0.105 OA 
ENDBRANCH  26  43
BRANCH  20  48
HETATM   48  N   UNL     1     -11.838   5.811  64.570  1.00  0.00     5.074 NA 
HETATM   49  C   UNL     1     -12.431   6.985  65.209  1.00  0.00    11.971 C  
HETATM   50  C   UNL     1     -11.887   4.667  65.476  1.00  0.00     2.335 C  
ENDBRANCH  20  48
TORSDOF 6
ENDMDL
MODEL       74
REMARK 921   NORMALIZED FREE ENERGY PREDICTED BY IDOCK:   70.75 KCAL/MOL
REMARK 922        TOTAL FREE ENERGY PREDICTED BY IDOCK:   95.18 KCAL/MOL
REMARK 923 INTER-LIGAND FREE ENERGY PREDICTED BY IDOCK:   89.74 KCAL/MOL
REMARK 924 INTRA-LIGAND FREE ENERGY PREDICTED BY IDOCK:    5.44 KCAL/MOL
REMARK 927      BINDING AFFINITY PREDICTED BY RF-SCORE:    0.00 PKD
ROOT
HETATM    1  C   UNL     1      -9.501  14.846  70.113  1.00  0.00     0.517 C  
HETATM    2  C   UNL     1      -8.216  14.064  69.892  1.00  0.00     1.227 C  
HETATM    3  C   UNL     1      -8.351  12.710  69.281  1.00  0.00     0.821 A  
HETATM    4  C   UNL     1      -9.509  12.442  68.507  1.00  0.00    -0.101 A  
HETATM    5  C   UNL     1     -10.540  13.496  68.242  1.00  0.00    -0.250 C  
HETATM    6  C   UNL     1      -9.682  11.169  67.951  1.00  0.00    -0.174 A  
HETATM    7  O   UNL     1     -10.782  10.806  67.215  1.00  0.00    -0.240 OA 
HETATM    8  C   UNL     1      -8.732  10.179  68.191  1.00  0.00    -0.122 A  
HETATM    9  C   UNL     1     -10.456  14.800  68.971  1.00  0.00    -0.249 C  
HETATM   10  O   UNL     1     -11.461  13.283  67.448  1.00  0.00    -0.297 OA 
HETATM   11  C   UNL     1     -11.269  15.850  68.693  1.00  0.00    -0.360 C  
HETATM   12  H   UNL     1     -10.898   9.942  66.837  1.00  0.00     0.000 HD 
HETATM   13  C   UNL     1      -7.572  10.462  68.919  1.00  0.00    -0.103 A  
HETATM   14  C   UNL     1      -9.039  16.268  70.329  1.00  0.00     1.533 C  
HETATM   15  C   UNL     1      -7.320  11.742  69.462  1.00  0.00     0.238 A  
HETATM   16  C   UNL     1     -11.294  17.156  69.523  1.00  0.00     0.808 C  
HETATM   17  C   UNL     1     -10.167  17.265  70.590  1.00  0.00     1.841 C  
HETATM   18  H   UNL     1      -8.265  20.798  69.908  1.00  0.00     0.000 HD 
HETATM   19  O   UNL     1     -12.293  15.751  67.758  1.00  0.00     0.072 OA 
HETATM   20  C   UNL     1      -9.395  18.633  70.698  1.00  0.00     3.291 C  
HETATM   21  H   UNL     1     -12.862  16.487  67.563  1.00  0.00     0.000 HD 
HETATM   22  C   UNL     1     -11.395  18.491  68.744  1.00  0.00     1.939 C  
HETATM   23  O   UNL     1     -12.571  17.085  70.207  1.00  0.00     2.095 OA 
HETATM   24  O   UNL     1      -9.130  20.731  69.521  1.00  0.00     1.347 OA 
HETATM   25  C   UNL     1     -10.055  19.849  70.093  1.00  0.00     0.652 C  
HETATM   26  C   UNL     1     -11.277  19.754  69.545  1.00  0.00     2.565 C  
HETATM   27  O   UNL     1     -11.524  18.587  67.525  1.00  0.00     0.286 OA 
HETATM   28  H   UNL     1     -12.587  17.886  70.716  1.00  0.00     0.000 HD 
ENDROOT
BRANCH   8  29
HETATM   29  N   UNL     1      -8.950   8.913  67.616  1.00  0.00    -0.134 N  
HETATM   30  H   UNL     1      -9.913   8.587  67.529  1.00  0.00     0.000 HD 
HETATM   31  C   UNL     1      -7.943   8.084  67.162  1.00  0.00    -0.113 C  
HETATM   32  O   UNL     1      -6.740   8.336  67.184  1.00  0.00    -0.060 OA 
BRANCH  31  33
HETATM   33  C   UNL     1      -8.475   6.744  66.638  1.00  0.00    -0.120 C  
BRANCH  33  34
HETATM   34  N   UNL     1      -8.419   6.755  65.169  1.00  0.00    -0.310 NA 
HETATM   35  C   UNL     1      -9.388   9.049  64.942  1.00  0.00     0.047 C  
HETATM   36  C   UNL     1      -8.342   7.847  63.021  1.00  0.00     0.026 C  
HETATM   37  C   UNL     1      -6.895   8.695  64.870  1.00  0.00    -0.072 C  
HETATM   38  H   UNL     1      -9.239   6.284  64.787  1.00  0.00     0.000 HD 
HETATM   39  C   UNL     1      -8.264   8.079  64.543  1.00  0.00    -0.094 C  
ENDBRANCH  33  34
ENDBRANCH  31  33
ENDBRANCH   8  29
BRANCH  15  40
HETATM   40  N   UNL     1      -6.099  11.986  70.090  1.00  0.00    -0.155 NA 
HETATM   41  C   UNL     1      -5.532  11.002  71.015  1.00  0.00    -0.075 C  
HETATM   42  C   UNL     1      -5.381  13.260  70.070  1.00  0.00    -0.098 C  
ENDBRANCH  15  40
BRANCH  26  43
HETATM   43  C   UNL     1     -12.308  20.192  70.535  1.00  0.00    13.071 C  
HETATM   44  N   UNL     1     -13.567  19.732  70.374  1.00  0.00    20.321 N  
HETATM   45  H2  UNL     1     -13.806  19.107  69.604  1.00  0.00     0.000 HD 
HETATM   46  H1  UNL     1     -14.271  20.032  71.050  1.00  0.00     0.000 HD 
HETATM   47  O   UNL     1     -12.076  20.988  71.447  1.00  0.00    11.011 OA 
ENDBRANCH  26  43
BRANCH  20  48
HETATM   48  N   UNL     1      -8.871  18.748  72.079  1.00  0.00     8.678 NA 
HETATM   49  C   UNL     1      -8.338  17.508  72.642  1.00  0.00    16.428 C  
HETATM   50  C   UNL     1      -9.822  19.353  73.008  1.00  0.00     4.053 C  
ENDBRANCH  20  48
TORSDOF 6
ENDMDL
