MODEL        1
REMARK 921   NORMALIZED FREE ENERGY PREDICTED BY IDOCK:   -5.60 KCAL/MOL
REMARK 922        TOTAL FREE ENERGY PREDICTED BY IDOCK:   -7.35 KCAL/MOL
REMARK 923 INTER-LIGAND FREE ENERGY PREDICTED BY IDOCK:   -6.91 KCAL/MOL
REMARK 924 INTRA-LIGAND FREE ENERGY PREDICTED BY IDOCK:   -0.44 KCAL/MOL
REMARK 927      BINDING AFFINITY PREDICTED BY RF-SCORE:    0.00 PKD
ROOT
HETATM    1  C   UNK     1      -8.496   9.341  62.504  1.00  0.00    -0.203 C  
HETATM    2  N   UNK     1      -9.835   9.886  62.520  1.00  0.00    -0.607 NA 
HETATM    3  H   UNK     1     -10.589   9.320  62.132  1.00  0.00     0.000 HD 
HETATM    4  C   UNK     1     -10.146  11.107  63.022  1.00  0.00    -0.268 C  
HETATM    5  N   UNK     1     -11.492  11.275  63.088  1.00  0.00    -0.831 NA 
HETATM    6  N   UNK     1      -9.313  12.016  63.383  1.00  0.00    -0.650 NA 
HETATM    7  H   UNK     1     -12.118  10.485  62.933  1.00  0.00     0.000 HD 
HETATM    8  H2  UNK     1      -8.322  11.799  63.283  1.00  0.00     0.000 HD 
HETATM    9  H1  UNK     1      -9.547  12.935  63.760  1.00  0.00     0.000 HD 
ENDROOT
BRANCH   5  10
HETATM   10  C   UNK     1     -12.036  12.597  63.385  1.00  0.00    -0.528 C  
BRANCH  10  11
HETATM   11  C   UNK     1     -12.439  12.669  64.855  1.00  0.00    -0.564 C  
BRANCH  11  12
HETATM   12  C   UNK     1     -12.096  14.035  65.469  1.00  0.00    -0.423 C  
BRANCH  12  13
HETATM   13  C   UNK     1     -10.768  14.625  64.977  1.00  0.00    -0.430 C  
HETATM   14  C   UNK     1     -10.817  16.161  65.029  1.00  0.00    -0.363 C  
HETATM   15  N   UNK     1      -9.624  14.155  65.805  1.00  0.00    -0.520 NA 
HETATM   16  O   UNK     1     -11.371  16.877  64.214  1.00  0.00    -1.202 OA 
HETATM   17  O   UNK     1     -10.190  16.630  66.142  1.00  0.00    -0.320 OA 
HETATM   18  H1  UNK     1      -8.741  14.547  65.477  1.00  0.00     0.000 HD 
HETATM   19  H2  UNK     1      -9.587  13.137  65.848  1.00  0.00     0.000 HD 
ENDBRANCH  12  13
ENDBRANCH  11  12
ENDBRANCH  10  11
ENDBRANCH   5  10
TORSDOF 4
ENDMDL
MODEL        2
REMARK 921   NORMALIZED FREE ENERGY PREDICTED BY IDOCK:   -5.41 KCAL/MOL
REMARK 922        TOTAL FREE ENERGY PREDICTED BY IDOCK:   -7.12 KCAL/MOL
REMARK 923 INTER-LIGAND FREE ENERGY PREDICTED BY IDOCK:   -6.96 KCAL/MOL
REMARK 924 INTRA-LIGAND FREE ENERGY PREDICTED BY IDOCK:   -0.16 KCAL/MOL
REMARK 927      BINDING AFFINITY PREDICTED BY RF-SCORE:    0.00 PKD
ROOT
HETATM    1  C   UNK     1     -13.804  15.351  71.946  1.00  0.00    -0.517 C  
HETATM    2  N   UNK     1     -13.430  15.400  70.551  1.00  0.00    -0.793 NA 
HETATM    3  H   UNK     1     -13.951  16.025  69.936  1.00  0.00     0.000 HD 
HETATM    4  C   UNK     1     -12.428  14.662  70.011  1.00  0.00    -0.284 C  
HETATM    5  N   UNK     1     -12.170  15.053  68.736  1.00  0.00    -0.597 NA 
HETATM    6  N   UNK     1     -11.793  13.705  70.587  1.00  0.00    -0.522 NA 
HETATM    7  H   UNK     1     -12.589  15.905  68.364  1.00  0.00     0.000 HD 
HETATM    8  H2  UNK     1     -12.069  13.479  71.543  1.00  0.00     0.000 HD 
HETATM    9  H1  UNK     1     -11.039  13.150  70.182  1.00  0.00     0.000 HD 
ENDROOT
BRANCH   5  10
HETATM   10  C   UNK     1     -11.288  14.243  67.903  1.00  0.00    -0.297 C  
BRANCH  10  11
HETATM   11  C   UNK     1     -12.067  13.690  66.713  1.00  0.00    -0.445 C  
BRANCH  11  12
HETATM   12  C   UNK     1     -11.313  12.541  66.028  1.00  0.00    -0.386 C  
BRANCH  12  13
HETATM   13  C   UNK     1     -10.980  12.805  64.553  1.00  0.00    -0.341 C  
HETATM   14  C   UNK     1     -12.274  12.922  63.730  1.00  0.00    -0.476 C  
HETATM   15  N   UNK     1     -10.194  14.058  64.388  1.00  0.00    -0.711 NA 
HETATM   16  O   UNK     1     -12.955  11.987  63.349  1.00  0.00    -0.772 OA 
HETATM   17  O   UNK     1     -12.594  14.227  63.510  1.00  0.00    -0.814 OA 
HETATM   18  H1  UNK     1      -9.973  14.234  63.408  1.00  0.00     0.000 HD 
HETATM   19  H2  UNK     1      -9.353  14.050  64.965  1.00  0.00     0.000 HD 
ENDBRANCH  12  13
ENDBRANCH  11  12
ENDBRANCH  10  11
ENDBRANCH   5  10
TORSDOF 4
ENDMDL
MODEL        3
REMARK 921   NORMALIZED FREE ENERGY PREDICTED BY IDOCK:   -5.19 KCAL/MOL
REMARK 922        TOTAL FREE ENERGY PREDICTED BY IDOCK:   -6.84 KCAL/MOL
REMARK 923 INTER-LIGAND FREE ENERGY PREDICTED BY IDOCK:   -6.68 KCAL/MOL
REMARK 924 INTRA-LIGAND FREE ENERGY PREDICTED BY IDOCK:   -0.16 KCAL/MOL
REMARK 927      BINDING AFFINITY PREDICTED BY RF-SCORE:    0.00 PKD
ROOT
HETATM    1  C   UNK     1     -14.087  15.363  72.109  1.00  0.00    -0.553 C  
HETATM    2  N   UNK     1     -13.714  15.173  70.726  1.00  0.00    -0.717 NA 
HETATM    3  H   UNK     1     -14.432  15.301  70.013  1.00  0.00     0.000 HD 
HETATM    4  C   UNK     1     -12.465  14.833  70.321  1.00  0.00    -0.340 C  
HETATM    5  N   UNK     1     -12.353  14.917  68.970  1.00  0.00    -0.589 NA 
HETATM    6  N   UNK     1     -11.495  14.462  71.077  1.00  0.00    -0.517 NA 
HETATM    7  H   UNK     1     -13.093  15.352  68.419  1.00  0.00     0.000 HD 
HETATM    8  H2  UNK     1     -11.681  14.419  72.079  1.00  0.00     0.000 HD 
HETATM    9  H1  UNK     1     -10.555  14.206  70.773  1.00  0.00     0.000 HD 
ENDROOT
BRANCH   5  10
HETATM   10  C   UNK     1     -11.166  14.379  68.315  1.00  0.00    -0.275 C  
BRANCH  10  11
HETATM   11  C   UNK     1     -11.578  13.346  67.270  1.00  0.00    -0.400 C  
BRANCH  11  12
HETATM   12  C   UNK     1     -12.269  14.003  66.066  1.00  0.00    -0.484 C  
BRANCH  12  13
HETATM   13  C   UNK     1     -11.327  14.305  64.894  1.00  0.00    -0.372 C  
HETATM   14  C   UNK     1     -11.396  15.797  64.527  1.00  0.00    -0.316 C  
HETATM   15  N   UNK     1      -9.917  13.959  65.224  1.00  0.00    -0.551 NA 
HETATM   16  O   UNK     1     -12.281  16.324  63.876  1.00  0.00    -0.945 OA 
HETATM   17  O   UNK     1     -10.348  16.479  65.065  1.00  0.00    -0.622 OA 
HETATM   18  H1  UNK     1      -9.291  14.160  64.445  1.00  0.00     0.000 HD 
HETATM   19  H2  UNK     1      -9.833  12.991  65.532  1.00  0.00     0.000 HD 
ENDBRANCH  12  13
ENDBRANCH  11  12
ENDBRANCH  10  11
ENDBRANCH   5  10
TORSDOF 4
ENDMDL
MODEL        4
REMARK 921   NORMALIZED FREE ENERGY PREDICTED BY IDOCK:   -5.17 KCAL/MOL
REMARK 922        TOTAL FREE ENERGY PREDICTED BY IDOCK:   -6.82 KCAL/MOL
REMARK 923 INTER-LIGAND FREE ENERGY PREDICTED BY IDOCK:   -6.57 KCAL/MOL
REMARK 924 INTRA-LIGAND FREE ENERGY PREDICTED BY IDOCK:   -0.25 KCAL/MOL
REMARK 927      BINDING AFFINITY PREDICTED BY RF-SCORE:    0.00 PKD
ROOT
HETATM    1  C   UNK     1     -14.359  14.856  71.710  1.00  0.00    -0.578 C  
HETATM    2  N   UNK     1     -13.633  15.013  70.470  1.00  0.00    -0.641 NA 
HETATM    3  H   UNK     1     -14.015  15.645  69.767  1.00  0.00     0.000 HD 
HETATM    4  C   UNK     1     -12.474  14.368  70.188  1.00  0.00    -0.339 C  
HETATM    5  N   UNK     1     -11.915  14.852  69.048  1.00  0.00    -0.476 NA 
HETATM    6  N   UNK     1     -11.948  13.415  70.869  1.00  0.00    -0.480 NA 
HETATM    7  H   UNK     1     -12.280  15.701  68.616  1.00  0.00     0.000 HD 
HETATM    8  H2  UNK     1     -12.451  13.113  71.704  1.00  0.00     0.000 HD 
HETATM    9  H1  UNK     1     -11.076  12.930  70.657  1.00  0.00     0.000 HD 
ENDROOT
BRANCH   5  10
HETATM   10  C   UNK     1     -10.788  14.147  68.447  1.00  0.00    -0.254 C  
BRANCH  10  11
HETATM   11  C   UNK     1     -10.122  15.037  67.402  1.00  0.00    -0.228 C  
BRANCH  11  12
HETATM   12  C   UNK     1     -11.146  15.608  66.410  1.00  0.00    -0.123 C  
BRANCH  12  13
HETATM   13  C   UNK     1     -10.813  15.328  64.939  1.00  0.00    -0.425 C  
HETATM   14  C   UNK     1     -11.467  14.010  64.487  1.00  0.00    -0.370 C  
HETATM   15  N   UNK     1     -11.292  16.425  64.054  1.00  0.00    -1.539 NA 
HETATM   16  O   UNK     1     -11.046  12.894  64.735  1.00  0.00    -0.289 OA 
HETATM   17  O   UNK     1     -12.617  14.248  63.800  1.00  0.00    -0.821 OA 
HETATM   18  H1  UNK     1     -11.071  16.239  63.076  1.00  0.00     0.000 HD 
HETATM   19  H2  UNK     1     -10.930  17.331  64.353  1.00  0.00     0.000 HD 
ENDBRANCH  12  13
ENDBRANCH  11  12
ENDBRANCH  10  11
ENDBRANCH   5  10
TORSDOF 4
ENDMDL
MODEL        5
REMARK 921   NORMALIZED FREE ENERGY PREDICTED BY IDOCK:   -5.09 KCAL/MOL
REMARK 922        TOTAL FREE ENERGY PREDICTED BY IDOCK:   -6.72 KCAL/MOL
REMARK 923 INTER-LIGAND FREE ENERGY PREDICTED BY IDOCK:   -6.63 KCAL/MOL
REMARK 924 INTRA-LIGAND FREE ENERGY PREDICTED BY IDOCK:   -0.10 KCAL/MOL
REMARK 927      BINDING AFFINITY PREDICTED BY RF-SCORE:    0.00 PKD
ROOT
HETATM    1  C   UNK     1     -14.356  15.118  72.003  1.00  0.00    -0.586 C  
HETATM    2  N   UNK     1     -13.874  15.378  70.665  1.00  0.00    -0.837 NA 
HETATM    3  H   UNK     1     -14.503  15.840  70.009  1.00  0.00     0.000 HD 
HETATM    4  C   UNK     1     -12.633  15.042  70.232  1.00  0.00    -0.317 C  
HETATM    5  N   UNK     1     -12.384  15.579  69.010  1.00  0.00    -0.611 NA 
HETATM    6  N   UNK     1     -11.783  14.307  70.854  1.00  0.00    -0.496 NA 
HETATM    7  H   UNK     1     -13.019  16.273  68.613  1.00  0.00     0.000 HD 
HETATM    8  H2  UNK     1     -12.069  13.940  71.762  1.00  0.00     0.000 HD 
HETATM    9  H1  UNK     1     -10.850  14.054  70.529  1.00  0.00     0.000 HD 
ENDROOT
BRANCH   5  10
HETATM   10  C   UNK     1     -11.201  15.156  68.269  1.00  0.00    -0.308 C  
BRANCH  10  11
HETATM   11  C   UNK     1     -11.615  14.260  67.105  1.00  0.00    -0.402 C  
BRANCH  11  12
HETATM   12  C   UNK     1     -10.695  14.449  65.890  1.00  0.00    -0.308 C  
BRANCH  12  13
HETATM   13  C   UNK     1     -11.297  13.953  64.568  1.00  0.00    -0.372 C  
HETATM   14  C   UNK     1     -11.834  12.521  64.733  1.00  0.00    -0.383 C  
HETATM   15  N   UNK     1     -12.410  14.831  64.114  1.00  0.00    -0.925 NA 
HETATM   16  O   UNK     1     -11.155  11.510  64.736  1.00  0.00    -0.296 OA 
HETATM   17  O   UNK     1     -13.182  12.526  64.920  1.00  0.00    -0.787 OA 
HETATM   18  H1  UNK     1     -12.810  14.502  63.236  1.00  0.00     0.000 HD 
HETATM   19  H2  UNK     1     -12.114  15.805  64.048  1.00  0.00     0.000 HD 
ENDBRANCH  12  13
ENDBRANCH  11  12
ENDBRANCH  10  11
ENDBRANCH   5  10
TORSDOF 4
ENDMDL
MODEL        6
REMARK 921   NORMALIZED FREE ENERGY PREDICTED BY IDOCK:   -5.09 KCAL/MOL
REMARK 922        TOTAL FREE ENERGY PREDICTED BY IDOCK:   -6.71 KCAL/MOL
REMARK 923 INTER-LIGAND FREE ENERGY PREDICTED BY IDOCK:   -6.46 KCAL/MOL
REMARK 924 INTRA-LIGAND FREE ENERGY PREDICTED BY IDOCK:   -0.25 KCAL/MOL
REMARK 927      BINDING AFFINITY PREDICTED BY RF-SCORE:    0.00 PKD
ROOT
HETATM    1  C   UNK     1     -12.579  10.687  70.735  1.00  0.00    -0.386 C  
HETATM    2  N   UNK     1     -12.430  10.690  69.297  1.00  0.00    -0.711 NA 
HETATM    3  H   UNK     1     -12.917   9.971  68.763  1.00  0.00     0.000 HD 
HETATM    4  C   UNK     1     -11.680  11.593  68.618  1.00  0.00    -0.325 C  
HETATM    5  N   UNK     1     -11.880  11.481  67.279  1.00  0.00    -0.604 NA 
HETATM    6  N   UNK     1     -10.868  12.447  69.130  1.00  0.00    -0.423 NA 
HETATM    7  H   UNK     1     -12.636  10.897  66.919  1.00  0.00     0.000 HD 
HETATM    8  H2  UNK     1     -10.778  12.445  70.146  1.00  0.00     0.000 HD 
HETATM    9  H1  UNK     1     -10.304  13.126  68.620  1.00  0.00     0.000 HD 
ENDROOT
BRANCH   5  10
HETATM   10  C   UNK     1     -11.006  12.203  66.361  1.00  0.00    -0.288 C  
BRANCH  10  11
HETATM   11  C   UNK     1     -11.825  12.756  65.198  1.00  0.00    -0.428 C  
BRANCH  11  12
HETATM   12  C   UNK     1     -11.092  13.903  64.486  1.00  0.00    -0.374 C  
BRANCH  12  13
HETATM   13  C   UNK     1     -11.544  15.301  64.927  1.00  0.00    -0.289 C  
HETATM   14  C   UNK     1     -10.609  15.841  66.023  1.00  0.00    -0.326 C  
HETATM   15  N   UNK     1     -11.545  16.258  63.787  1.00  0.00    -1.482 NA 
HETATM   16  O   UNK     1     -10.643  15.523  67.198  1.00  0.00    -0.289 OA 
HETATM   17  O   UNK     1      -9.695  16.703  65.500  1.00  0.00    -0.538 OA 
HETATM   18  H1  UNK     1     -11.846  17.188  64.080  1.00  0.00     0.000 HD 
HETATM   19  H2  UNK     1     -12.107  15.912  63.009  1.00  0.00     0.000 HD 
ENDBRANCH  12  13
ENDBRANCH  11  12
ENDBRANCH  10  11
ENDBRANCH   5  10
TORSDOF 4
ENDMDL
MODEL        7
REMARK 921   NORMALIZED FREE ENERGY PREDICTED BY IDOCK:   -5.01 KCAL/MOL
REMARK 922        TOTAL FREE ENERGY PREDICTED BY IDOCK:   -6.63 KCAL/MOL
REMARK 923 INTER-LIGAND FREE ENERGY PREDICTED BY IDOCK:   -6.08 KCAL/MOL
REMARK 924 INTRA-LIGAND FREE ENERGY PREDICTED BY IDOCK:   -0.55 KCAL/MOL
REMARK 927      BINDING AFFINITY PREDICTED BY RF-SCORE:    0.00 PKD
ROOT
HETATM    1  C   UNK     1     -10.084  12.139  67.534  1.00  0.00    -0.196 C  
HETATM    2  N   UNK     1     -10.548  12.495  68.856  1.00  0.00    -0.385 NA 
HETATM    3  H   UNK     1     -10.000  13.167  69.392  1.00  0.00     0.000 HD 
HETATM    4  C   UNK     1     -11.670  11.987  69.425  1.00  0.00    -0.340 C  
HETATM    5  N   UNK     1     -11.969  12.642  70.576  1.00  0.00    -0.533 NA 
HETATM    6  N   UNK     1     -12.375  11.012  68.976  1.00  0.00    -0.669 NA 
HETATM    7  H   UNK     1     -11.475  13.500  70.824  1.00  0.00     0.000 HD 
HETATM    8  H2  UNK     1     -12.062  10.577  68.108  1.00  0.00     0.000 HD 
HETATM    9  H1  UNK     1     -13.219  10.629  69.403  1.00  0.00     0.000 HD 
ENDROOT
BRANCH   5  10
HETATM   10  C   UNK     1     -13.002  12.107  71.457  1.00  0.00    -0.295 C  
BRANCH  10  11
HETATM   11  C   UNK     1     -13.438  13.180  72.451  1.00  0.00    -0.643 C  
BRANCH  11  12
HETATM   12  C   UNK     1     -14.322  14.244  71.783  1.00  0.00    -0.539 C  
BRANCH  12  13
HETATM   13  C   UNK     1     -13.577  15.533  71.412  1.00  0.00    -0.474 C  
HETATM   14  C   UNK     1     -12.456  15.809  72.428  1.00  0.00    -0.453 C  
HETATM   15  N   UNK     1     -12.977  15.443  70.052  1.00  0.00    -0.641 NA 
HETATM   16  O   UNK     1     -12.612  16.288  73.538  1.00  0.00    -0.498 OA 
HETATM   17  O   UNK     1     -11.250  15.408  71.943  1.00  0.00    -0.408 OA 
HETATM   18  H1  UNK     1     -12.482  16.299  69.806  1.00  0.00     0.000 HD 
HETATM   19  H2  UNK     1     -13.677  15.201  69.351  1.00  0.00     0.000 HD 
ENDBRANCH  12  13
ENDBRANCH  11  12
ENDBRANCH  10  11
ENDBRANCH   5  10
TORSDOF 4
ENDMDL
MODEL        8
REMARK 921   NORMALIZED FREE ENERGY PREDICTED BY IDOCK:   -4.98 KCAL/MOL
REMARK 922        TOTAL FREE ENERGY PREDICTED BY IDOCK:   -6.59 KCAL/MOL
REMARK 923 INTER-LIGAND FREE ENERGY PREDICTED BY IDOCK:   -5.92 KCAL/MOL
REMARK 924 INTRA-LIGAND FREE ENERGY PREDICTED BY IDOCK:   -0.67 KCAL/MOL
REMARK 927      BINDING AFFINITY PREDICTED BY RF-SCORE:    0.00 PKD
ROOT
HETATM    1  C   UNK     1      -9.126  10.817  62.806  1.00  0.00    -0.311 C  
HETATM    2  N   UNK     1      -9.570  12.044  63.428  1.00  0.00    -0.636 NA 
HETATM    3  H   UNK     1      -8.868  12.642  63.864  1.00  0.00     0.000 HD 
HETATM    4  C   UNK     1     -10.864  12.447  63.465  1.00  0.00    -0.438 C  
HETATM    5  N   UNK     1     -10.964  13.719  63.930  1.00  0.00    -0.463 NA 
HETATM    6  N   UNK     1     -11.888  11.748  63.130  1.00  0.00    -0.864 NA 
HETATM    7  H   UNK     1     -10.127  14.291  64.047  1.00  0.00     0.000 HD 
HETATM    8  H2  UNK     1     -11.711  10.797  62.803  1.00  0.00     0.000 HD 
HETATM    9  H1  UNK     1     -12.862  12.050  63.157  1.00  0.00     0.000 HD 
ENDROOT
BRANCH   5  10
HETATM   10  C   UNK     1     -12.278  14.261  64.260  1.00  0.00    -0.423 C  
BRANCH  10  11
HETATM   11  C   UNK     1     -12.657  13.860  65.683  1.00  0.00    -0.553 C  
BRANCH  11  12
HETATM   12  C   UNK     1     -11.651  14.401  66.710  1.00  0.00    -0.399 C  
BRANCH  12  13
HETATM   13  C   UNK     1     -10.679  13.344  67.249  1.00  0.00    -0.260 C  
HETATM   14  C   UNK     1     -11.335  11.953  67.215  1.00  0.00    -0.329 C  
HETATM   15  N   UNK     1      -9.424  13.300  66.450  1.00  0.00    -0.362 NA 
HETATM   16  O   UNK     1     -12.146  11.535  68.022  1.00  0.00    -0.617 OA 
HETATM   17  O   UNK     1     -10.921  11.247  66.127  1.00  0.00    -0.266 OA 
HETATM   18  H1  UNK     1      -8.778  12.597  66.808  1.00  0.00     0.000 HD 
HETATM   19  H2  UNK     1      -8.984  14.218  66.395  1.00  0.00     0.000 HD 
ENDBRANCH  12  13
ENDBRANCH  11  12
ENDBRANCH  10  11
ENDBRANCH   5  10
TORSDOF 4
ENDMDL
MODEL        9
REMARK 921   NORMALIZED FREE ENERGY PREDICTED BY IDOCK:   -4.96 KCAL/MOL
REMARK 922        TOTAL FREE ENERGY PREDICTED BY IDOCK:   -6.56 KCAL/MOL
REMARK 923 INTER-LIGAND FREE ENERGY PREDICTED BY IDOCK:   -6.04 KCAL/MOL
REMARK 924 INTRA-LIGAND FREE ENERGY PREDICTED BY IDOCK:   -0.52 KCAL/MOL
REMARK 927      BINDING AFFINITY PREDICTED BY RF-SCORE:    0.00 PKD
ROOT
HETATM    1  C   UNK     1     -12.300  13.430  70.377  1.00  0.00    -0.312 C  
HETATM    2  N   UNK     1     -12.227  14.129  69.115  1.00  0.00    -0.500 NA 
HETATM    3  H   UNK     1     -13.089  14.254  68.585  1.00  0.00     0.000 HD 
HETATM    4  C   UNK     1     -11.078  14.628  68.593  1.00  0.00    -0.262 C  
HETATM    5  N   UNK     1     -11.335  15.401  67.507  1.00  0.00    -0.308 NA 
HETATM    6  N   UNK     1      -9.889  14.412  69.028  1.00  0.00    -0.375 NA 
HETATM    7  H   UNK     1     -12.293  15.668  67.279  1.00  0.00     0.000 HD 
HETATM    8  H2  UNK     1      -9.799  13.807  69.844  1.00  0.00     0.000 HD 
HETATM    9  H1  UNK     1      -9.025  14.787  68.636  1.00  0.00     0.000 HD 
ENDROOT
BRANCH   5  10
HETATM   10  C   UNK     1     -10.228  15.848  66.667  1.00  0.00    -0.288 C  
BRANCH  10  11
HETATM   11  C   UNK     1     -10.598  15.682  65.196  1.00  0.00    -0.449 C  
BRANCH  11  12
HETATM   12  C   UNK     1     -10.303  14.260  64.696  1.00  0.00    -0.256 C  
BRANCH  12  13
HETATM   13  C   UNK     1     -11.544  13.499  64.209  1.00  0.00    -0.397 C  
HETATM   14  C   UNK     1     -12.458  13.158  65.398  1.00  0.00    -0.481 C  
HETATM   15  N   UNK     1     -12.322  14.300  63.224  1.00  0.00    -1.092 NA 
HETATM   16  O   UNK     1     -12.279  12.246  66.186  1.00  0.00    -0.647 OA 
HETATM   17  O   UNK     1     -13.489  14.042  65.489  1.00  0.00    -0.677 OA 
HETATM   18  H1  UNK     1     -13.146  13.794  62.900  1.00  0.00     0.000 HD 
HETATM   19  H2  UNK     1     -11.738  14.601  62.443  1.00  0.00     0.000 HD 
ENDBRANCH  12  13
ENDBRANCH  11  12
ENDBRANCH  10  11
ENDBRANCH   5  10
TORSDOF 4
ENDMDL
MODEL       10
REMARK 921   NORMALIZED FREE ENERGY PREDICTED BY IDOCK:   -4.96 KCAL/MOL
REMARK 922        TOTAL FREE ENERGY PREDICTED BY IDOCK:   -6.56 KCAL/MOL
REMARK 923 INTER-LIGAND FREE ENERGY PREDICTED BY IDOCK:   -6.34 KCAL/MOL
REMARK 924 INTRA-LIGAND FREE ENERGY PREDICTED BY IDOCK:   -0.22 KCAL/MOL
REMARK 927      BINDING AFFINITY PREDICTED BY RF-SCORE:    0.00 PKD
ROOT
HETATM    1  C   UNK     1     -12.828  15.723  73.472  1.00  0.00    -0.584 C  
HETATM    2  N   UNK     1     -12.013  15.900  72.291  1.00  0.00    -0.472 NA 
HETATM    3  H   UNK     1     -11.043  16.188  72.417  1.00  0.00     0.000 HD 
HETATM    4  C   UNK     1     -12.464  15.707  71.027  1.00  0.00    -0.447 C  
HETATM    5  N   UNK     1     -11.440  15.749  70.135  1.00  0.00    -0.330 NA 
HETATM    6  N   UNK     1     -13.685  15.519  70.675  1.00  0.00    -0.846 NA 
HETATM    7  H   UNK     1     -10.473  15.753  70.461  1.00  0.00     0.000 HD 
HETATM    8  H2  UNK     1     -14.383  15.515  71.418  1.00  0.00     0.000 HD 
HETATM    9  H1  UNK     1     -14.024  15.373  69.724  1.00  0.00     0.000 HD 
ENDROOT
BRANCH   5  10
HETATM   10  C   UNK     1     -11.735  15.789  68.707  1.00  0.00    -0.378 C  
BRANCH  10  11
HETATM   11  C   UNK     1     -10.536  15.269  67.919  1.00  0.00    -0.260 C  
BRANCH  11  12
HETATM   12  C   UNK     1     -10.676  15.561  66.417  1.00  0.00    -0.303 C  
BRANCH  12  13
HETATM   13  C   UNK     1     -10.980  14.322  65.566  1.00  0.00    -0.319 C  
HETATM   14  C   UNK     1     -12.454  14.328  65.126  1.00  0.00    -0.416 C  
HETATM   15  N   UNK     1     -10.120  14.270  64.352  1.00  0.00    -0.610 NA 
HETATM   16  O   UNK     1     -13.400  14.008  65.825  1.00  0.00    -0.543 OA 
HETATM   17  O   UNK     1     -12.579  14.782  63.849  1.00  0.00    -0.834 OA 
HETATM   18  H1  UNK     1     -10.323  13.447  63.786  1.00  0.00     0.000 HD 
HETATM   19  H2  UNK     1      -9.131  14.325  64.593  1.00  0.00     0.000 HD 
ENDBRANCH  12  13
ENDBRANCH  11  12
ENDBRANCH  10  11
ENDBRANCH   5  10
TORSDOF 4
ENDMDL
MODEL       11
REMARK 921   NORMALIZED FREE ENERGY PREDICTED BY IDOCK:   -4.95 KCAL/MOL
REMARK 922        TOTAL FREE ENERGY PREDICTED BY IDOCK:   -6.55 KCAL/MOL
REMARK 923 INTER-LIGAND FREE ENERGY PREDICTED BY IDOCK:   -6.38 KCAL/MOL
REMARK 924 INTRA-LIGAND FREE ENERGY PREDICTED BY IDOCK:   -0.17 KCAL/MOL
REMARK 927      BINDING AFFINITY PREDICTED BY RF-SCORE:    0.00 PKD
ROOT
HETATM    1  C   UNK     1     -12.957  10.547  71.594  1.00  0.00    -0.476 C  
HETATM    2  N   UNK     1     -12.772  10.385  70.169  1.00  0.00    -0.541 NA 
HETATM    3  H   UNK     1     -13.579  10.112  69.609  1.00  0.00     0.000 HD 
HETATM    4  C   UNK     1     -11.589  10.574  69.535  1.00  0.00    -0.260 C  
HETATM    5  N   UNK     1     -11.752  10.550  68.187  1.00  0.00    -0.760 NA 
HETATM    6  N   UNK     1     -10.445  10.744  70.094  1.00  0.00    -0.400 NA 
HETATM    7  H   UNK     1     -12.687  10.560  67.781  1.00  0.00     0.000 HD 
HETATM    8  H2  UNK     1     -10.424  10.735  71.114  1.00  0.00     0.000 HD 
HETATM    9  H1  UNK     1      -9.554  10.886  69.617  1.00  0.00     0.000 HD 
ENDROOT
BRANCH   5  10
HETATM   10  C   UNK     1     -10.576  10.508  67.323  1.00  0.00    -0.264 C  
BRANCH  10  11
HETATM   11  C   UNK     1     -10.588  11.707  66.379  1.00  0.00    -0.299 C  
BRANCH  11  12
HETATM   12  C   UNK     1     -10.421  11.275  64.915  1.00  0.00    -0.375 C  
BRANCH  12  13
HETATM   13  C   UNK     1     -10.763  12.371  63.897  1.00  0.00    -0.426 C  
HETATM   14  C   UNK     1     -12.286  12.577  63.830  1.00  0.00    -0.503 C  
HETATM   15  N   UNK     1     -10.122  13.666  64.255  1.00  0.00    -0.763 NA 
HETATM   16  O   UNK     1     -13.069  11.860  63.233  1.00  0.00    -0.674 OA 
HETATM   17  O   UNK     1     -12.663  13.657  64.568  1.00  0.00    -0.636 OA 
HETATM   18  H1  UNK     1     -10.349  14.395  63.579  1.00  0.00     0.000 HD 
HETATM   19  H2  UNK     1      -9.113  13.564  64.370  1.00  0.00     0.000 HD 
ENDBRANCH  12  13
ENDBRANCH  11  12
ENDBRANCH  10  11
ENDBRANCH   5  10
TORSDOF 4
ENDMDL
MODEL       12
REMARK 921   NORMALIZED FREE ENERGY PREDICTED BY IDOCK:   -4.94 KCAL/MOL
REMARK 922        TOTAL FREE ENERGY PREDICTED BY IDOCK:   -6.54 KCAL/MOL
REMARK 923 INTER-LIGAND FREE ENERGY PREDICTED BY IDOCK:   -5.89 KCAL/MOL
REMARK 924 INTRA-LIGAND FREE ENERGY PREDICTED BY IDOCK:   -0.64 KCAL/MOL
REMARK 927      BINDING AFFINITY PREDICTED BY RF-SCORE:    0.00 PKD
ROOT
HETATM    1  C   UNK     1     -12.286  10.269  70.207  1.00  0.00    -0.192 C  
HETATM    2  N   UNK     1     -12.175  10.835  68.882  1.00  0.00    -0.795 NA 
HETATM    3  H   UNK     1     -12.332  10.220  68.083  1.00  0.00     0.000 HD 
HETATM    4  C   UNK     1     -11.873  12.134  68.639  1.00  0.00    -0.306 C  
HETATM    5  N   UNK     1     -12.032  12.431  67.323  1.00  0.00    -0.537 NA 
HETATM    6  N   UNK     1     -11.475  12.997  69.503  1.00  0.00    -0.415 NA 
HETATM    7  H   UNK     1     -12.486  11.767  66.696  1.00  0.00     0.000 HD 
HETATM    8  H2  UNK     1     -11.376  12.674  70.466  1.00  0.00     0.000 HD 
HETATM    9  H1  UNK     1     -11.249  13.975  69.321  1.00  0.00     0.000 HD 
ENDROOT
BRANCH   5  10
HETATM   10  C   UNK     1     -11.546  13.709  66.813  1.00  0.00    -0.364 C  
BRANCH  10  11
HETATM   11  C   UNK     1     -12.481  14.215  65.718  1.00  0.00    -0.490 C  
BRANCH  11  12
HETATM   12  C   UNK     1     -11.812  14.165  64.336  1.00  0.00    -0.447 C  
BRANCH  12  13
HETATM   13  C   UNK     1     -12.051  12.855  63.575  1.00  0.00    -0.555 C  
HETATM   14  C   UNK     1     -10.815  11.946  63.680  1.00  0.00    -0.444 C  
HETATM   15  N   UNK     1     -13.230  12.120  64.111  1.00  0.00    -0.732 NA 
HETATM   16  O   UNK     1      -9.791  12.070  63.030  1.00  0.00    -0.372 OA 
HETATM   17  O   UNK     1     -10.991  10.994  64.636  1.00  0.00    -0.243 OA 
HETATM   18  H1  UNK     1     -13.388  11.249  63.605  1.00  0.00     0.000 HD 
HETATM   19  H2  UNK     1     -14.064  12.707  64.117  1.00  0.00     0.000 HD 
ENDBRANCH  12  13
ENDBRANCH  11  12
ENDBRANCH  10  11
ENDBRANCH   5  10
TORSDOF 4
ENDMDL
MODEL       13
REMARK 921   NORMALIZED FREE ENERGY PREDICTED BY IDOCK:   -4.93 KCAL/MOL
REMARK 922        TOTAL FREE ENERGY PREDICTED BY IDOCK:   -6.52 KCAL/MOL
REMARK 923 INTER-LIGAND FREE ENERGY PREDICTED BY IDOCK:   -5.97 KCAL/MOL
REMARK 924 INTRA-LIGAND FREE ENERGY PREDICTED BY IDOCK:   -0.55 KCAL/MOL
REMARK 927      BINDING AFFINITY PREDICTED BY RF-SCORE:    0.00 PKD
ROOT
HETATM    1  C   UNK     1     -10.247  19.668  66.382  1.00  0.00    -0.488 C  
HETATM    2  N   UNK     1     -10.158  18.379  67.030  1.00  0.00    -0.344 NA 
HETATM    3  H   UNK     1      -9.929  18.355  68.023  1.00  0.00     0.000 HD 
HETATM    4  C   UNK     1     -10.363  17.199  66.393  1.00  0.00    -0.307 C  
HETATM    5  N   UNK     1     -10.413  16.171  67.280  1.00  0.00    -0.306 NA 
HETATM    6  N   UNK     1     -10.484  17.029  65.126  1.00  0.00    -0.655 NA 
HETATM    7  H   UNK     1     -10.460  16.358  68.282  1.00  0.00     0.000 HD 
HETATM    8  H2  UNK     1     -10.421  17.862  64.541  1.00  0.00     0.000 HD 
HETATM    9  H1  UNK     1     -10.638  16.142  64.647  1.00  0.00     0.000 HD 
ENDROOT
BRANCH   5  10
HETATM   10  C   UNK     1     -10.400  14.798  66.788  1.00  0.00    -0.268 C  
BRANCH  10  11
HETATM   11  C   UNK     1     -11.660  14.072  67.252  1.00  0.00    -0.396 C  
BRANCH  11  12
HETATM   12  C   UNK     1     -12.529  13.632  66.064  1.00  0.00    -0.477 C  
BRANCH  12  13
HETATM   13  C   UNK     1     -11.855  13.813  64.697  1.00  0.00    -0.402 C  
HETATM   14  C   UNK     1     -11.986  12.526  63.866  1.00  0.00    -0.480 C  
HETATM   15  N   UNK     1     -12.463  14.938  63.935  1.00  0.00    -1.056 NA 
HETATM   16  O   UNK     1     -11.306  11.525  64.004  1.00  0.00    -0.368 OA 
HETATM   17  O   UNK     1     -13.003  12.630  62.967  1.00  0.00    -0.420 OA 
HETATM   18  H1  UNK     1     -12.015  15.058  63.026  1.00  0.00     0.000 HD 
HETATM   19  H2  UNK     1     -12.452  15.803  64.474  1.00  0.00     0.000 HD 
ENDBRANCH  12  13
ENDBRANCH  11  12
ENDBRANCH  10  11
ENDBRANCH   5  10
TORSDOF 4
ENDMDL
MODEL       14
REMARK 921   NORMALIZED FREE ENERGY PREDICTED BY IDOCK:   -4.92 KCAL/MOL
REMARK 922        TOTAL FREE ENERGY PREDICTED BY IDOCK:   -6.51 KCAL/MOL
REMARK 923 INTER-LIGAND FREE ENERGY PREDICTED BY IDOCK:   -5.74 KCAL/MOL
REMARK 924 INTRA-LIGAND FREE ENERGY PREDICTED BY IDOCK:   -0.78 KCAL/MOL
REMARK 927      BINDING AFFINITY PREDICTED BY RF-SCORE:    0.00 PKD
ROOT
HETATM    1  C   UNK     1     -10.121  17.597  66.263  1.00  0.00    -0.341 C  
HETATM    2  N   UNK     1     -10.484  16.217  66.032  1.00  0.00    -0.336 NA 
HETATM    3  H   UNK     1     -10.217  15.527  66.733  1.00  0.00     0.000 HD 
HETATM    4  C   UNK     1     -11.160  15.788  64.938  1.00  0.00    -0.399 C  
HETATM    5  N   UNK     1     -11.537  14.490  65.079  1.00  0.00    -0.367 NA 
HETATM    6  N   UNK     1     -11.418  16.475  63.884  1.00  0.00    -1.599 NA 
HETATM    7  H   UNK     1     -11.445  14.023  65.981  1.00  0.00     0.000 HD 
HETATM    8  H2  UNK     1     -11.082  17.439  63.869  1.00  0.00     0.000 HD 
HETATM    9  H1  UNK     1     -11.926  16.153  63.061  1.00  0.00     0.000 HD 
ENDROOT
BRANCH   5  10
HETATM   10  C   UNK     1     -12.075  13.771  63.929  1.00  0.00    -0.376 C  
BRANCH  10  11
HETATM   11  C   UNK     1     -12.077  12.272  64.214  1.00  0.00    -0.499 C  
BRANCH  11  12
HETATM   12  C   UNK     1     -10.716  11.794  64.741  1.00  0.00    -0.355 C  
BRANCH  12  13
HETATM   13  C   UNK     1     -10.701  11.487  66.244  1.00  0.00    -0.272 C  
HETATM   14  C   UNK     1      -9.568  12.265  66.935  1.00  0.00    -0.213 C  
HETATM   15  N   UNK     1     -11.992  11.854  66.888  1.00  0.00    -0.591 NA 
HETATM   16  O   UNK     1      -8.389  11.956  66.919  1.00  0.00    -0.169 OA 
HETATM   17  O   UNK     1     -10.046  13.385  67.542  1.00  0.00    -0.223 OA 
HETATM   18  H1  UNK     1     -11.982  11.650  67.887  1.00  0.00     0.000 HD 
HETATM   19  H2  UNK     1     -12.782  11.407  66.423  1.00  0.00     0.000 HD 
ENDBRANCH  12  13
ENDBRANCH  11  12
ENDBRANCH  10  11
ENDBRANCH   5  10
TORSDOF 4
ENDMDL
MODEL       15
REMARK 921   NORMALIZED FREE ENERGY PREDICTED BY IDOCK:   -4.91 KCAL/MOL
REMARK 922        TOTAL FREE ENERGY PREDICTED BY IDOCK:   -6.49 KCAL/MOL
REMARK 923 INTER-LIGAND FREE ENERGY PREDICTED BY IDOCK:   -6.25 KCAL/MOL
REMARK 924 INTRA-LIGAND FREE ENERGY PREDICTED BY IDOCK:   -0.24 KCAL/MOL
REMARK 927      BINDING AFFINITY PREDICTED BY RF-SCORE:    0.00 PKD
ROOT
HETATM    1  C   UNK     1     -13.075   9.917  71.730  1.00  0.00    -0.452 C  
HETATM    2  N   UNK     1     -12.709   9.978  70.333  1.00  0.00    -0.539 NA 
HETATM    3  H   UNK     1     -12.880   9.154  69.757  1.00  0.00     0.000 HD 
HETATM    4  C   UNK     1     -12.153  11.066  69.745  1.00  0.00    -0.353 C  
HETATM    5  N   UNK     1     -12.101  10.914  68.396  1.00  0.00    -0.818 NA 
HETATM    6  N   UNK     1     -11.711  12.112  70.344  1.00  0.00    -0.532 NA 
HETATM    7  H   UNK     1     -12.590  10.141  67.945  1.00  0.00     0.000 HD 
HETATM    8  H2  UNK     1     -11.785  12.126  71.362  1.00  0.00     0.000 HD 
HETATM    9  H1  UNK     1     -11.293  12.930  69.902  1.00  0.00     0.000 HD 
ENDROOT
BRANCH   5  10
HETATM   10  C   UNK     1     -11.337  11.867  67.597  1.00  0.00    -0.304 C  
BRANCH  10  11
HETATM   11  C   UNK     1     -10.716  11.153  66.399  1.00  0.00    -0.303 C  
BRANCH  11  12
HETATM   12  C   UNK     1     -10.859  11.980  65.113  1.00  0.00    -0.347 C  
BRANCH  12  13
HETATM   13  C   UNK     1     -12.311  12.194  64.666  1.00  0.00    -0.272 C  
HETATM   14  C   UNK     1     -12.641  13.696  64.636  1.00  0.00    -0.242 C  
HETATM   15  N   UNK     1     -12.554  11.625  63.312  1.00  0.00    -0.864 NA 
HETATM   16  O   UNK     1     -12.900  14.381  65.609  1.00  0.00    -0.404 OA 
HETATM   17  O   UNK     1     -12.566  14.185  63.368  1.00  0.00    -0.818 OA 
HETATM   18  H1  UNK     1     -13.519  11.768  63.016  1.00  0.00     0.000 HD 
HETATM   19  H2  UNK     1     -12.291  10.641  63.269  1.00  0.00     0.000 HD 
ENDBRANCH  12  13
ENDBRANCH  11  12
ENDBRANCH  10  11
ENDBRANCH   5  10
TORSDOF 4
ENDMDL
MODEL       16
REMARK 921   NORMALIZED FREE ENERGY PREDICTED BY IDOCK:   -4.90 KCAL/MOL
REMARK 922        TOTAL FREE ENERGY PREDICTED BY IDOCK:   -6.49 KCAL/MOL
REMARK 923 INTER-LIGAND FREE ENERGY PREDICTED BY IDOCK:   -6.21 KCAL/MOL
REMARK 924 INTRA-LIGAND FREE ENERGY PREDICTED BY IDOCK:   -0.28 KCAL/MOL
REMARK 927      BINDING AFFINITY PREDICTED BY RF-SCORE:    0.00 PKD
ROOT
HETATM    1  C   UNK     1     -12.399  10.536  71.138  1.00  0.00    -0.405 C  
HETATM    2  N   UNK     1     -11.727  11.643  70.496  1.00  0.00    -0.491 NA 
HETATM    3  H   UNK     1     -11.416  12.419  71.079  1.00  0.00     0.000 HD 
HETATM    4  C   UNK     1     -11.487  11.709  69.163  1.00  0.00    -0.300 C  
HETATM    5  N   UNK     1     -10.672  12.755  68.868  1.00  0.00    -0.377 NA 
HETATM    6  N   UNK     1     -11.957  10.920  68.265  1.00  0.00    -0.788 NA 
HETATM    7  H   UNK     1     -10.203  13.268  69.615  1.00  0.00     0.000 HD 
HETATM    8  H2  UNK     1     -12.571  10.171  68.585  1.00  0.00     0.000 HD 
HETATM    9  H1  UNK     1     -11.777  10.970  67.262  1.00  0.00     0.000 HD 
ENDROOT
BRANCH   5  10
HETATM   10  C   UNK     1     -10.473  13.139  67.474  1.00  0.00    -0.228 C  
BRANCH  10  11
HETATM   11  C   UNK     1     -11.034  14.538  67.241  1.00  0.00    -0.307 C  
BRANCH  11  12
HETATM   12  C   UNK     1     -12.045  14.556  66.084  1.00  0.00    -0.300 C  
BRANCH  12  13
HETATM   13  C   UNK     1     -11.404  14.701  64.697  1.00  0.00    -0.369 C  
HETATM   14  C   UNK     1     -11.624  13.421  63.874  1.00  0.00    -0.354 C  
HETATM   15  N   UNK     1     -11.977  15.854  63.950  1.00  0.00    -1.249 NA 
HETATM   16  O   UNK     1     -10.991  12.387  63.995  1.00  0.00    -0.328 OA 
HETATM   17  O   UNK     1     -12.660  13.573  63.005  1.00  0.00    -0.716 OA 
HETATM   18  H1  UNK     1     -11.551  15.949  63.028  1.00  0.00     0.000 HD 
HETATM   19  H2  UNK     1     -11.907  16.718  64.486  1.00  0.00     0.000 HD 
ENDBRANCH  12  13
ENDBRANCH  11  12
ENDBRANCH  10  11
ENDBRANCH   5  10
TORSDOF 4
ENDMDL
MODEL       17
REMARK 921   NORMALIZED FREE ENERGY PREDICTED BY IDOCK:   -4.79 KCAL/MOL
REMARK 922        TOTAL FREE ENERGY PREDICTED BY IDOCK:   -6.35 KCAL/MOL
REMARK 923 INTER-LIGAND FREE ENERGY PREDICTED BY IDOCK:   -6.19 KCAL/MOL
REMARK 924 INTRA-LIGAND FREE ENERGY PREDICTED BY IDOCK:   -0.16 KCAL/MOL
REMARK 927      BINDING AFFINITY PREDICTED BY RF-SCORE:    0.00 PKD
ROOT
HETATM    1  C   UNK     1     -13.099  10.062  71.582  1.00  0.00    -0.445 C  
HETATM    2  N   UNK     1     -12.983  10.244  70.153  1.00  0.00    -0.549 NA 
HETATM    3  H   UNK     1     -13.685   9.808  69.555  1.00  0.00     0.000 HD 
HETATM    4  C   UNK     1     -11.997  10.962  69.561  1.00  0.00    -0.330 C  
HETATM    5  N   UNK     1     -12.247  11.130  68.236  1.00  0.00    -0.709 NA 
HETATM    6  N   UNK     1     -10.945  11.426  70.134  1.00  0.00    -0.402 NA 
HETATM    7  H   UNK     1     -13.156  10.877  67.848  1.00  0.00     0.000 HD 
HETATM    8  H2  UNK     1     -10.841  11.236  71.131  1.00  0.00     0.000 HD 
HETATM    9  H1  UNK     1     -10.202  11.965  69.689  1.00  0.00     0.000 HD 
ENDROOT
BRANCH   5  10
HETATM   10  C   UNK     1     -11.204  11.676  67.374  1.00  0.00    -0.298 C  
BRANCH  10  11
HETATM   11  C   UNK     1     -11.839  12.339  66.155  1.00  0.00    -0.398 C  
BRANCH  11  12
HETATM   12  C   UNK     1     -11.685  13.866  66.197  1.00  0.00    -0.393 C  
BRANCH  12  13
HETATM   13  C   UNK     1     -10.824  14.438  65.063  1.00  0.00    -0.407 C  
HETATM   14  C   UNK     1     -11.393  15.788  64.592  1.00  0.00    -0.337 C  
HETATM   15  N   UNK     1      -9.415  14.641  65.499  1.00  0.00    -0.502 NA 
HETATM   16  O   UNK     1     -12.354  15.929  63.856  1.00  0.00    -0.776 OA 
HETATM   17  O   UNK     1     -10.705  16.824  65.143  1.00  0.00    -0.641 OA 
HETATM   18  H1  UNK     1      -8.843  15.021  64.745  1.00  0.00     0.000 HD 
HETATM   19  H2  UNK     1      -9.014  13.783  65.876  1.00  0.00     0.000 HD 
ENDBRANCH  12  13
ENDBRANCH  11  12
ENDBRANCH  10  11
ENDBRANCH   5  10
TORSDOF 4
ENDMDL
MODEL       18
REMARK 921   NORMALIZED FREE ENERGY PREDICTED BY IDOCK:   -4.77 KCAL/MOL
REMARK 922        TOTAL FREE ENERGY PREDICTED BY IDOCK:   -6.32 KCAL/MOL
REMARK 923 INTER-LIGAND FREE ENERGY PREDICTED BY IDOCK:   -6.14 KCAL/MOL
REMARK 924 INTRA-LIGAND FREE ENERGY PREDICTED BY IDOCK:   -0.18 KCAL/MOL
REMARK 927      BINDING AFFINITY PREDICTED BY RF-SCORE:    0.00 PKD
ROOT
HETATM    1  C   UNK     1     -14.286  15.405  72.234  1.00  0.00    -0.545 C  
HETATM    2  N   UNK     1     -13.862  15.247  70.861  1.00  0.00    -0.766 NA 
HETATM    3  H   UNK     1     -14.534  14.873  70.191  1.00  0.00     0.000 HD 
HETATM    4  C   UNK     1     -12.623  15.566  70.412  1.00  0.00    -0.378 C  
HETATM    5  N   UNK     1     -12.567  15.504  69.056  1.00  0.00    -0.409 NA 
HETATM    6  N   UNK     1     -11.608  15.876  71.136  1.00  0.00    -0.401 NA 
HETATM    7  H   UNK     1     -13.423  15.399  68.510  1.00  0.00     0.000 HD 
HETATM    8  H2  UNK     1     -11.748  15.884  72.146  1.00  0.00     0.000 HD 
HETATM    9  H1  UNK     1     -10.676  16.116  70.799  1.00  0.00     0.000 HD 
ENDROOT
BRANCH   5  10
HETATM   10  C   UNK     1     -11.273  15.590  68.387  1.00  0.00    -0.341 C  
BRANCH  10  11
HETATM   11  C   UNK     1     -11.074  14.370  67.493  1.00  0.00    -0.312 C  
BRANCH  11  12
HETATM   12  C   UNK     1     -11.589  14.623  66.068  1.00  0.00    -0.328 C  
BRANCH  12  13
HETATM   13  C   UNK     1     -12.407  13.463  65.485  1.00  0.00    -0.480 C  
HETATM   14  C   UNK     1     -12.158  13.346  63.972  1.00  0.00    -0.449 C  
HETATM   15  N   UNK     1     -12.052  12.168  66.129  1.00  0.00    -0.590 NA 
HETATM   16  O   UNK     1     -12.661  14.054  63.117  1.00  0.00    -0.733 OA 
HETATM   17  O   UNK     1     -11.257  12.361  63.702  1.00  0.00    -0.407 OA 
HETATM   18  H1  UNK     1     -12.596  11.398  65.741  1.00  0.00     0.000 HD 
HETATM   19  H2  UNK     1     -12.145  12.218  67.143  1.00  0.00     0.000 HD 
ENDBRANCH  12  13
ENDBRANCH  11  12
ENDBRANCH  10  11
ENDBRANCH   5  10
TORSDOF 4
ENDMDL
MODEL       19
REMARK 921   NORMALIZED FREE ENERGY PREDICTED BY IDOCK:   -4.77 KCAL/MOL
REMARK 922        TOTAL FREE ENERGY PREDICTED BY IDOCK:   -6.32 KCAL/MOL
REMARK 923 INTER-LIGAND FREE ENERGY PREDICTED BY IDOCK:   -6.08 KCAL/MOL
REMARK 924 INTRA-LIGAND FREE ENERGY PREDICTED BY IDOCK:   -0.25 KCAL/MOL
REMARK 927      BINDING AFFINITY PREDICTED BY RF-SCORE:    0.00 PKD
ROOT
HETATM    1  C   UNK     1     -13.023  10.062  71.320  1.00  0.00    -0.400 C  
HETATM    2  N   UNK     1     -12.274  11.233  70.925  1.00  0.00    -0.371 NA 
HETATM    3  H   UNK     1     -12.083  11.942  71.633  1.00  0.00     0.000 HD 
HETATM    4  C   UNK     1     -11.812  11.445  69.668  1.00  0.00    -0.362 C  
HETATM    5  N   UNK     1     -10.980  12.518  69.632  1.00  0.00    -0.448 NA 
HETATM    6  N   UNK     1     -12.106  10.758  68.624  1.00  0.00    -0.816 NA 
HETATM    7  H   UNK     1     -10.656  12.948  70.498  1.00  0.00     0.000 HD 
HETATM    8  H2  UNK     1     -12.750   9.977  68.752  1.00  0.00     0.000 HD 
HETATM    9  H1  UNK     1     -11.759  10.918  67.678  1.00  0.00     0.000 HD 
ENDROOT
BRANCH   5  10
HETATM   10  C   UNK     1     -10.555  13.052  68.342  1.00  0.00    -0.251 C  
BRANCH  10  11
HETATM   11  C   UNK     1     -11.458  14.215  67.943  1.00  0.00    -0.340 C  
BRANCH  11  12
HETATM   12  C   UNK     1     -12.122  13.974  66.579  1.00  0.00    -0.488 C  
BRANCH  12  13
HETATM   13  C   UNK     1     -11.261  14.401  65.382  1.00  0.00    -0.335 C  
HETATM   14  C   UNK     1     -12.138  14.567  64.129  1.00  0.00    -0.350 C  
HETATM   15  N   UNK     1     -10.558  15.686  65.647  1.00  0.00    -0.356 NA 
HETATM   16  O   UNK     1     -12.552  13.658  63.433  1.00  0.00    -0.799 OA 
HETATM   17  O   UNK     1     -12.434  15.878  63.914  1.00  0.00    -0.760 OA 
HETATM   18  H1  UNK     1      -9.986  15.970  64.852  1.00  0.00     0.000 HD 
HETATM   19  H2  UNK     1     -10.009  15.642  66.506  1.00  0.00     0.000 HD 
ENDBRANCH  12  13
ENDBRANCH  11  12
ENDBRANCH  10  11
ENDBRANCH   5  10
TORSDOF 4
ENDMDL
MODEL       20
REMARK 921   NORMALIZED FREE ENERGY PREDICTED BY IDOCK:   -4.76 KCAL/MOL
REMARK 922        TOTAL FREE ENERGY PREDICTED BY IDOCK:   -6.31 KCAL/MOL
REMARK 923 INTER-LIGAND FREE ENERGY PREDICTED BY IDOCK:   -5.86 KCAL/MOL
REMARK 924 INTRA-LIGAND FREE ENERGY PREDICTED BY IDOCK:   -0.45 KCAL/MOL
REMARK 927      BINDING AFFINITY PREDICTED BY RF-SCORE:    0.00 PKD
ROOT
HETATM    1  C   UNK     1     -10.588  18.242  65.646  1.00  0.00    -0.090 C  
HETATM    2  N   UNK     1     -10.392  16.811  65.685  1.00  0.00    -0.562 NA 
HETATM    3  H   UNK     1      -9.759  16.432  66.390  1.00  0.00     0.000 HD 
HETATM    4  C   UNK     1     -11.002  15.942  64.841  1.00  0.00    -0.411 C  
HETATM    5  N   UNK     1     -10.792  14.658  65.231  1.00  0.00    -0.350 NA 
HETATM    6  N   UNK     1     -11.681  16.248  63.795  1.00  0.00    -1.488 NA 
HETATM    7  H   UNK     1     -10.375  14.458  66.141  1.00  0.00     0.000 HD 
HETATM    8  H2  UNK     1     -11.772  17.241  63.578  1.00  0.00     0.000 HD 
HETATM    9  H1  UNK     1     -12.140  15.595  63.159  1.00  0.00     0.000 HD 
ENDROOT
BRANCH   5  10
HETATM   10  C   UNK     1     -11.169  13.567  64.339  1.00  0.00    -0.379 C  
BRANCH  10  11
HETATM   11  C   UNK     1     -11.187  12.252  65.113  1.00  0.00    -0.369 C  
BRANCH  11  12
HETATM   12  C   UNK     1     -12.021  12.363  66.398  1.00  0.00    -0.346 C  
BRANCH  12  13
HETATM   13  C   UNK     1     -11.259  11.977  67.672  1.00  0.00    -0.282 C  
HETATM   14  C   UNK     1     -11.137  13.193  68.606  1.00  0.00    -0.269 C  
HETATM   15  N   UNK     1     -11.945  10.879  68.406  1.00  0.00    -0.779 NA 
HETATM   16  O   UNK     1     -10.340  14.106  68.475  1.00  0.00    -0.238 OA 
HETATM   17  O   UNK     1     -12.073  13.145  69.593  1.00  0.00    -0.301 OA 
HETATM   18  H1  UNK     1     -11.438  10.623  69.253  1.00  0.00     0.000 HD 
HETATM   19  H2  UNK     1     -12.102  10.070  67.805  1.00  0.00     0.000 HD 
ENDBRANCH  12  13
ENDBRANCH  11  12
ENDBRANCH  10  11
ENDBRANCH   5  10
TORSDOF 4
ENDMDL
MODEL       21
REMARK 921   NORMALIZED FREE ENERGY PREDICTED BY IDOCK:   -4.76 KCAL/MOL
REMARK 922        TOTAL FREE ENERGY PREDICTED BY IDOCK:   -6.31 KCAL/MOL
REMARK 923 INTER-LIGAND FREE ENERGY PREDICTED BY IDOCK:   -6.07 KCAL/MOL
REMARK 924 INTRA-LIGAND FREE ENERGY PREDICTED BY IDOCK:   -0.24 KCAL/MOL
REMARK 927      BINDING AFFINITY PREDICTED BY RF-SCORE:    0.00 PKD
ROOT
HETATM    1  C   UNK     1     -10.641   9.131  70.342  1.00  0.00    -0.230 C  
HETATM    2  N   UNK     1     -10.722  10.574  70.336  1.00  0.00    -0.436 NA 
HETATM    3  H   UNK     1     -10.218  11.085  71.060  1.00  0.00     0.000 HD 
HETATM    4  C   UNK     1     -11.430  11.286  69.425  1.00  0.00    -0.301 C  
HETATM    5  N   UNK     1     -11.167  12.614  69.538  1.00  0.00    -0.465 NA 
HETATM    6  N   UNK     1     -12.256  10.812  68.564  1.00  0.00    -0.822 NA 
HETATM    7  H   UNK     1     -10.401  12.939  70.128  1.00  0.00     0.000 HD 
HETATM    8  H2  UNK     1     -12.395   9.801  68.565  1.00  0.00     0.000 HD 
HETATM    9  H1  UNK     1     -12.789  11.348  67.878  1.00  0.00     0.000 HD 
ENDROOT
BRANCH   5  10
HETATM   10  C   UNK     1     -11.990  13.572  68.806  1.00  0.00    -0.339 C  
BRANCH  10  11
HETATM   11  C   UNK     1     -11.150  14.258  67.733  1.00  0.00    -0.294 C  
BRANCH  11  12
HETATM   12  C   UNK     1     -11.891  14.322  66.389  1.00  0.00    -0.427 C  
BRANCH  12  13
HETATM   13  C   UNK     1     -10.968  14.477  65.174  1.00  0.00    -0.379 C  
HETATM   14  C   UNK     1     -10.741  15.967  64.866  1.00  0.00    -0.316 C  
HETATM   15  N   UNK     1      -9.647  13.831  65.406  1.00  0.00    -0.532 NA 
HETATM   16  O   UNK     1     -11.528  16.696  64.289  1.00  0.00    -1.075 OA 
HETATM   17  O   UNK     1      -9.547  16.390  65.365  1.00  0.00    -0.455 OA 
HETATM   18  H1  UNK     1      -9.034  13.935  64.598  1.00  0.00     0.000 HD 
HETATM   19  H2  UNK     1      -9.753  12.852  65.673  1.00  0.00     0.000 HD 
ENDBRANCH  12  13
ENDBRANCH  11  12
ENDBRANCH  10  11
ENDBRANCH   5  10
TORSDOF 4
ENDMDL
MODEL       22
REMARK 921   NORMALIZED FREE ENERGY PREDICTED BY IDOCK:   -4.75 KCAL/MOL
REMARK 922        TOTAL FREE ENERGY PREDICTED BY IDOCK:   -6.30 KCAL/MOL
REMARK 923 INTER-LIGAND FREE ENERGY PREDICTED BY IDOCK:   -6.13 KCAL/MOL
REMARK 924 INTRA-LIGAND FREE ENERGY PREDICTED BY IDOCK:   -0.18 KCAL/MOL
REMARK 927      BINDING AFFINITY PREDICTED BY RF-SCORE:    0.00 PKD
ROOT
HETATM    1  C   UNK     1     -11.441   7.146  71.199  1.00  0.00    -0.290 C  
HETATM    2  N   UNK     1     -11.681   8.566  71.081  1.00  0.00    -0.279 NA 
HETATM    3  H   UNK     1     -11.135   9.091  70.399  1.00  0.00     0.000 HD 
HETATM    4  C   UNK     1     -12.591   9.242  71.826  1.00  0.00    -0.382 C  
HETATM    5  N   UNK     1     -12.744  10.512  71.370  1.00  0.00    -0.405 NA 
HETATM    6  N   UNK     1     -13.232   8.786  72.842  1.00  0.00    -0.793 NA 
HETATM    7  H   UNK     1     -12.332  10.793  70.480  1.00  0.00     0.000 HD 
HETATM    8  H2  UNK     1     -13.039   7.822  73.114  1.00  0.00     0.000 HD 
HETATM    9  H1  UNK     1     -13.917   9.294  73.402  1.00  0.00     0.000 HD 
ENDROOT
BRANCH   5  10
HETATM   10  C   UNK     1     -13.504  11.472  72.164  1.00  0.00    -0.114 C  
BRANCH  10  11
HETATM   11  C   UNK     1     -13.147  12.892  71.735  1.00  0.00    -0.458 C  
BRANCH  11  12
HETATM   12  C   UNK     1     -14.026  13.935  72.442  1.00  0.00    -0.633 C  
BRANCH  12  13
HETATM   13  C   UNK     1     -13.776  15.377  71.983  1.00  0.00    -0.509 C  
HETATM   14  C   UNK     1     -12.631  16.004  72.798  1.00  0.00    -0.472 C  
HETATM   15  N   UNK     1     -13.421  15.435  70.538  1.00  0.00    -0.793 NA 
HETATM   16  O   UNK     1     -12.730  16.443  73.930  1.00  0.00    -0.610 OA 
HETATM   17  O   UNK     1     -11.463  15.969  72.101  1.00  0.00    -0.388 OA 
HETATM   18  H1  UNK     1     -13.254  16.394  70.233  1.00  0.00     0.000 HD 
HETATM   19  H2  UNK     1     -14.125  14.976  69.962  1.00  0.00     0.000 HD 
ENDBRANCH  12  13
ENDBRANCH  11  12
ENDBRANCH  10  11
ENDBRANCH   5  10
TORSDOF 4
ENDMDL
MODEL       23
REMARK 921   NORMALIZED FREE ENERGY PREDICTED BY IDOCK:   -4.71 KCAL/MOL
REMARK 922        TOTAL FREE ENERGY PREDICTED BY IDOCK:   -6.25 KCAL/MOL
REMARK 923 INTER-LIGAND FREE ENERGY PREDICTED BY IDOCK:   -5.72 KCAL/MOL
REMARK 924 INTRA-LIGAND FREE ENERGY PREDICTED BY IDOCK:   -0.53 KCAL/MOL
REMARK 927      BINDING AFFINITY PREDICTED BY RF-SCORE:    0.00 PKD
ROOT
HETATM    1  C   UNK     1     -12.145  13.323  63.331  1.00  0.00    -0.439 C  
HETATM    2  N   UNK     1     -11.384  13.910  64.411  1.00  0.00    -0.504 NA 
HETATM    3  H   UNK     1     -10.966  13.284  65.099  1.00  0.00     0.000 HD 
HETATM    4  C   UNK     1     -11.194  15.244  64.562  1.00  0.00    -0.280 C  
HETATM    5  N   UNK     1     -10.283  15.496  65.538  1.00  0.00    -0.367 NA 
HETATM    6  N   UNK     1     -11.784  16.176  63.904  1.00  0.00    -1.452 NA 
HETATM    7  H   UNK     1      -9.730  14.737  65.935  1.00  0.00     0.000 HD 
HETATM    8  H2  UNK     1     -12.461  15.884  63.199  1.00  0.00     0.000 HD 
HETATM    9  H1  UNK     1     -11.642  17.179  64.018  1.00  0.00     0.000 HD 
ENDROOT
BRANCH   5  10
HETATM   10  C   UNK     1     -10.103  16.864  66.013  1.00  0.00    -0.319 C  
BRANCH  10  11
HETATM   11  C   UNK     1     -10.550  16.967  67.468  1.00  0.00    -0.310 C  
BRANCH  11  12
HETATM   12  C   UNK     1     -10.608  15.587  68.140  1.00  0.00    -0.266 C  
BRANCH  12  13
HETATM   13  C   UNK     1     -12.023  15.005  68.249  1.00  0.00    -0.183 C  
HETATM   14  C   UNK     1     -11.987  13.480  68.056  1.00  0.00    -0.337 C  
HETATM   15  N   UNK     1     -12.635  15.304  69.573  1.00  0.00    -0.607 NA 
HETATM   16  O   UNK     1     -11.896  12.907  66.985  1.00  0.00    -0.371 OA 
HETATM   17  O   UNK     1     -12.028  12.837  69.255  1.00  0.00    -0.289 OA 
HETATM   18  H1  UNK     1     -13.576  14.917  69.645  1.00  0.00     0.000 HD 
HETATM   19  H2  UNK     1     -12.626  16.304  69.771  1.00  0.00     0.000 HD 
ENDBRANCH  12  13
ENDBRANCH  11  12
ENDBRANCH  10  11
ENDBRANCH   5  10
TORSDOF 4
ENDMDL
MODEL       24
REMARK 921   NORMALIZED FREE ENERGY PREDICTED BY IDOCK:   -4.70 KCAL/MOL
REMARK 922        TOTAL FREE ENERGY PREDICTED BY IDOCK:   -6.24 KCAL/MOL
REMARK 923 INTER-LIGAND FREE ENERGY PREDICTED BY IDOCK:   -5.96 KCAL/MOL
REMARK 924 INTRA-LIGAND FREE ENERGY PREDICTED BY IDOCK:   -0.28 KCAL/MOL
REMARK 927      BINDING AFFINITY PREDICTED BY RF-SCORE:    0.00 PKD
ROOT
HETATM    1  C   UNK     1     -11.428   9.338  71.115  1.00  0.00    -0.333 C  
HETATM    2  N   UNK     1     -10.852  10.523  70.520  1.00  0.00    -0.419 NA 
HETATM    3  H   UNK     1     -10.129  11.019  71.041  1.00  0.00     0.000 HD 
HETATM    4  C   UNK     1     -11.217  11.014  69.310  1.00  0.00    -0.257 C  
HETATM    5  N   UNK     1     -10.380  12.008  68.917  1.00  0.00    -0.391 NA 
HETATM    6  N   UNK     1     -12.219  10.629  68.604  1.00  0.00    -0.814 NA 
HETATM    7  H   UNK     1      -9.516  12.187  69.430  1.00  0.00     0.000 HD 
HETATM    8  H2  UNK     1     -12.796   9.882  68.991  1.00  0.00     0.000 HD 
HETATM    9  H1  UNK     1     -12.494  10.998  67.693  1.00  0.00     0.000 HD 
ENDROOT
BRANCH   5  10
HETATM   10  C   UNK     1     -10.726  12.820  67.755  1.00  0.00    -0.220 C  
BRANCH  10  11
HETATM   11  C   UNK     1      -9.837  12.437  66.576  1.00  0.00    -0.244 C  
BRANCH  11  12
HETATM   12  C   UNK     1     -10.631  11.708  65.482  1.00  0.00    -0.329 C  
BRANCH  12  13
HETATM   13  C   UNK     1     -10.700  12.467  64.150  1.00  0.00    -0.379 C  
HETATM   14  C   UNK     1     -12.165  12.719  63.757  1.00  0.00    -0.489 C  
HETATM   15  N   UNK     1      -9.995  13.776  64.231  1.00  0.00    -0.686 NA 
HETATM   16  O   UNK     1     -12.914  11.896  63.261  1.00  0.00    -0.707 OA 
HETATM   17  O   UNK     1     -12.543  13.987  64.077  1.00  0.00    -0.689 OA 
HETATM   18  H1  UNK     1     -10.041  14.280  63.346  1.00  0.00     0.000 HD 
HETATM   19  H2  UNK     1      -9.033  13.662  64.548  1.00  0.00     0.000 HD 
ENDBRANCH  12  13
ENDBRANCH  11  12
ENDBRANCH  10  11
ENDBRANCH   5  10
TORSDOF 4
ENDMDL
MODEL       25
REMARK 921   NORMALIZED FREE ENERGY PREDICTED BY IDOCK:   -4.70 KCAL/MOL
REMARK 922        TOTAL FREE ENERGY PREDICTED BY IDOCK:   -6.23 KCAL/MOL
REMARK 923 INTER-LIGAND FREE ENERGY PREDICTED BY IDOCK:   -5.84 KCAL/MOL
REMARK 924 INTRA-LIGAND FREE ENERGY PREDICTED BY IDOCK:   -0.40 KCAL/MOL
REMARK 927      BINDING AFFINITY PREDICTED BY RF-SCORE:    0.00 PKD
ROOT
HETATM    1  C   UNK     1     -10.989   6.510  67.559  1.00  0.00    -0.359 C  
HETATM    2  N   UNK     1     -10.291   7.256  66.537  1.00  0.00    -0.495 NA 
HETATM    3  H   UNK     1      -9.717   6.738  65.871  1.00  0.00     0.000 HD 
HETATM    4  C   UNK     1     -10.353   8.605  66.413  1.00  0.00    -0.057 C  
HETATM    5  N   UNK     1      -9.766   9.013  65.257  1.00  0.00    -0.412 NA 
HETATM    6  N   UNK     1     -10.873   9.424  67.255  1.00  0.00    -0.346 NA 
HETATM    7  H   UNK     1      -9.496   8.331  64.548  1.00  0.00     0.000 HD 
HETATM    8  H2  UNK     1     -11.279   9.020  68.099  1.00  0.00     0.000 HD 
HETATM    9  H1  UNK     1     -10.920  10.438  67.161  1.00  0.00     0.000 HD 
ENDROOT
BRANCH   5  10
HETATM   10  C   UNK     1      -9.525  10.436  65.039  1.00  0.00    -0.253 C  
BRANCH  10  11
HETATM   11  C   UNK     1     -10.075  10.848  63.677  1.00  0.00    -0.414 C  
BRANCH  11  12
HETATM   12  C   UNK     1     -10.436  12.341  63.641  1.00  0.00    -0.483 C  
BRANCH  12  13
HETATM   13  C   UNK     1     -11.908  12.635  63.957  1.00  0.00    -0.431 C  
HETATM   14  C   UNK     1     -12.092  12.860  65.468  1.00  0.00    -0.458 C  
HETATM   15  N   UNK     1     -12.391  13.842  63.233  1.00  0.00    -1.148 NA 
HETATM   16  O   UNK     1     -12.147  11.981  66.310  1.00  0.00    -0.596 OA 
HETATM   17  O   UNK     1     -12.146  14.188  65.758  1.00  0.00    -0.386 OA 
HETATM   18  H1  UNK     1     -13.369  14.038  63.443  1.00  0.00     0.000 HD 
HETATM   19  H2  UNK     1     -12.233  13.763  62.228  1.00  0.00     0.000 HD 
ENDBRANCH  12  13
ENDBRANCH  11  12
ENDBRANCH  10  11
ENDBRANCH   5  10
TORSDOF 4
ENDMDL
MODEL       26
REMARK 921   NORMALIZED FREE ENERGY PREDICTED BY IDOCK:   -4.70 KCAL/MOL
REMARK 922        TOTAL FREE ENERGY PREDICTED BY IDOCK:   -6.23 KCAL/MOL
REMARK 923 INTER-LIGAND FREE ENERGY PREDICTED BY IDOCK:   -5.85 KCAL/MOL
REMARK 924 INTRA-LIGAND FREE ENERGY PREDICTED BY IDOCK:   -0.38 KCAL/MOL
REMARK 927      BINDING AFFINITY PREDICTED BY RF-SCORE:    0.00 PKD
ROOT
HETATM    1  C   UNK     1      -8.609  16.623  66.174  1.00  0.00    -0.289 C  
HETATM    2  N   UNK     1      -9.557  15.541  66.321  1.00  0.00    -0.283 NA 
HETATM    3  H   UNK     1      -9.368  14.830  67.027  1.00  0.00     0.000 HD 
HETATM    4  C   UNK     1     -10.682  15.418  65.574  1.00  0.00    -0.384 C  
HETATM    5  N   UNK     1     -11.479  14.429  66.058  1.00  0.00    -0.343 NA 
HETATM    6  N   UNK     1     -10.986  16.110  64.536  1.00  0.00    -0.927 NA 
HETATM    7  H   UNK     1     -11.278  14.003  66.962  1.00  0.00     0.000 HD 
HETATM    8  H2  UNK     1     -10.316  16.822  64.244  1.00  0.00     0.000 HD 
HETATM    9  H1  UNK     1     -11.833  16.017  63.974  1.00  0.00     0.000 HD 
ENDROOT
BRANCH   5  10
HETATM   10  C   UNK     1     -12.625  13.983  65.272  1.00  0.00    -0.470 C  
BRANCH  10  11
HETATM   11  C   UNK     1     -12.407  12.543  64.816  1.00  0.00    -0.544 C  
BRANCH  11  12
HETATM   12  C   UNK     1     -11.698  12.483  63.455  1.00  0.00    -0.567 C  
BRANCH  12  13
HETATM   13  C   UNK     1     -10.295  11.862  63.509  1.00  0.00    -0.458 C  
HETATM   14  C   UNK     1      -9.950  11.455  64.951  1.00  0.00    -0.265 C  
HETATM   15  N   UNK     1     -10.198  10.660  62.637  1.00  0.00    -0.757 NA 
HETATM   16  O   UNK     1      -9.584  12.215  65.830  1.00  0.00    -0.239 OA 
HETATM   17  O   UNK     1     -10.146  10.122  65.140  1.00  0.00    -0.326 OA 
HETATM   18  H1  UNK     1      -9.266  10.247  62.673  1.00  0.00     0.000 HD 
HETATM   19  H2  UNK     1     -10.477  10.869  61.679  1.00  0.00     0.000 HD 
ENDBRANCH  12  13
ENDBRANCH  11  12
ENDBRANCH  10  11
ENDBRANCH   5  10
TORSDOF 4
ENDMDL
MODEL       27
REMARK 921   NORMALIZED FREE ENERGY PREDICTED BY IDOCK:   -4.64 KCAL/MOL
REMARK 922        TOTAL FREE ENERGY PREDICTED BY IDOCK:   -6.17 KCAL/MOL
REMARK 923 INTER-LIGAND FREE ENERGY PREDICTED BY IDOCK:   -5.88 KCAL/MOL
REMARK 924 INTRA-LIGAND FREE ENERGY PREDICTED BY IDOCK:   -0.29 KCAL/MOL
REMARK 927      BINDING AFFINITY PREDICTED BY RF-SCORE:    0.00 PKD
ROOT
HETATM    1  C   UNK     1      -9.223  10.030  62.499  1.00  0.00    -0.296 C  
HETATM    2  N   UNK     1      -9.219  11.233  63.301  1.00  0.00    -0.443 NA 
HETATM    3  H   UNK     1      -8.364  11.472  63.803  1.00  0.00     0.000 HD 
HETATM    4  C   UNK     1     -10.285  12.062  63.423  1.00  0.00    -0.426 C  
HETATM    5  N   UNK     1      -9.938  13.206  64.068  1.00  0.00    -0.763 NA 
HETATM    6  N   UNK     1     -11.480  11.831  63.013  1.00  0.00    -0.759 NA 
HETATM    7  H   UNK     1      -8.957  13.418  64.248  1.00  0.00     0.000 HD 
HETATM    8  H2  UNK     1     -11.643  10.937  62.550  1.00  0.00     0.000 HD 
HETATM    9  H1  UNK     1     -12.282  12.454  63.105  1.00  0.00     0.000 HD 
ENDROOT
BRANCH   5  10
HETATM   10  C   UNK     1     -10.982  14.129  64.502  1.00  0.00    -0.328 C  
BRANCH  10  11
HETATM   11  C   UNK     1     -10.431  15.062  65.577  1.00  0.00    -0.385 C  
BRANCH  11  12
HETATM   12  C   UNK     1     -10.415  14.386  66.957  1.00  0.00    -0.268 C  
BRANCH  12  13
HETATM   13  C   UNK     1     -11.794  13.920  67.439  1.00  0.00    -0.402 C  
HETATM   14  C   UNK     1     -11.721  12.465  67.933  1.00  0.00    -0.360 C  
HETATM   15  N   UNK     1     -12.301  14.775  68.548  1.00  0.00    -0.594 NA 
HETATM   16  O   UNK     1     -11.701  11.478  67.219  1.00  0.00    -0.576 OA 
HETATM   17  O   UNK     1     -11.636  12.416  69.291  1.00  0.00    -0.282 OA 
HETATM   18  H1  UNK     1     -13.218  14.465  68.869  1.00  0.00     0.000 HD 
HETATM   19  H2  UNK     1     -12.311  15.760  68.285  1.00  0.00     0.000 HD 
ENDBRANCH  12  13
ENDBRANCH  11  12
ENDBRANCH  10  11
ENDBRANCH   5  10
TORSDOF 4
ENDMDL
MODEL       28
REMARK 921   NORMALIZED FREE ENERGY PREDICTED BY IDOCK:   -4.64 KCAL/MOL
REMARK 922        TOTAL FREE ENERGY PREDICTED BY IDOCK:   -6.16 KCAL/MOL
REMARK 923 INTER-LIGAND FREE ENERGY PREDICTED BY IDOCK:   -5.93 KCAL/MOL
REMARK 924 INTRA-LIGAND FREE ENERGY PREDICTED BY IDOCK:   -0.23 KCAL/MOL
REMARK 927      BINDING AFFINITY PREDICTED BY RF-SCORE:    0.00 PKD
ROOT
HETATM    1  C   UNK     1     -12.580  12.252  63.577  1.00  0.00    -0.476 C  
HETATM    2  N   UNK     1     -12.774  12.515  64.985  1.00  0.00    -0.727 NA 
HETATM    3  H   UNK     1     -13.478  11.969  65.483  1.00  0.00     0.000 HD 
HETATM    4  C   UNK     1     -12.076  13.444  65.682  1.00  0.00    -0.434 C  
HETATM    5  N   UNK     1     -12.322  13.338  67.014  1.00  0.00    -0.251 NA 
HETATM    6  N   UNK     1     -11.289  14.332  65.190  1.00  0.00    -0.329 NA 
HETATM    7  H   UNK     1     -12.832  12.534  67.380  1.00  0.00     0.000 HD 
HETATM    8  H2  UNK     1     -11.179  14.339  64.176  1.00  0.00     0.000 HD 
HETATM    9  H1  UNK     1     -10.764  15.032  65.714  1.00  0.00     0.000 HD 
ENDROOT
BRANCH   5  10
HETATM   10  C   UNK     1     -11.848  14.382  67.916  1.00  0.00    -0.349 C  
BRANCH  10  11
HETATM   11  C   UNK     1     -11.186  13.748  69.136  1.00  0.00    -0.307 C  
BRANCH  11  12
HETATM   12  C   UNK     1     -11.662  14.401  70.442  1.00  0.00    -0.346 C  
BRANCH  12  13
HETATM   13  C   UNK     1     -13.158  14.215  70.724  1.00  0.00    -0.226 C  
HETATM   14  C   UNK     1     -13.358  13.346  71.977  1.00  0.00    -0.479 C  
HETATM   15  N   UNK     1     -13.840  15.521  70.935  1.00  0.00    -0.854 NA 
HETATM   16  O   UNK     1     -13.259  12.132  72.018  1.00  0.00    -0.499 OA 
HETATM   17  O   UNK     1     -13.625  14.118  73.066  1.00  0.00    -0.651 OA 
HETATM   18  H1  UNK     1     -14.835  15.397  71.123  1.00  0.00     0.000 HD 
HETATM   19  H2  UNK     1     -13.684  16.155  70.151  1.00  0.00     0.000 HD 
ENDBRANCH  12  13
ENDBRANCH  11  12
ENDBRANCH  10  11
ENDBRANCH   5  10
TORSDOF 4
ENDMDL
MODEL       29
REMARK 921   NORMALIZED FREE ENERGY PREDICTED BY IDOCK:   -4.59 KCAL/MOL
REMARK 922        TOTAL FREE ENERGY PREDICTED BY IDOCK:   -6.10 KCAL/MOL
REMARK 923 INTER-LIGAND FREE ENERGY PREDICTED BY IDOCK:   -5.81 KCAL/MOL
REMARK 924 INTRA-LIGAND FREE ENERGY PREDICTED BY IDOCK:   -0.29 KCAL/MOL
REMARK 927      BINDING AFFINITY PREDICTED BY RF-SCORE:    0.00 PKD
ROOT
HETATM    1  C   UNK     1     -11.393  15.599  70.369  1.00  0.00    -0.358 C  
HETATM    2  N   UNK     1     -11.090  14.281  69.859  1.00  0.00    -0.447 NA 
HETATM    3  H   UNK     1     -10.419  13.711  70.373  1.00  0.00     0.000 HD 
HETATM    4  C   UNK     1     -11.646  13.760  68.737  1.00  0.00    -0.328 C  
HETATM    5  N   UNK     1     -11.334  12.444  68.608  1.00  0.00    -0.264 NA 
HETATM    6  N   UNK     1     -12.364  14.391  67.880  1.00  0.00    -0.599 NA 
HETATM    7  H   UNK     1     -10.889  11.943  69.377  1.00  0.00     0.000 HD 
HETATM    8  H2  UNK     1     -12.532  15.381  68.059  1.00  0.00     0.000 HD 
HETATM    9  H1  UNK     1     -12.782  13.999  67.036  1.00  0.00     0.000 HD 
ENDROOT
BRANCH   5  10
HETATM   10  C   UNK     1     -11.643  11.753  67.360  1.00  0.00    -0.280 C  
BRANCH  10  11
HETATM   11  C   UNK     1     -10.441  11.824  66.422  1.00  0.00    -0.271 C  
BRANCH  11  12
HETATM   12  C   UNK     1     -10.742  11.167  65.067  1.00  0.00    -0.301 C  
BRANCH  12  13
HETATM   13  C   UNK     1     -10.815  12.155  63.896  1.00  0.00    -0.406 C  
HETATM   14  C   UNK     1     -12.261  12.643  63.701  1.00  0.00    -0.536 C  
HETATM   15  N   UNK     1      -9.940  13.338  64.126  1.00  0.00    -0.760 NA 
HETATM   16  O   UNK     1     -13.148  12.015  63.151  1.00  0.00    -0.624 OA 
HETATM   17  O   UNK     1     -12.441  13.867  64.266  1.00  0.00    -0.638 OA 
HETATM   18  H1  UNK     1      -9.988  13.995  63.348  1.00  0.00     0.000 HD 
HETATM   19  H2  UNK     1      -8.978  13.058  64.320  1.00  0.00     0.000 HD 
ENDBRANCH  12  13
ENDBRANCH  11  12
ENDBRANCH  10  11
ENDBRANCH   5  10
TORSDOF 4
ENDMDL
MODEL       30
REMARK 921   NORMALIZED FREE ENERGY PREDICTED BY IDOCK:   -4.56 KCAL/MOL
REMARK 922        TOTAL FREE ENERGY PREDICTED BY IDOCK:   -6.06 KCAL/MOL
REMARK 923 INTER-LIGAND FREE ENERGY PREDICTED BY IDOCK:   -5.91 KCAL/MOL
REMARK 924 INTRA-LIGAND FREE ENERGY PREDICTED BY IDOCK:   -0.15 KCAL/MOL
REMARK 927      BINDING AFFINITY PREDICTED BY RF-SCORE:    0.00 PKD
ROOT
HETATM    1  C   UNK     1     -10.686   9.022  67.681  1.00  0.00    -0.163 C  
HETATM    2  N   UNK     1     -11.370  10.259  67.380  1.00  0.00    -0.448 NA 
HETATM    3  H   UNK     1     -12.117  10.237  66.685  1.00  0.00     0.000 HD 
HETATM    4  C   UNK     1     -11.078  11.446  67.967  1.00  0.00    -0.257 C  
HETATM    5  N   UNK     1     -12.002  12.387  67.644  1.00  0.00    -0.481 NA 
HETATM    6  N   UNK     1     -10.068  11.693  68.720  1.00  0.00    -0.327 NA 
HETATM    7  H   UNK     1     -12.864  12.121  67.167  1.00  0.00     0.000 HD 
HETATM    8  H2  UNK     1      -9.423  10.922  68.894  1.00  0.00     0.000 HD 
HETATM    9  H1  UNK     1      -9.847  12.586  69.162  1.00  0.00     0.000 HD 
ENDROOT
BRANCH   5  10
HETATM   10  C   UNK     1     -11.752  13.784  67.985  1.00  0.00    -0.355 C  
BRANCH  10  11
HETATM   11  C   UNK     1     -12.137  14.678  66.810  1.00  0.00    -0.223 C  
BRANCH  11  12
HETATM   12  C   UNK     1     -10.915  15.406  66.230  1.00  0.00    -0.278 C  
BRANCH  12  13
HETATM   13  C   UNK     1     -10.789  15.297  64.705  1.00  0.00    -0.358 C  
HETATM   14  C   UNK     1     -11.367  13.957  64.219  1.00  0.00    -0.294 C  
HETATM   15  N   UNK     1     -11.508  16.405  64.018  1.00  0.00    -1.573 NA 
HETATM   16  O   UNK     1     -10.802  12.880  64.284  1.00  0.00    -0.350 OA 
HETATM   17  O   UNK     1     -12.628  14.120  63.734  1.00  0.00    -0.804 OA 
HETATM   18  H1  UNK     1     -11.424  16.332  63.005  1.00  0.00     0.000 HD 
HETATM   19  H2  UNK     1     -11.198  17.316  64.355  1.00  0.00     0.000 HD 
ENDBRANCH  12  13
ENDBRANCH  11  12
ENDBRANCH  10  11
ENDBRANCH   5  10
TORSDOF 4
ENDMDL
MODEL       31
REMARK 921   NORMALIZED FREE ENERGY PREDICTED BY IDOCK:   -4.55 KCAL/MOL
REMARK 922        TOTAL FREE ENERGY PREDICTED BY IDOCK:   -6.05 KCAL/MOL
REMARK 923 INTER-LIGAND FREE ENERGY PREDICTED BY IDOCK:   -5.76 KCAL/MOL
REMARK 924 INTRA-LIGAND FREE ENERGY PREDICTED BY IDOCK:   -0.29 KCAL/MOL
REMARK 927      BINDING AFFINITY PREDICTED BY RF-SCORE:    0.00 PKD
ROOT
HETATM    1  C   UNK     1      -8.670  19.628  66.658  1.00  0.00    -0.349 C  
HETATM    2  N   UNK     1      -9.099  18.431  65.969  1.00  0.00    -0.498 NA 
HETATM    3  H   UNK     1      -8.886  18.347  64.975  1.00  0.00     0.000 HD 
HETATM    4  C   UNK     1      -9.767  17.414  66.568  1.00  0.00    -0.293 C  
HETATM    5  N   UNK     1      -9.864  16.343  65.738  1.00  0.00    -0.492 NA 
HETATM    6  N   UNK     1     -10.267  17.425  67.751  1.00  0.00    -0.329 NA 
HETATM    7  H   UNK     1      -9.332  16.316  64.868  1.00  0.00     0.000 HD 
HETATM    8  H2  UNK     1     -10.152  18.281  68.292  1.00  0.00     0.000 HD 
HETATM    9  H1  UNK     1     -10.770  16.660  68.201  1.00  0.00     0.000 HD 
ENDROOT
BRANCH   5  10
HETATM   10  C   UNK     1     -10.737  15.232  66.102  1.00  0.00    -0.320 C  
BRANCH  10  11
HETATM   11  C   UNK     1      -9.966  13.918  66.002  1.00  0.00    -0.325 C  
BRANCH  11  12
HETATM   12  C   UNK     1     -10.912  12.716  65.866  1.00  0.00    -0.310 C  
BRANCH  12  13
HETATM   13  C   UNK     1     -11.043  12.184  64.433  1.00  0.00    -0.333 C  
HETATM   14  C   UNK     1     -12.408  12.575  63.842  1.00  0.00    -0.485 C  
HETATM   15  N   UNK     1      -9.970  12.722  63.552  1.00  0.00    -0.687 NA 
HETATM   16  O   UNK     1     -13.465  12.020  64.083  1.00  0.00    -0.672 OA 
HETATM   17  O   UNK     1     -12.294  13.665  63.035  1.00  0.00    -0.672 OA 
HETATM   18  H1  UNK     1     -10.057  12.369  62.600  1.00  0.00     0.000 HD 
HETATM   19  H2  UNK     1      -9.043  12.538  63.937  1.00  0.00     0.000 HD 
ENDBRANCH  12  13
ENDBRANCH  11  12
ENDBRANCH  10  11
ENDBRANCH   5  10
TORSDOF 4
ENDMDL
MODEL       32
REMARK 921   NORMALIZED FREE ENERGY PREDICTED BY IDOCK:   -4.54 KCAL/MOL
REMARK 922        TOTAL FREE ENERGY PREDICTED BY IDOCK:   -6.04 KCAL/MOL
REMARK 923 INTER-LIGAND FREE ENERGY PREDICTED BY IDOCK:   -5.89 KCAL/MOL
REMARK 924 INTRA-LIGAND FREE ENERGY PREDICTED BY IDOCK:   -0.15 KCAL/MOL
REMARK 927      BINDING AFFINITY PREDICTED BY RF-SCORE:    0.00 PKD
ROOT
HETATM    1  C   UNK     1      -8.824  10.608  62.373  1.00  0.00    -0.282 C  
HETATM    2  N   UNK     1      -9.078  11.778  63.181  1.00  0.00    -0.642 NA 
HETATM    3  H   UNK     1      -8.277  12.284  63.560  1.00  0.00     0.000 HD 
HETATM    4  C   UNK     1     -10.320  12.244  63.466  1.00  0.00    -0.410 C  
HETATM    5  N   UNK     1     -10.256  13.459  64.070  1.00  0.00    -0.752 NA 
HETATM    6  N   UNK     1     -11.430  11.645  63.227  1.00  0.00    -0.815 NA 
HETATM    7  H   UNK     1      -9.372  13.968  64.111  1.00  0.00     0.000 HD 
HETATM    8  H2  UNK     1     -11.373  10.730  62.780  1.00  0.00     0.000 HD 
HETATM    9  H1  UNK     1     -12.364  11.995  63.441  1.00  0.00     0.000 HD 
ENDROOT
BRANCH   5  10
HETATM   10  C   UNK     1     -11.462  14.031  64.660  1.00  0.00    -0.383 C  
BRANCH  10  11
HETATM   11  C   UNK     1     -11.103  14.780  65.940  1.00  0.00    -0.340 C  
BRANCH  11  12
HETATM   12  C   UNK     1     -10.355  16.087  65.640  1.00  0.00    -0.414 C  
BRANCH  12  13
HETATM   13  C   UNK     1      -9.951  16.877  66.891  1.00  0.00    -0.279 C  
HETATM   14  C   UNK     1      -9.854  18.377  66.565  1.00  0.00    -0.359 C  
HETATM   15  N   UNK     1     -10.934  16.691  67.994  1.00  0.00    -0.343 NA 
HETATM   16  O   UNK     1      -8.921  18.916  65.995  1.00  0.00    -0.470 OA 
HETATM   17  O   UNK     1     -10.977  19.035  66.961  1.00  0.00    -0.399 OA 
HETATM   18  H1  UNK     1     -10.666  17.217  68.825  1.00  0.00     0.000 HD 
HETATM   19  H2  UNK     1     -11.077  15.704  68.204  1.00  0.00     0.000 HD 
ENDBRANCH  12  13
ENDBRANCH  11  12
ENDBRANCH  10  11
ENDBRANCH   5  10
TORSDOF 4
ENDMDL
MODEL       33
REMARK 921   NORMALIZED FREE ENERGY PREDICTED BY IDOCK:   -4.54 KCAL/MOL
REMARK 922        TOTAL FREE ENERGY PREDICTED BY IDOCK:   -6.03 KCAL/MOL
REMARK 923 INTER-LIGAND FREE ENERGY PREDICTED BY IDOCK:   -5.49 KCAL/MOL
REMARK 924 INTRA-LIGAND FREE ENERGY PREDICTED BY IDOCK:   -0.54 KCAL/MOL
REMARK 927      BINDING AFFINITY PREDICTED BY RF-SCORE:    0.00 PKD
ROOT
HETATM    1  C   UNK     1     -11.503  10.731  67.879  1.00  0.00    -0.227 C  
HETATM    2  N   UNK     1     -11.712  12.149  67.698  1.00  0.00    -0.472 NA 
HETATM    3  H   UNK     1     -11.846  12.497  66.749  1.00  0.00     0.000 HD 
HETATM    4  C   UNK     1     -11.740  13.044  68.717  1.00  0.00    -0.324 C  
HETATM    5  N   UNK     1     -12.150  14.263  68.280  1.00  0.00    -0.549 NA 
HETATM    6  N   UNK     1     -11.419  12.816  69.939  1.00  0.00    -0.510 NA 
HETATM    7  H   UNK     1     -12.535  14.371  67.341  1.00  0.00     0.000 HD 
HETATM    8  H2  UNK     1     -11.112  11.870  70.166  1.00  0.00     0.000 HD 
HETATM    9  H1  UNK     1     -11.440  13.488  70.705  1.00  0.00     0.000 HD 
ENDROOT
BRANCH   5  10
HETATM   10  C   UNK     1     -12.034  15.418  69.165  1.00  0.00    -0.299 C  
BRANCH  10  11
HETATM   11  C   UNK     1     -10.772  16.204  68.823  1.00  0.00    -0.294 C  
BRANCH  11  12
HETATM   12  C   UNK     1     -11.004  17.160  67.643  1.00  0.00    -0.148 C  
BRANCH  12  13
HETATM   13  C   UNK     1     -10.093  16.894  66.437  1.00  0.00    -0.322 C  
HETATM   14  C   UNK     1     -10.883  16.191  65.319  1.00  0.00    -0.336 C  
HETATM   15  N   UNK     1      -9.524  18.159  65.895  1.00  0.00    -0.498 NA 
HETATM   16  O   UNK     1     -11.166  15.007  65.294  1.00  0.00    -0.345 OA 
HETATM   17  O   UNK     1     -11.271  17.081  64.365  1.00  0.00    -1.167 OA 
HETATM   18  H1  UNK     1      -8.919  17.982  65.093  1.00  0.00     0.000 HD 
HETATM   19  H2  UNK     1      -9.040  18.690  66.619  1.00  0.00     0.000 HD 
ENDBRANCH  12  13
ENDBRANCH  11  12
ENDBRANCH  10  11
ENDBRANCH   5  10
TORSDOF 4
ENDMDL
MODEL       34
REMARK 921   NORMALIZED FREE ENERGY PREDICTED BY IDOCK:   -4.54 KCAL/MOL
REMARK 922        TOTAL FREE ENERGY PREDICTED BY IDOCK:   -6.03 KCAL/MOL
REMARK 923 INTER-LIGAND FREE ENERGY PREDICTED BY IDOCK:   -5.83 KCAL/MOL
REMARK 924 INTRA-LIGAND FREE ENERGY PREDICTED BY IDOCK:   -0.20 KCAL/MOL
REMARK 927      BINDING AFFINITY PREDICTED BY RF-SCORE:    0.00 PKD
ROOT
HETATM    1  C   UNK     1     -10.724   9.412  70.447  1.00  0.00    -0.263 C  
HETATM    2  N   UNK     1     -11.346   9.902  69.238  1.00  0.00    -0.432 NA 
HETATM    3  H   UNK     1     -11.960   9.270  68.724  1.00  0.00     0.000 HD 
HETATM    4  C   UNK     1     -11.162  11.153  68.748  1.00  0.00    -0.253 C  
HETATM    5  N   UNK     1     -12.016  11.402  67.722  1.00  0.00    -0.646 NA 
HETATM    6  N   UNK     1     -10.299  12.011  69.159  1.00  0.00    -0.427 NA 
HETATM    7  H   UNK     1     -12.781  10.758  67.520  1.00  0.00     0.000 HD 
HETATM    8  H2  UNK     1      -9.694  11.724  69.929  1.00  0.00     0.000 HD 
HETATM    9  H1  UNK     1     -10.160  12.952  68.791  1.00  0.00     0.000 HD 
ENDROOT
BRANCH   5  10
HETATM   10  C   UNK     1     -11.831  12.601  66.911  1.00  0.00    -0.355 C  
BRANCH  10  11
HETATM   11  C   UNK     1     -10.831  12.317  65.793  1.00  0.00    -0.313 C  
BRANCH  11  12
HETATM   12  C   UNK     1     -10.570  13.565  64.938  1.00  0.00    -0.409 C  
BRANCH  12  13
HETATM   13  C   UNK     1     -11.626  14.666  65.100  1.00  0.00    -0.371 C  
HETATM   14  C   UNK     1     -10.973  15.957  65.622  1.00  0.00    -0.203 C  
HETATM   15  N   UNK     1     -12.306  14.963  63.809  1.00  0.00    -1.071 NA 
HETATM   16  O   UNK     1     -10.658  16.169  66.780  1.00  0.00    -0.309 OA 
HETATM   17  O   UNK     1     -10.748  16.833  64.606  1.00  0.00    -0.778 OA 
HETATM   18  H1  UNK     1     -13.008  15.695  63.917  1.00  0.00     0.000 HD 
HETATM   19  H2  UNK     1     -12.704  14.121  63.394  1.00  0.00     0.000 HD 
ENDBRANCH  12  13
ENDBRANCH  11  12
ENDBRANCH  10  11
ENDBRANCH   5  10
TORSDOF 4
ENDMDL
MODEL       35
REMARK 921   NORMALIZED FREE ENERGY PREDICTED BY IDOCK:   -4.50 KCAL/MOL
REMARK 922        TOTAL FREE ENERGY PREDICTED BY IDOCK:   -5.99 KCAL/MOL
REMARK 923 INTER-LIGAND FREE ENERGY PREDICTED BY IDOCK:   -5.62 KCAL/MOL
REMARK 924 INTRA-LIGAND FREE ENERGY PREDICTED BY IDOCK:   -0.37 KCAL/MOL
REMARK 927      BINDING AFFINITY PREDICTED BY RF-SCORE:    0.00 PKD
ROOT
HETATM    1  C   UNK     1     -11.987  13.419  63.611  1.00  0.00    -0.446 C  
HETATM    2  N   UNK     1     -11.565  14.112  64.807  1.00  0.00    -0.376 NA 
HETATM    3  H   UNK     1     -11.502  13.579  65.674  1.00  0.00     0.000 HD 
HETATM    4  C   UNK     1     -11.248  15.430  64.843  1.00  0.00    -0.403 C  
HETATM    5  N   UNK     1     -10.699  15.764  66.040  1.00  0.00    -0.323 NA 
HETATM    6  N   UNK     1     -11.437  16.284  63.903  1.00  0.00    -1.539 NA 
HETATM    7  H   UNK     1     -10.430  15.038  66.704  1.00  0.00     0.000 HD 
HETATM    8  H2  UNK     1     -11.867  15.938  63.045  1.00  0.00     0.000 HD 
HETATM    9  H1  UNK     1     -11.198  17.276  63.930  1.00  0.00     0.000 HD 
ENDROOT
BRANCH   5  10
HETATM   10  C   UNK     1     -10.495  17.172  66.367  1.00  0.00    -0.255 C  
BRANCH  10  11
HETATM   11  C   UNK     1     -10.337  17.331  67.877  1.00  0.00    -0.360 C  
BRANCH  11  12
HETATM   12  C   UNK     1     -11.485  16.654  68.640  1.00  0.00    -0.046 C  
BRANCH  12  13
HETATM   13  C   UNK     1     -11.021  15.721  69.766  1.00  0.00    -0.316 C  
HETATM   14  C   UNK     1     -12.204  15.362  70.681  1.00  0.00    -0.385 C  
HETATM   15  N   UNK     1     -10.438  14.462  69.225  1.00  0.00    -0.388 NA 
HETATM   16  O   UNK     1     -12.669  16.082  71.548  1.00  0.00    -0.442 OA 
HETATM   17  O   UNK     1     -12.705  14.136  70.370  1.00  0.00    -0.342 OA 
HETATM   18  H1  UNK     1     -10.130  13.842  69.973  1.00  0.00     0.000 HD 
HETATM   19  H2  UNK     1      -9.686  14.653  68.564  1.00  0.00     0.000 HD 
ENDBRANCH  12  13
ENDBRANCH  11  12
ENDBRANCH  10  11
ENDBRANCH   5  10
TORSDOF 4
ENDMDL
MODEL       36
REMARK 921   NORMALIZED FREE ENERGY PREDICTED BY IDOCK:   -4.49 KCAL/MOL
REMARK 922        TOTAL FREE ENERGY PREDICTED BY IDOCK:   -5.98 KCAL/MOL
REMARK 923 INTER-LIGAND FREE ENERGY PREDICTED BY IDOCK:   -5.78 KCAL/MOL
REMARK 924 INTRA-LIGAND FREE ENERGY PREDICTED BY IDOCK:   -0.20 KCAL/MOL
REMARK 927      BINDING AFFINITY PREDICTED BY RF-SCORE:    0.00 PKD
ROOT
HETATM    1  C   UNK     1     -10.758   6.044  68.406  1.00  0.00    -0.280 C  
HETATM    2  N   UNK     1     -11.008   7.467  68.357  1.00  0.00    -0.438 NA 
HETATM    3  H   UNK     1     -11.509   7.893  69.137  1.00  0.00     0.000 HD 
HETATM    4  C   UNK     1     -10.616   8.267  67.335  1.00  0.00    -0.253 C  
HETATM    5  N   UNK     1     -10.804   9.576  67.645  1.00  0.00    -0.444 NA 
HETATM    6  N   UNK     1     -10.139   7.881  66.207  1.00  0.00    -0.478 NA 
HETATM    7  H   UNK     1     -11.045   9.851  68.597  1.00  0.00     0.000 HD 
HETATM    8  H2  UNK     1     -10.046   6.875  66.065  1.00  0.00     0.000 HD 
HETATM    9  H1  UNK     1      -9.844   8.483  65.438  1.00  0.00     0.000 HD 
ENDROOT
BRANCH   5  10
HETATM   10  C   UNK     1     -10.659  10.587  66.602  1.00  0.00    -0.198 C  
BRANCH  10  11
HETATM   11  C   UNK     1     -11.052  11.955  67.153  1.00  0.00    -0.347 C  
BRANCH  11  12
HETATM   12  C   UNK     1     -11.837  12.776  66.119  1.00  0.00    -0.484 C  
BRANCH  12  13
HETATM   13  C   UNK     1     -11.227  12.754  64.711  1.00  0.00    -0.305 C  
HETATM   14  C   UNK     1     -12.338  12.806  63.649  1.00  0.00    -0.463 C  
HETATM   15  N   UNK     1     -10.308  13.905  64.497  1.00  0.00    -0.652 NA 
HETATM   16  O   UNK     1     -13.028  11.864  63.303  1.00  0.00    -0.707 OA 
HETATM   17  O   UNK     1     -12.489  14.069  63.165  1.00  0.00    -0.733 OA 
HETATM   18  H1  UNK     1      -9.903  13.890  63.561  1.00  0.00     0.000 HD 
HETATM   19  H2  UNK     1      -9.586  13.945  65.216  1.00  0.00     0.000 HD 
ENDBRANCH  12  13
ENDBRANCH  11  12
ENDBRANCH  10  11
ENDBRANCH   5  10
TORSDOF 4
ENDMDL
MODEL       37
REMARK 921   NORMALIZED FREE ENERGY PREDICTED BY IDOCK:   -4.49 KCAL/MOL
REMARK 922        TOTAL FREE ENERGY PREDICTED BY IDOCK:   -5.97 KCAL/MOL
REMARK 923 INTER-LIGAND FREE ENERGY PREDICTED BY IDOCK:   -5.47 KCAL/MOL
REMARK 924 INTRA-LIGAND FREE ENERGY PREDICTED BY IDOCK:   -0.50 KCAL/MOL
REMARK 927      BINDING AFFINITY PREDICTED BY RF-SCORE:    0.00 PKD
ROOT
HETATM    1  C   UNK     1      -9.835   9.071  66.019  1.00  0.00    -0.242 C  
HETATM    2  N   UNK     1      -9.893   8.540  67.362  1.00  0.00    -0.172 NA 
HETATM    3  H   UNK     1      -9.270   8.939  68.063  1.00  0.00     0.000 HD 
HETATM    4  C   UNK     1     -10.727   7.541  67.743  1.00  0.00    -0.163 C  
HETATM    5  N   UNK     1     -10.711   7.384  69.092  1.00  0.00    -0.326 NA 
HETATM    6  N   UNK     1     -11.443   6.810  66.967  1.00  0.00    -0.716 NA 
HETATM    7  H   UNK     1     -10.247   8.072  69.685  1.00  0.00     0.000 HD 
HETATM    8  H2  UNK     1     -11.378   6.998  65.967  1.00  0.00     0.000 HD 
HETATM    9  H1  UNK     1     -12.071   6.058  67.254  1.00  0.00     0.000 HD 
ENDROOT
BRANCH   5  10
HETATM   10  C   UNK     1     -11.362   6.221  69.686  1.00  0.00    -0.422 C  
BRANCH  10  11
HETATM   11  C   UNK     1     -11.557   6.448  71.183  1.00  0.00    -0.378 C  
BRANCH  11  12
HETATM   12  C   UNK     1     -12.817   7.280  71.468  1.00  0.00    -0.430 C  
BRANCH  12  13
HETATM   13  C   UNK     1     -12.568   8.504  72.359  1.00  0.00    -0.348 C  
HETATM   14  C   UNK     1     -12.135   9.705  71.502  1.00  0.00    -0.401 C  
HETATM   15  N   UNK     1     -13.789   8.878  73.124  1.00  0.00    -1.176 NA 
HETATM   16  O   UNK     1     -11.018   9.881  71.047  1.00  0.00    -0.335 OA 
HETATM   17  O   UNK     1     -13.183  10.543  71.274  1.00  0.00    -0.365 OA 
HETATM   18  H1  UNK     1     -13.624   9.692  73.715  1.00  0.00     0.000 HD 
HETATM   19  H2  UNK     1     -14.148   8.091  73.662  1.00  0.00     0.000 HD 
ENDBRANCH  12  13
ENDBRANCH  11  12
ENDBRANCH  10  11
ENDBRANCH   5  10
TORSDOF 4
ENDMDL
MODEL       38
REMARK 921   NORMALIZED FREE ENERGY PREDICTED BY IDOCK:   -4.48 KCAL/MOL
REMARK 922        TOTAL FREE ENERGY PREDICTED BY IDOCK:   -5.97 KCAL/MOL
REMARK 923 INTER-LIGAND FREE ENERGY PREDICTED BY IDOCK:   -5.22 KCAL/MOL
REMARK 924 INTRA-LIGAND FREE ENERGY PREDICTED BY IDOCK:   -0.75 KCAL/MOL
REMARK 927      BINDING AFFINITY PREDICTED BY RF-SCORE:    0.00 PKD
ROOT
HETATM    1  C   UNK     1     -10.103  18.490  68.822  1.00  0.00    -0.356 C  
HETATM    2  N   UNK     1     -10.541  17.305  68.120  1.00  0.00    -0.379 NA 
HETATM    3  H   UNK     1     -10.503  17.309  67.101  1.00  0.00     0.000 HD 
HETATM    4  C   UNK     1     -11.001  16.188  68.738  1.00  0.00    -0.330 C  
HETATM    5  N   UNK     1     -11.151  15.171  67.851  1.00  0.00    -0.309 NA 
HETATM    6  N   UNK     1     -11.282  16.070  69.986  1.00  0.00    -0.340 NA 
HETATM    7  H   UNK     1     -10.783  15.255  66.904  1.00  0.00     0.000 HD 
HETATM    8  H2  UNK     1     -11.146  16.896  70.569  1.00  0.00     0.000 HD 
HETATM    9  H1  UNK     1     -11.627  15.231  70.451  1.00  0.00     0.000 HD 
ENDROOT
BRANCH   5  10
HETATM   10  C   UNK     1     -11.845  13.956  68.266  1.00  0.00    -0.376 C  
BRANCH  10  11
HETATM   11  C   UNK     1     -11.187  12.741  67.618  1.00  0.00    -0.323 C  
BRANCH  11  12
HETATM   12  C   UNK     1     -11.815  12.417  66.255  1.00  0.00    -0.431 C  
BRANCH  12  13
HETATM   13  C   UNK     1     -11.006  12.930  65.057  1.00  0.00    -0.297 C  
HETATM   14  C   UNK     1     -11.715  14.134  64.414  1.00  0.00    -0.392 C  
HETATM   15  N   UNK     1      -9.635  13.345  65.463  1.00  0.00    -0.504 NA 
HETATM   16  O   UNK     1     -12.674  14.071  63.665  1.00  0.00    -0.778 OA 
HETATM   17  O   UNK     1     -11.155  15.305  64.824  1.00  0.00    -0.407 OA 
HETATM   18  H1  UNK     1      -9.098  13.686  64.666  1.00  0.00     0.000 HD 
HETATM   19  H2  UNK     1      -9.147  12.593  65.949  1.00  0.00     0.000 HD 
ENDBRANCH  12  13
ENDBRANCH  11  12
ENDBRANCH  10  11
ENDBRANCH   5  10
TORSDOF 4
ENDMDL
MODEL       39
REMARK 921   NORMALIZED FREE ENERGY PREDICTED BY IDOCK:   -4.47 KCAL/MOL
REMARK 922        TOTAL FREE ENERGY PREDICTED BY IDOCK:   -5.95 KCAL/MOL
REMARK 923 INTER-LIGAND FREE ENERGY PREDICTED BY IDOCK:   -5.70 KCAL/MOL
REMARK 924 INTRA-LIGAND FREE ENERGY PREDICTED BY IDOCK:   -0.24 KCAL/MOL
REMARK 927      BINDING AFFINITY PREDICTED BY RF-SCORE:    0.00 PKD
ROOT
HETATM    1  C   UNK     1     -11.385  11.728  67.176  1.00  0.00    -0.322 C  
HETATM    2  N   UNK     1     -12.032  10.913  68.178  1.00  0.00    -0.796 NA 
HETATM    3  H   UNK     1     -12.510  10.066  67.873  1.00  0.00     0.000 HD 
HETATM    4  C   UNK     1     -12.042  11.210  69.502  1.00  0.00    -0.326 C  
HETATM    5  N   UNK     1     -12.545  10.178  70.227  1.00  0.00    -0.530 NA 
HETATM    6  N   UNK     1     -11.651  12.310  70.037  1.00  0.00    -0.524 NA 
HETATM    7  H   UNK     1     -12.707   9.271  69.788  1.00  0.00     0.000 HD 
HETATM    8  H2  UNK     1     -11.299  13.031  69.406  1.00  0.00     0.000 HD 
HETATM    9  H1  UNK     1     -11.658  12.534  71.032  1.00  0.00     0.000 HD 
ENDROOT
BRANCH   5  10
HETATM   10  C   UNK     1     -12.851  10.377  71.640  1.00  0.00    -0.474 C  
BRANCH  10  11
HETATM   11  C   UNK     1     -13.071   9.026  72.314  1.00  0.00    -0.508 C  
BRANCH  11  12
HETATM   12  C   UNK     1     -11.854   8.104  72.143  1.00  0.00    -0.417 C  
BRANCH  12  13
HETATM   13  C   UNK     1     -12.208   6.678  71.701  1.00  0.00    -0.352 C  
HETATM   14  C   UNK     1     -11.315   6.249  70.525  1.00  0.00    -0.361 C  
HETATM   15  N   UNK     1     -12.033   5.704  72.814  1.00  0.00    -0.521 NA 
HETATM   16  O   UNK     1     -11.468   6.585  69.364  1.00  0.00    -0.355 OA 
HETATM   17  O   UNK     1     -10.287   5.467  70.955  1.00  0.00    -0.219 OA 
HETATM   18  H1  UNK     1     -12.268   4.757  72.520  1.00  0.00     0.000 HD 
HETATM   19  H2  UNK     1     -12.562   5.982  73.640  1.00  0.00     0.000 HD 
ENDBRANCH  12  13
ENDBRANCH  11  12
ENDBRANCH  10  11
ENDBRANCH   5  10
TORSDOF 4
ENDMDL
MODEL       40
REMARK 921   NORMALIZED FREE ENERGY PREDICTED BY IDOCK:   -4.46 KCAL/MOL
REMARK 922        TOTAL FREE ENERGY PREDICTED BY IDOCK:   -5.94 KCAL/MOL
REMARK 923 INTER-LIGAND FREE ENERGY PREDICTED BY IDOCK:   -5.75 KCAL/MOL
REMARK 924 INTRA-LIGAND FREE ENERGY PREDICTED BY IDOCK:   -0.19 KCAL/MOL
REMARK 927      BINDING AFFINITY PREDICTED BY RF-SCORE:    0.00 PKD
ROOT
HETATM    1  C   UNK     1     -12.222  12.400  64.113  1.00  0.00    -0.468 C  
HETATM    2  N   UNK     1     -12.519  12.573  65.517  1.00  0.00    -0.635 NA 
HETATM    3  H   UNK     1     -13.495  12.686  65.791  1.00  0.00     0.000 HD 
HETATM    4  C   UNK     1     -11.575  12.595  66.490  1.00  0.00    -0.381 C  
HETATM    5  N   UNK     1     -12.148  12.571  67.722  1.00  0.00    -0.398 NA 
HETATM    6  N   UNK     1     -10.304  12.645  66.316  1.00  0.00    -0.248 NA 
HETATM    7  H   UNK     1     -13.146  12.384  67.822  1.00  0.00     0.000 HD 
HETATM    8  H2  UNK     1      -9.971  12.672  65.352  1.00  0.00     0.000 HD 
HETATM    9  H1  UNK     1      -9.593  12.662  67.048  1.00  0.00     0.000 HD 
ENDROOT
BRANCH   5  10
HETATM   10  C   UNK     1     -11.323  12.815  68.900  1.00  0.00    -0.296 C  
BRANCH  10  11
HETATM   11  C   UNK     1     -11.903  13.976  69.703  1.00  0.00    -0.386 C  
BRANCH  11  12
HETATM   12  C   UNK     1     -12.292  13.543  71.124  1.00  0.00    -0.377 C  
BRANCH  12  13
HETATM   13  C   UNK     1     -13.261  14.502  71.827  1.00  0.00    -0.351 C  
HETATM   14  C   UNK     1     -12.514  15.335  72.881  1.00  0.00    -0.406 C  
HETATM   15  N   UNK     1     -13.908  15.429  70.857  1.00  0.00    -0.844 NA 
HETATM   16  O   UNK     1     -12.190  14.944  73.989  1.00  0.00    -0.537 OA 
HETATM   17  O   UNK     1     -12.215  16.573  72.401  1.00  0.00    -0.419 OA 
HETATM   18  H1  UNK     1     -14.552  16.067  71.324  1.00  0.00     0.000 HD 
HETATM   19  H2  UNK     1     -14.367  14.919  70.103  1.00  0.00     0.000 HD 
ENDBRANCH  12  13
ENDBRANCH  11  12
ENDBRANCH  10  11
ENDBRANCH   5  10
TORSDOF 4
ENDMDL
MODEL       41
REMARK 921   NORMALIZED FREE ENERGY PREDICTED BY IDOCK:   -4.44 KCAL/MOL
REMARK 922        TOTAL FREE ENERGY PREDICTED BY IDOCK:   -5.91 KCAL/MOL
REMARK 923 INTER-LIGAND FREE ENERGY PREDICTED BY IDOCK:   -5.33 KCAL/MOL
REMARK 924 INTRA-LIGAND FREE ENERGY PREDICTED BY IDOCK:   -0.58 KCAL/MOL
REMARK 927      BINDING AFFINITY PREDICTED BY RF-SCORE:    0.00 PKD
ROOT
HETATM    1  C   UNK     1     -12.300  12.432  63.413  1.00  0.00    -0.499 C  
HETATM    2  N   UNK     1     -11.846  12.380  64.785  1.00  0.00    -0.372 NA 
HETATM    3  H   UNK     1     -11.159  11.670  65.036  1.00  0.00     0.000 HD 
HETATM    4  C   UNK     1     -12.282  13.220  65.756  1.00  0.00    -0.456 C  
HETATM    5  N   UNK     1     -11.546  13.074  66.889  1.00  0.00    -0.346 NA 
HETATM    6  N   UNK     1     -13.260  14.046  65.665  1.00  0.00    -0.664 NA 
HETATM    7  H   UNK     1     -10.690  12.519  66.879  1.00  0.00     0.000 HD 
HETATM    8  H2  UNK     1     -13.759  14.073  64.775  1.00  0.00     0.000 HD 
HETATM    9  H1  UNK     1     -13.588  14.678  66.395  1.00  0.00     0.000 HD 
ENDROOT
BRANCH   5  10
HETATM   10  C   UNK     1     -11.991  13.719  68.120  1.00  0.00    -0.358 C  
BRANCH  10  11
HETATM   11  C   UNK     1     -10.971  14.770  68.548  1.00  0.00    -0.265 C  
BRANCH  11  12
HETATM   12  C   UNK     1     -11.402  16.182  68.121  1.00  0.00    -0.270 C  
BRANCH  12  13
HETATM   13  C   UNK     1     -10.324  16.958  67.354  1.00  0.00    -0.309 C  
HETATM   14  C   UNK     1     -10.197  16.415  65.921  1.00  0.00    -0.359 C  
HETATM   15  N   UNK     1     -10.642  18.411  67.288  1.00  0.00    -0.415 NA 
HETATM   16  O   UNK     1      -9.608  15.397  65.602  1.00  0.00    -0.335 OA 
HETATM   17  O   UNK     1     -10.870  17.205  65.040  1.00  0.00    -0.684 OA 
HETATM   18  H1  UNK     1      -9.925  18.927  66.778  1.00  0.00     0.000 HD 
HETATM   19  H2  UNK     1     -10.795  18.803  68.217  1.00  0.00     0.000 HD 
ENDBRANCH  12  13
ENDBRANCH  11  12
ENDBRANCH  10  11
ENDBRANCH   5  10
TORSDOF 4
ENDMDL
MODEL       42
REMARK 921   NORMALIZED FREE ENERGY PREDICTED BY IDOCK:   -4.43 KCAL/MOL
REMARK 922        TOTAL FREE ENERGY PREDICTED BY IDOCK:   -5.90 KCAL/MOL
REMARK 923 INTER-LIGAND FREE ENERGY PREDICTED BY IDOCK:   -5.35 KCAL/MOL
REMARK 924 INTRA-LIGAND FREE ENERGY PREDICTED BY IDOCK:   -0.55 KCAL/MOL
REMARK 927      BINDING AFFINITY PREDICTED BY RF-SCORE:    0.00 PKD
ROOT
HETATM    1  C   UNK     1     -10.337  19.582  66.785  1.00  0.00    -0.462 C  
HETATM    2  N   UNK     1     -10.591  18.593  65.762  1.00  0.00    -0.580 NA 
HETATM    3  H   UNK     1     -10.878  18.920  64.840  1.00  0.00     0.000 HD 
HETATM    4  C   UNK     1     -10.470  17.257  65.958  1.00  0.00    -0.282 C  
HETATM    5  N   UNK     1     -10.574  16.583  64.783  1.00  0.00    -0.683 NA 
HETATM    6  N   UNK     1     -10.294  16.666  67.084  1.00  0.00    -0.298 NA 
HETATM    7  H   UNK     1     -10.566  17.089  63.897  1.00  0.00     0.000 HD 
HETATM    8  H2  UNK     1     -10.240  17.259  67.913  1.00  0.00     0.000 HD 
HETATM    9  H1  UNK     1     -10.202  15.661  67.232  1.00  0.00     0.000 HD 
ENDROOT
BRANCH   5  10
HETATM   10  C   UNK     1     -10.697  15.129  64.799  1.00  0.00    -0.319 C  
BRANCH  10  11
HETATM   11  C   UNK     1     -12.149  14.733  64.549  1.00  0.00    -0.460 C  
BRANCH  11  12
HETATM   12  C   UNK     1     -12.496  13.398  65.225  1.00  0.00    -0.532 C  
BRANCH  12  13
HETATM   13  C   UNK     1     -11.348  12.799  66.048  1.00  0.00    -0.321 C  
HETATM   14  C   UNK     1     -11.642  12.942  67.551  1.00  0.00    -0.356 C  
HETATM   15  N   UNK     1     -11.148  11.357  65.736  1.00  0.00    -0.210 NA 
HETATM   16  O   UNK     1     -11.501  13.962  68.204  1.00  0.00    -0.277 OA 
HETATM   17  O   UNK     1     -12.127  11.779  68.065  1.00  0.00    -0.572 OA 
HETATM   18  H1  UNK     1     -10.386  10.960  66.284  1.00  0.00     0.000 HD 
HETATM   19  H2  UNK     1     -11.009  11.208  64.737  1.00  0.00     0.000 HD 
ENDBRANCH  12  13
ENDBRANCH  11  12
ENDBRANCH  10  11
ENDBRANCH   5  10
TORSDOF 4
ENDMDL
MODEL       43
REMARK 921   NORMALIZED FREE ENERGY PREDICTED BY IDOCK:   -4.42 KCAL/MOL
REMARK 922        TOTAL FREE ENERGY PREDICTED BY IDOCK:   -5.89 KCAL/MOL
REMARK 923 INTER-LIGAND FREE ENERGY PREDICTED BY IDOCK:   -5.64 KCAL/MOL
REMARK 924 INTRA-LIGAND FREE ENERGY PREDICTED BY IDOCK:   -0.26 KCAL/MOL
REMARK 927      BINDING AFFINITY PREDICTED BY RF-SCORE:    0.00 PKD
ROOT
HETATM    1  C   UNK     1      -9.253  10.478  62.704  1.00  0.00    -0.309 C  
HETATM    2  N   UNK     1      -9.611  11.692  63.403  1.00  0.00    -0.507 NA 
HETATM    3  H   UNK     1      -8.871  12.207  63.880  1.00  0.00     0.000 HD 
HETATM    4  C   UNK     1     -10.873  12.185  63.461  1.00  0.00    -0.458 C  
HETATM    5  N   UNK     1     -10.883  13.429  64.008  1.00  0.00    -0.553 NA 
HETATM    6  N   UNK     1     -11.942  11.586  63.077  1.00  0.00    -0.908 NA 
HETATM    7  H   UNK     1     -10.008  13.929  64.165  1.00  0.00     0.000 HD 
HETATM    8  H2  UNK     1     -11.832  10.649  62.690  1.00  0.00     0.000 HD 
HETATM    9  H1  UNK     1     -12.892  11.957  63.120  1.00  0.00     0.000 HD 
ENDROOT
BRANCH   5  10
HETATM   10  C   UNK     1     -12.157  14.043  64.367  1.00  0.00    -0.458 C  
BRANCH  10  11
HETATM   11  C   UNK     1     -12.500  13.707  65.816  1.00  0.00    -0.524 C  
BRANCH  11  12
HETATM   12  C   UNK     1     -11.244  13.352  66.627  1.00  0.00    -0.330 C  
BRANCH  12  13
HETATM   13  C   UNK     1     -10.873  14.394  67.691  1.00  0.00    -0.273 C  
HETATM   14  C   UNK     1      -9.940  15.459  67.090  1.00  0.00    -0.234 C  
HETATM   15  N   UNK     1     -12.083  15.071  68.235  1.00  0.00    -0.567 NA 
HETATM   16  O   UNK     1      -8.746  15.320  66.893  1.00  0.00    -0.220 OA 
HETATM   17  O   UNK     1     -10.634  16.582  66.760  1.00  0.00    -0.295 OA 
HETATM   18  H1  UNK     1     -11.836  15.763  68.942  1.00  0.00     0.000 HD 
HETATM   19  H2  UNK     1     -12.759  14.396  68.591  1.00  0.00     0.000 HD 
ENDBRANCH  12  13
ENDBRANCH  11  12
ENDBRANCH  10  11
ENDBRANCH   5  10
TORSDOF 4
ENDMDL
MODEL       44
REMARK 921   NORMALIZED FREE ENERGY PREDICTED BY IDOCK:   -4.40 KCAL/MOL
REMARK 922        TOTAL FREE ENERGY PREDICTED BY IDOCK:   -5.87 KCAL/MOL
REMARK 923 INTER-LIGAND FREE ENERGY PREDICTED BY IDOCK:   -5.58 KCAL/MOL
REMARK 924 INTRA-LIGAND FREE ENERGY PREDICTED BY IDOCK:   -0.29 KCAL/MOL
REMARK 927      BINDING AFFINITY PREDICTED BY RF-SCORE:    0.00 PKD
ROOT
HETATM    1  C   UNK     1     -10.342  19.669  66.229  1.00  0.00    -0.518 C  
HETATM    2  N   UNK     1      -9.822  18.438  66.781  1.00  0.00    -0.323 NA 
HETATM    3  H   UNK     1      -9.264  18.492  67.633  1.00  0.00     0.000 HD 
HETATM    4  C   UNK     1     -10.034  17.216  66.233  1.00  0.00    -0.304 C  
HETATM    5  N   UNK     1      -9.604  16.231  67.063  1.00  0.00    -0.227 NA 
HETATM    6  N   UNK     1     -10.555  16.978  65.083  1.00  0.00    -0.687 NA 
HETATM    7  H   UNK     1      -9.333  16.447  68.022  1.00  0.00     0.000 HD 
HETATM    8  H2  UNK     1     -10.836  17.787  64.529  1.00  0.00     0.000 HD 
HETATM    9  H1  UNK     1     -10.714  16.059  64.670  1.00  0.00     0.000 HD 
ENDROOT
BRANCH   5  10
HETATM   10  C   UNK     1      -9.532  14.859  66.570  1.00  0.00    -0.283 C  
BRANCH  10  11
HETATM   11  C   UNK     1     -10.605  14.012  67.249  1.00  0.00    -0.273 C  
BRANCH  11  12
HETATM   12  C   UNK     1     -11.996  14.279  66.654  1.00  0.00    -0.454 C  
BRANCH  12  13
HETATM   13  C   UNK     1     -12.484  13.187  65.694  1.00  0.00    -0.425 C  
HETATM   14  C   UNK     1     -11.998  13.480  64.264  1.00  0.00    -0.432 C  
HETATM   15  N   UNK     1     -11.989  11.843  66.100  1.00  0.00    -0.484 NA 
HETATM   16  O   UNK     1     -12.495  14.291  63.503  1.00  0.00    -0.798 OA 
HETATM   17  O   UNK     1     -10.897  12.738  63.963  1.00  0.00    -0.376 OA 
HETATM   18  H1  UNK     1     -12.313  11.117  65.461  1.00  0.00     0.000 HD 
HETATM   19  H2  UNK     1     -12.237  11.630  67.066  1.00  0.00     0.000 HD 
ENDBRANCH  12  13
ENDBRANCH  11  12
ENDBRANCH  10  11
ENDBRANCH   5  10
TORSDOF 4
ENDMDL
MODEL       45
REMARK 921   NORMALIZED FREE ENERGY PREDICTED BY IDOCK:   -4.39 KCAL/MOL
REMARK 922        TOTAL FREE ENERGY PREDICTED BY IDOCK:   -5.86 KCAL/MOL
REMARK 923 INTER-LIGAND FREE ENERGY PREDICTED BY IDOCK:   -5.15 KCAL/MOL
REMARK 924 INTRA-LIGAND FREE ENERGY PREDICTED BY IDOCK:   -0.71 KCAL/MOL
REMARK 927      BINDING AFFINITY PREDICTED BY RF-SCORE:    0.00 PKD
ROOT
HETATM    1  C   UNK     1     -11.992  14.834  64.512  1.00  0.00    -0.440 C  
HETATM    2  N   UNK     1     -11.076  15.877  64.914  1.00  0.00    -0.445 NA 
HETATM    3  H   UNK     1     -11.303  16.839  64.662  1.00  0.00     0.000 HD 
HETATM    4  C   UNK     1      -9.932  15.651  65.606  1.00  0.00    -0.354 C  
HETATM    5  N   UNK     1      -9.375  16.820  66.018  1.00  0.00    -0.472 NA 
HETATM    6  N   UNK     1      -9.403  14.506  65.850  1.00  0.00    -0.527 NA 
HETATM    7  H   UNK     1      -9.894  17.695  65.934  1.00  0.00     0.000 HD 
HETATM    8  H2  UNK     1      -9.891  13.687  65.488  1.00  0.00     0.000 HD 
HETATM    9  H1  UNK     1      -8.543  14.336  66.371  1.00  0.00     0.000 HD 
ENDROOT
BRANCH   5  10
HETATM   10  C   UNK     1      -8.029  16.814  66.581  1.00  0.00    -0.271 C  
BRANCH  10  11
HETATM   11  C   UNK     1      -8.103  16.993  68.094  1.00  0.00    -0.212 C  
BRANCH  11  12
HETATM   12  C   UNK     1      -8.142  18.478  68.487  1.00  0.00    -0.354 C  
BRANCH  12  13
HETATM   13  C   UNK     1      -9.553  19.012  68.767  1.00  0.00    -0.396 C  
HETATM   14  C   UNK     1     -10.051  19.849  67.576  1.00  0.00    -0.429 C  
HETATM   15  N   UNK     1     -10.517  17.904  69.008  1.00  0.00    -0.416 NA 
HETATM   16  O   UNK     1      -9.725  20.998  67.337  1.00  0.00    -0.416 OA 
HETATM   17  O   UNK     1     -10.883  19.120  66.784  1.00  0.00    -0.419 OA 
HETATM   18  H1  UNK     1     -11.455  18.260  69.195  1.00  0.00     0.000 HD 
HETATM   19  H2  UNK     1     -10.197  17.286  69.753  1.00  0.00     0.000 HD 
ENDBRANCH  12  13
ENDBRANCH  11  12
ENDBRANCH  10  11
ENDBRANCH   5  10
TORSDOF 4
ENDMDL
MODEL       46
REMARK 921   NORMALIZED FREE ENERGY PREDICTED BY IDOCK:   -4.35 KCAL/MOL
REMARK 922        TOTAL FREE ENERGY PREDICTED BY IDOCK:   -5.80 KCAL/MOL
REMARK 923 INTER-LIGAND FREE ENERGY PREDICTED BY IDOCK:   -5.62 KCAL/MOL
REMARK 924 INTRA-LIGAND FREE ENERGY PREDICTED BY IDOCK:   -0.18 KCAL/MOL
REMARK 927      BINDING AFFINITY PREDICTED BY RF-SCORE:    0.00 PKD
ROOT
HETATM    1  C   UNK     1      -5.828  20.811  65.059  1.00  0.00    -0.237 C  
HETATM    2  N   UNK     1      -6.671  19.637  65.048  1.00  0.00    -0.389 NA 
HETATM    3  H   UNK     1      -6.820  19.163  64.158  1.00  0.00     0.000 HD 
HETATM    4  C   UNK     1      -7.275  19.131  66.151  1.00  0.00    -0.262 C  
HETATM    5  N   UNK     1      -7.836  17.923  65.886  1.00  0.00    -0.545 NA 
HETATM    6  N   UNK     1      -7.342  19.690  67.306  1.00  0.00    -0.224 NA 
HETATM    7  H   UNK     1      -7.638  17.445  65.006  1.00  0.00     0.000 HD 
HETATM    8  H2  UNK     1      -6.899  20.604  67.402  1.00  0.00     0.000 HD 
HETATM    9  H1  UNK     1      -7.797  19.310  68.136  1.00  0.00     0.000 HD 
ENDROOT
BRANCH   5  10
HETATM   10  C   UNK     1      -8.724  17.314  66.870  1.00  0.00    -0.240 C  
BRANCH  10  11
HETATM   11  C   UNK     1     -10.103  17.095  66.254  1.00  0.00    -0.329 C  
BRANCH  11  12
HETATM   12  C   UNK     1     -10.396  15.602  66.039  1.00  0.00    -0.351 C  
BRANCH  12  13
HETATM   13  C   UNK     1     -10.706  15.230  64.583  1.00  0.00    -0.200 C  
HETATM   14  C   UNK     1     -11.540  13.939  64.531  1.00  0.00    -0.393 C  
HETATM   15  N   UNK     1     -11.458  16.313  63.893  1.00  0.00    -1.539 NA 
HETATM   16  O   UNK     1     -11.102  12.810  64.666  1.00  0.00    -0.294 OA 
HETATM   17  O   UNK     1     -12.860  14.220  64.354  1.00  0.00    -0.619 OA 
HETATM   18  H1  UNK     1     -11.664  16.066  62.925  1.00  0.00     0.000 HD 
HETATM   19  H2  UNK     1     -10.969  17.206  63.954  1.00  0.00     0.000 HD 
ENDBRANCH  12  13
ENDBRANCH  11  12
ENDBRANCH  10  11
ENDBRANCH   5  10
TORSDOF 4
ENDMDL
MODEL       47
REMARK 921   NORMALIZED FREE ENERGY PREDICTED BY IDOCK:   -4.35 KCAL/MOL
REMARK 922        TOTAL FREE ENERGY PREDICTED BY IDOCK:   -5.80 KCAL/MOL
REMARK 923 INTER-LIGAND FREE ENERGY PREDICTED BY IDOCK:   -5.25 KCAL/MOL
REMARK 924 INTRA-LIGAND FREE ENERGY PREDICTED BY IDOCK:   -0.55 KCAL/MOL
REMARK 927      BINDING AFFINITY PREDICTED BY RF-SCORE:    0.00 PKD
ROOT
HETATM    1  C   UNK     1      -7.975  16.470  67.084  1.00  0.00    -0.180 C  
HETATM    2  N   UNK     1      -8.209  15.133  66.588  1.00  0.00    -0.368 NA 
HETATM    3  H   UNK     1      -8.112  14.968  65.586  1.00  0.00     0.000 HD 
HETATM    4  C   UNK     1      -8.551  14.084  67.377  1.00  0.00    -0.203 C  
HETATM    5  N   UNK     1      -8.511  12.919  66.680  1.00  0.00    -0.424 NA 
HETATM    6  N   UNK     1      -8.887  14.142  68.616  1.00  0.00    -0.292 NA 
HETATM    7  H   UNK     1      -8.102  12.892  65.746  1.00  0.00     0.000 HD 
HETATM    8  H2  UNK     1      -8.898  15.066  69.048  1.00  0.00     0.000 HD 
HETATM    9  H1  UNK     1      -9.145  13.354  69.210  1.00  0.00     0.000 HD 
ENDROOT
BRANCH   5  10
HETATM   10  C   UNK     1      -9.060  11.707  67.279  1.00  0.00    -0.167 C  
BRANCH  10  11
HETATM   11  C   UNK     1     -10.125  11.116  66.361  1.00  0.00    -0.269 C  
BRANCH  11  12
HETATM   12  C   UNK     1     -11.124  12.185  65.892  1.00  0.00    -0.360 C  
BRANCH  12  13
HETATM   13  C   UNK     1     -10.984  12.565  64.413  1.00  0.00    -0.340 C  
HETATM   14  C   UNK     1     -12.366  12.861  63.807  1.00  0.00    -0.417 C  
HETATM   15  N   UNK     1     -10.119  13.764  64.238  1.00  0.00    -0.734 NA 
HETATM   16  O   UNK     1     -13.176  12.022  63.454  1.00  0.00    -0.687 OA 
HETATM   17  O   UNK     1     -12.594  14.202  63.750  1.00  0.00    -0.804 OA 
HETATM   18  H1  UNK     1     -10.026  14.017  63.255  1.00  0.00     0.000 HD 
HETATM   19  H2  UNK     1      -9.209  13.635  64.680  1.00  0.00     0.000 HD 
ENDBRANCH  12  13
ENDBRANCH  11  12
ENDBRANCH  10  11
ENDBRANCH   5  10
TORSDOF 4
ENDMDL
MODEL       48
REMARK 921   NORMALIZED FREE ENERGY PREDICTED BY IDOCK:   -4.33 KCAL/MOL
REMARK 922        TOTAL FREE ENERGY PREDICTED BY IDOCK:   -5.78 KCAL/MOL
REMARK 923 INTER-LIGAND FREE ENERGY PREDICTED BY IDOCK:   -5.64 KCAL/MOL
REMARK 924 INTRA-LIGAND FREE ENERGY PREDICTED BY IDOCK:   -0.14 KCAL/MOL
REMARK 927      BINDING AFFINITY PREDICTED BY RF-SCORE:    0.00 PKD
ROOT
HETATM    1  C   UNK     1      -7.742  20.617  67.114  1.00  0.00    -0.296 C  
HETATM    2  N   UNK     1      -8.066  19.342  66.514  1.00  0.00    -0.285 NA 
HETATM    3  H   UNK     1      -7.308  18.799  66.101  1.00  0.00     0.000 HD 
HETATM    4  C   UNK     1      -9.320  18.826  66.469  1.00  0.00    -0.336 C  
HETATM    5  N   UNK     1      -9.299  17.540  66.032  1.00  0.00    -0.510 NA 
HETATM    6  N   UNK     1     -10.406  19.439  66.774  1.00  0.00    -0.408 NA 
HETATM    7  H   UNK     1      -8.414  17.042  65.939  1.00  0.00     0.000 HD 
HETATM    8  H2  UNK     1     -10.318  20.408  67.081  1.00  0.00     0.000 HD 
HETATM    9  H1  UNK     1     -11.349  19.052  66.740  1.00  0.00     0.000 HD 
ENDROOT
BRANCH   5  10
HETATM   10  C   UNK     1     -10.555  16.878  65.696  1.00  0.00    -0.221 C  
BRANCH  10  11
HETATM   11  C   UNK     1     -10.284  15.427  65.306  1.00  0.00    -0.390 C  
BRANCH  11  12
HETATM   12  C   UNK     1     -11.492  14.797  64.597  1.00  0.00    -0.381 C  
BRANCH  12  13
HETATM   13  C   UNK     1     -11.324  13.304  64.286  1.00  0.00    -0.393 C  
HETATM   14  C   UNK     1     -12.294  12.470  65.140  1.00  0.00    -0.429 C  
HETATM   15  N   UNK     1     -11.584  13.015  62.849  1.00  0.00    -0.627 NA 
HETATM   16  O   UNK     1     -12.133  12.184  66.313  1.00  0.00    -0.626 OA 
HETATM   17  O   UNK     1     -13.396  12.119  64.422  1.00  0.00    -0.740 OA 
HETATM   18  H1  UNK     1     -11.472  12.023  62.642  1.00  0.00     0.000 HD 
HETATM   19  H2  UNK     1     -11.003  13.592  62.241  1.00  0.00     0.000 HD 
ENDBRANCH  12  13
ENDBRANCH  11  12
ENDBRANCH  10  11
ENDBRANCH   5  10
TORSDOF 4
ENDMDL
MODEL       49
REMARK 921   NORMALIZED FREE ENERGY PREDICTED BY IDOCK:   -4.32 KCAL/MOL
REMARK 922        TOTAL FREE ENERGY PREDICTED BY IDOCK:   -5.77 KCAL/MOL
REMARK 923 INTER-LIGAND FREE ENERGY PREDICTED BY IDOCK:   -5.30 KCAL/MOL
REMARK 924 INTRA-LIGAND FREE ENERGY PREDICTED BY IDOCK:   -0.47 KCAL/MOL
REMARK 927      BINDING AFFINITY PREDICTED BY RF-SCORE:    0.00 PKD
ROOT
HETATM    1  C   UNK     1      -9.202  19.553  68.060  1.00  0.00    -0.334 C  
HETATM    2  N   UNK     1     -10.182  18.515  68.287  1.00  0.00    -0.376 NA 
HETATM    3  H   UNK     1     -11.169  18.765  68.223  1.00  0.00     0.000 HD 
HETATM    4  C   UNK     1      -9.866  17.230  68.580  1.00  0.00    -0.307 C  
HETATM    5  N   UNK     1     -10.969  16.439  68.544  1.00  0.00    -0.337 NA 
HETATM    6  N   UNK     1      -8.698  16.781  68.871  1.00  0.00    -0.249 NA 
HETATM    7  H   UNK     1     -11.848  16.797  68.168  1.00  0.00     0.000 HD 
HETATM    8  H2  UNK     1      -7.934  17.457  68.883  1.00  0.00     0.000 HD 
HETATM    9  H1  UNK     1      -8.460  15.814  69.091  1.00  0.00     0.000 HD 
ENDROOT
BRANCH   5  10
HETATM   10  C   UNK     1     -10.887  15.071  69.047  1.00  0.00    -0.242 C  
BRANCH  10  11
HETATM   11  C   UNK     1     -10.997  14.088  67.885  1.00  0.00    -0.261 C  
BRANCH  11  12
HETATM   12  C   UNK     1     -11.853  14.655  66.743  1.00  0.00    -0.334 C  
BRANCH  12  13
HETATM   13  C   UNK     1     -11.095  14.825  65.420  1.00  0.00    -0.357 C  
HETATM   14  C   UNK     1     -12.081  14.819  64.239  1.00  0.00    -0.394 C  
HETATM   15  N   UNK     1     -10.326  16.100  65.392  1.00  0.00    -0.539 NA 
HETATM   16  O   UNK     1     -12.591  13.826  63.752  1.00  0.00    -0.712 OA 
HETATM   17  O   UNK     1     -12.350  16.087  63.823  1.00  0.00    -0.858 OA 
HETATM   18  H1  UNK     1      -9.823  16.213  64.513  1.00  0.00     0.000 HD 
HETATM   19  H2  UNK     1      -9.700  16.175  66.194  1.00  0.00     0.000 HD 
ENDBRANCH  12  13
ENDBRANCH  11  12
ENDBRANCH  10  11
ENDBRANCH   5  10
TORSDOF 4
ENDMDL
MODEL       50
REMARK 921   NORMALIZED FREE ENERGY PREDICTED BY IDOCK:   -4.31 KCAL/MOL
REMARK 922        TOTAL FREE ENERGY PREDICTED BY IDOCK:   -5.75 KCAL/MOL
REMARK 923 INTER-LIGAND FREE ENERGY PREDICTED BY IDOCK:   -4.99 KCAL/MOL
REMARK 924 INTRA-LIGAND FREE ENERGY PREDICTED BY IDOCK:   -0.76 KCAL/MOL
REMARK 927      BINDING AFFINITY PREDICTED BY RF-SCORE:    0.00 PKD
ROOT
HETATM    1  C   UNK     1     -10.690  10.953  69.185  1.00  0.00    -0.226 C  
HETATM    2  N   UNK     1     -10.081  11.687  68.099  1.00  0.00    -0.190 NA 
HETATM    3  H   UNK     1      -9.732  11.160  67.299  1.00  0.00     0.000 HD 
HETATM    4  C   UNK     1      -9.947  13.037  68.083  1.00  0.00    -0.231 C  
HETATM    5  N   UNK     1      -9.525  13.467  66.865  1.00  0.00    -0.250 NA 
HETATM    6  N   UNK     1     -10.164  13.835  69.065  1.00  0.00    -0.430 NA 
HETATM    7  H   UNK     1      -9.505  12.827  66.071  1.00  0.00     0.000 HD 
HETATM    8  H2  UNK     1     -10.466  13.413  69.943  1.00  0.00     0.000 HD 
HETATM    9  H1  UNK     1     -10.063  14.850  69.053  1.00  0.00     0.000 HD 
ENDROOT
BRANCH   5  10
HETATM   10  C   UNK     1      -9.103  14.855  66.703  1.00  0.00    -0.280 C  
BRANCH  10  11
HETATM   11  C   UNK     1     -10.170  15.631  65.936  1.00  0.00    -0.372 C  
BRANCH  11  12
HETATM   12  C   UNK     1     -10.864  14.751  64.885  1.00  0.00    -0.433 C  
BRANCH  12  13
HETATM   13  C   UNK     1     -12.277  14.304  65.280  1.00  0.00    -0.414 C  
HETATM   14  C   UNK     1     -12.494  12.830  64.897  1.00  0.00    -0.497 C  
HETATM   15  N   UNK     1     -12.507  14.456  66.743  1.00  0.00    -0.516 NA 
HETATM   16  O   UNK     1     -12.741  12.421  63.776  1.00  0.00    -0.693 OA 
HETATM   17  O   UNK     1     -12.333  12.018  65.978  1.00  0.00    -0.462 OA 
HETATM   18  H1  UNK     1     -13.447  14.158  67.005  1.00  0.00     0.000 HD 
HETATM   19  H2  UNK     1     -12.316  15.408  67.054  1.00  0.00     0.000 HD 
ENDBRANCH  12  13
ENDBRANCH  11  12
ENDBRANCH  10  11
ENDBRANCH   5  10
TORSDOF 4
ENDMDL
MODEL       51
REMARK 921   NORMALIZED FREE ENERGY PREDICTED BY IDOCK:   -4.31 KCAL/MOL
REMARK 922        TOTAL FREE ENERGY PREDICTED BY IDOCK:   -5.75 KCAL/MOL
REMARK 923 INTER-LIGAND FREE ENERGY PREDICTED BY IDOCK:   -5.08 KCAL/MOL
REMARK 924 INTRA-LIGAND FREE ENERGY PREDICTED BY IDOCK:   -0.67 KCAL/MOL
REMARK 927      BINDING AFFINITY PREDICTED BY RF-SCORE:    0.00 PKD
ROOT
HETATM    1  C   UNK     1      -9.797   9.639  69.220  1.00  0.00    -0.189 C  
HETATM    2  N   UNK     1      -9.636  11.073  69.298  1.00  0.00    -0.421 NA 
HETATM    3  H   UNK     1      -8.790  11.438  69.737  1.00  0.00     0.000 HD 
HETATM    4  C   UNK     1     -10.543  11.962  68.824  1.00  0.00    -0.206 C  
HETATM    5  N   UNK     1     -10.045  13.225  68.851  1.00  0.00    -0.430 NA 
HETATM    6  N   UNK     1     -11.728  11.691  68.408  1.00  0.00    -0.393 NA 
HETATM    7  H   UNK     1      -9.057  13.385  69.048  1.00  0.00     0.000 HD 
HETATM    8  H2  UNK     1     -12.014  10.712  68.438  1.00  0.00     0.000 HD 
HETATM    9  H1  UNK     1     -12.411  12.359  68.051  1.00  0.00     0.000 HD 
ENDROOT
BRANCH   5  10
HETATM   10  C   UNK     1     -10.936  14.352  68.597  1.00  0.00    -0.250 C  
BRANCH  10  11
HETATM   11  C   UNK     1     -10.783  15.390  69.706  1.00  0.00    -0.300 C  
BRANCH  11  12
HETATM   12  C   UNK     1     -11.610  15.018  70.946  1.00  0.00    -0.364 C  
BRANCH  12  13
HETATM   13  C   UNK     1     -12.997  14.446  70.623  1.00  0.00    -0.289 C  
HETATM   14  C   UNK     1     -13.272  13.202  71.485  1.00  0.00    -0.282 C  
HETATM   15  N   UNK     1     -14.071  15.446  70.872  1.00  0.00    -0.864 NA 
HETATM   16  O   UNK     1     -12.827  12.087  71.277  1.00  0.00    -0.365 OA 
HETATM   17  O   UNK     1     -14.055  13.515  72.553  1.00  0.00    -0.731 OA 
HETATM   18  H1  UNK     1     -14.992  15.065  70.657  1.00  0.00     0.000 HD 
HETATM   19  H2  UNK     1     -13.897  16.314  70.365  1.00  0.00     0.000 HD 
ENDBRANCH  12  13
ENDBRANCH  11  12
ENDBRANCH  10  11
ENDBRANCH   5  10
TORSDOF 4
ENDMDL
MODEL       52
REMARK 921   NORMALIZED FREE ENERGY PREDICTED BY IDOCK:   -4.30 KCAL/MOL
REMARK 922        TOTAL FREE ENERGY PREDICTED BY IDOCK:   -5.74 KCAL/MOL
REMARK 923 INTER-LIGAND FREE ENERGY PREDICTED BY IDOCK:   -5.23 KCAL/MOL
REMARK 924 INTRA-LIGAND FREE ENERGY PREDICTED BY IDOCK:   -0.51 KCAL/MOL
REMARK 927      BINDING AFFINITY PREDICTED BY RF-SCORE:    0.00 PKD
ROOT
HETATM    1  C   UNK     1     -12.657  11.904  63.488  1.00  0.00    -0.459 C  
HETATM    2  N   UNK     1     -12.362  12.099  64.889  1.00  0.00    -0.435 NA 
HETATM    3  H   UNK     1     -12.177  11.275  65.460  1.00  0.00     0.000 HD 
HETATM    4  C   UNK     1     -12.316  13.315  65.488  1.00  0.00    -0.480 C  
HETATM    5  N   UNK     1     -11.824  13.216  66.750  1.00  0.00    -0.379 NA 
HETATM    6  N   UNK     1     -12.690  14.431  64.974  1.00  0.00    -0.599 NA 
HETATM    7  H   UNK     1     -11.403  12.344  67.071  1.00  0.00     0.000 HD 
HETATM    8  H2  UNK     1     -13.057  14.400  64.023  1.00  0.00     0.000 HD 
HETATM    9  H1  UNK     1     -12.655  15.346  65.424  1.00  0.00     0.000 HD 
ENDROOT
BRANCH   5  10
HETATM   10  C   UNK     1     -11.902  14.367  67.643  1.00  0.00    -0.378 C  
BRANCH  10  11
HETATM   11  C   UNK     1     -10.541  15.053  67.719  1.00  0.00    -0.264 C  
BRANCH  11  12
HETATM   12  C   UNK     1     -10.681  16.582  67.780  1.00  0.00    -0.329 C  
BRANCH  12  13
HETATM   13  C   UNK     1     -10.891  17.244  66.412  1.00  0.00     0.061 C  
HETATM   14  C   UNK     1     -10.343  18.681  66.428  1.00  0.00    -0.432 C  
HETATM   15  N   UNK     1     -10.208  16.485  65.329  1.00  0.00    -0.596 NA 
HETATM   16  O   UNK     1     -10.906  19.645  66.916  1.00  0.00    -0.483 OA 
HETATM   17  O   UNK     1      -9.110  18.738  65.855  1.00  0.00    -0.456 OA 
HETATM   18  H1  UNK     1     -10.347  16.925  64.420  1.00  0.00     0.000 HD 
HETATM   19  H2  UNK     1     -10.496  15.507  65.319  1.00  0.00     0.000 HD 
ENDBRANCH  12  13
ENDBRANCH  11  12
ENDBRANCH  10  11
ENDBRANCH   5  10
TORSDOF 4
ENDMDL
MODEL       53
REMARK 921   NORMALIZED FREE ENERGY PREDICTED BY IDOCK:   -4.29 KCAL/MOL
REMARK 922        TOTAL FREE ENERGY PREDICTED BY IDOCK:   -5.74 KCAL/MOL
REMARK 923 INTER-LIGAND FREE ENERGY PREDICTED BY IDOCK:   -5.56 KCAL/MOL
REMARK 924 INTRA-LIGAND FREE ENERGY PREDICTED BY IDOCK:   -0.18 KCAL/MOL
REMARK 927      BINDING AFFINITY PREDICTED BY RF-SCORE:    0.00 PKD
ROOT
HETATM    1  C   UNK     1     -12.165   6.977  71.673  1.00  0.00    -0.357 C  
HETATM    2  N   UNK     1     -12.542   8.094  70.836  1.00  0.00    -0.505 NA 
HETATM    3  H   UNK     1     -13.404   8.020  70.296  1.00  0.00     0.000 HD 
HETATM    4  C   UNK     1     -11.817   9.235  70.728  1.00  0.00    -0.243 C  
HETATM    5  N   UNK     1     -12.502  10.182  70.036  1.00  0.00    -0.522 NA 
HETATM    6  N   UNK     1     -10.634   9.430  71.188  1.00  0.00    -0.320 NA 
HETATM    7  H   UNK     1     -13.488  10.044  69.814  1.00  0.00     0.000 HD 
HETATM    8  H2  UNK     1     -10.198   8.653  71.684  1.00  0.00     0.000 HD 
HETATM    9  H1  UNK     1     -10.088  10.288  71.107  1.00  0.00     0.000 HD 
ENDROOT
BRANCH   5  10
HETATM   10  C   UNK     1     -11.816  11.398  69.614  1.00  0.00    -0.362 C  
BRANCH  10  11
HETATM   11  C   UNK     1     -11.682  11.412  68.094  1.00  0.00    -0.355 C  
BRANCH  11  12
HETATM   12  C   UNK     1     -11.870  12.826  67.523  1.00  0.00    -0.402 C  
BRANCH  12  13
HETATM   13  C   UNK     1     -11.352  12.994  66.089  1.00  0.00    -0.314 C  
HETATM   14  C   UNK     1     -12.530  13.144  65.112  1.00  0.00    -0.483 C  
HETATM   15  N   UNK     1     -10.474  14.190  65.964  1.00  0.00    -0.295 NA 
HETATM   16  O   UNK     1     -13.220  12.230  64.694  1.00  0.00    -0.763 OA 
HETATM   17  O   UNK     1     -12.739  14.451  64.798  1.00  0.00    -0.635 OA 
HETATM   18  H1  UNK     1     -10.130  14.302  65.010  1.00  0.00     0.000 HD 
HETATM   19  H2  UNK     1      -9.709  14.163  66.637  1.00  0.00     0.000 HD 
ENDBRANCH  12  13
ENDBRANCH  11  12
ENDBRANCH  10  11
ENDBRANCH   5  10
TORSDOF 4
ENDMDL
MODEL       54
REMARK 921   NORMALIZED FREE ENERGY PREDICTED BY IDOCK:   -4.28 KCAL/MOL
REMARK 922        TOTAL FREE ENERGY PREDICTED BY IDOCK:   -5.72 KCAL/MOL
REMARK 923 INTER-LIGAND FREE ENERGY PREDICTED BY IDOCK:   -5.26 KCAL/MOL
REMARK 924 INTRA-LIGAND FREE ENERGY PREDICTED BY IDOCK:   -0.46 KCAL/MOL
REMARK 927      BINDING AFFINITY PREDICTED BY RF-SCORE:    0.00 PKD
ROOT
HETATM    1  C   UNK     1     -12.762  16.203  73.423  1.00  0.00    -0.527 C  
HETATM    2  N   UNK     1     -12.132  15.307  72.479  1.00  0.00    -0.378 NA 
HETATM    3  H   UNK     1     -11.237  14.892  72.736  1.00  0.00     0.000 HD 
HETATM    4  C   UNK     1     -12.663  14.988  71.273  1.00  0.00    -0.348 C  
HETATM    5  N   UNK     1     -11.964  13.982  70.687  1.00  0.00    -0.422 NA 
HETATM    6  N   UNK     1     -13.678  15.544  70.717  1.00  0.00    -0.859 NA 
HETATM    7  H   UNK     1     -11.259  13.468  71.216  1.00  0.00     0.000 HD 
HETATM    8  H2  UNK     1     -14.129  16.300  71.233  1.00  0.00     0.000 HD 
HETATM    9  H1  UNK     1     -14.078  15.304  69.810  1.00  0.00     0.000 HD 
ENDROOT
BRANCH   5  10
HETATM   10  C   UNK     1     -12.229  13.642  69.293  1.00  0.00    -0.238 C  
BRANCH  10  11
HETATM   11  C   UNK     1     -11.399  12.426  68.892  1.00  0.00    -0.342 C  
BRANCH  11  12
HETATM   12  C   UNK     1     -12.149  11.114  69.166  1.00  0.00    -0.352 C  
BRANCH  12  13
HETATM   13  C   UNK     1     -11.734  10.418  70.469  1.00  0.00    -0.344 C  
HETATM   14  C   UNK     1     -12.755  10.716  71.579  1.00  0.00    -0.444 C  
HETATM   15  N   UNK     1     -11.639   8.943  70.292  1.00  0.00    -0.456 NA 
HETATM   16  O   UNK     1     -12.819  11.751  72.220  1.00  0.00    -0.171 OA 
HETATM   17  O   UNK     1     -13.623   9.679  71.733  1.00  0.00    -0.379 OA 
HETATM   18  H1  UNK     1     -11.363   8.480  71.158  1.00  0.00     0.000 HD 
HETATM   19  H2  UNK     1     -11.015   8.698  69.523  1.00  0.00     0.000 HD 
ENDBRANCH  12  13
ENDBRANCH  11  12
ENDBRANCH  10  11
ENDBRANCH   5  10
TORSDOF 4
ENDMDL
MODEL       55
REMARK 921   NORMALIZED FREE ENERGY PREDICTED BY IDOCK:   -4.27 KCAL/MOL
REMARK 922        TOTAL FREE ENERGY PREDICTED BY IDOCK:   -5.71 KCAL/MOL
REMARK 923 INTER-LIGAND FREE ENERGY PREDICTED BY IDOCK:   -5.54 KCAL/MOL
REMARK 924 INTRA-LIGAND FREE ENERGY PREDICTED BY IDOCK:   -0.17 KCAL/MOL
REMARK 927      BINDING AFFINITY PREDICTED BY RF-SCORE:    0.00 PKD
ROOT
HETATM    1  C   UNK     1     -13.149  15.873  73.376  1.00  0.00    -0.587 C  
HETATM    2  N   UNK     1     -12.383  16.208  72.197  1.00  0.00    -0.518 NA 
HETATM    3  H   UNK     1     -11.663  16.926  72.280  1.00  0.00     0.000 HD 
HETATM    4  C   UNK     1     -12.564  15.622  70.987  1.00  0.00    -0.459 C  
HETATM    5  N   UNK     1     -11.582  15.983  70.121  1.00  0.00    -0.336 NA 
HETATM    6  N   UNK     1     -13.527  14.838  70.659  1.00  0.00    -0.587 NA 
HETATM    7  H   UNK     1     -10.760  16.485  70.456  1.00  0.00     0.000 HD 
HETATM    8  H2  UNK     1     -14.223  14.636  71.377  1.00  0.00     0.000 HD 
HETATM    9  H1  UNK     1     -13.664  14.397  69.749  1.00  0.00     0.000 HD 
ENDROOT
BRANCH   5  10
HETATM   10  C   UNK     1     -11.714  15.646  68.708  1.00  0.00    -0.370 C  
BRANCH  10  11
HETATM   11  C   UNK     1     -10.585  16.299  67.915  1.00  0.00    -0.318 C  
BRANCH  11  12
HETATM   12  C   UNK     1     -10.628  17.830  68.029  1.00  0.00    -0.372 C  
BRANCH  12  13
HETATM   13  C   UNK     1      -9.516  18.545  67.250  1.00  0.00    -0.288 C  
HETATM   14  C   UNK     1     -10.086  19.770  66.515  1.00  0.00    -0.476 C  
HETATM   15  N   UNK     1      -8.422  18.997  68.153  1.00  0.00    -0.304 NA 
HETATM   16  O   UNK     1     -10.716  19.738  65.472  1.00  0.00    -0.479 OA 
HETATM   17  O   UNK     1      -9.831  20.914  67.207  1.00  0.00    -0.444 OA 
HETATM   18  H1  UNK     1      -7.683  19.472  67.635  1.00  0.00     0.000 HD 
HETATM   19  H2  UNK     1      -8.053  18.224  68.707  1.00  0.00     0.000 HD 
ENDBRANCH  12  13
ENDBRANCH  11  12
ENDBRANCH  10  11
ENDBRANCH   5  10
TORSDOF 4
ENDMDL
MODEL       56
REMARK 921   NORMALIZED FREE ENERGY PREDICTED BY IDOCK:   -4.25 KCAL/MOL
REMARK 922        TOTAL FREE ENERGY PREDICTED BY IDOCK:   -5.69 KCAL/MOL
REMARK 923 INTER-LIGAND FREE ENERGY PREDICTED BY IDOCK:   -5.34 KCAL/MOL
REMARK 924 INTRA-LIGAND FREE ENERGY PREDICTED BY IDOCK:   -0.35 KCAL/MOL
REMARK 927      BINDING AFFINITY PREDICTED BY RF-SCORE:    0.00 PKD
ROOT
HETATM    1  C   UNK     1     -10.298  17.725  65.982  1.00  0.00    -0.304 C  
HETATM    2  N   UNK     1     -10.464  16.293  65.890  1.00  0.00    -0.347 NA 
HETATM    3  H   UNK     1     -10.055  15.714  66.624  1.00  0.00     0.000 HD 
HETATM    4  C   UNK     1     -11.132  15.673  64.886  1.00  0.00    -0.402 C  
HETATM    5  N   UNK     1     -11.301  14.353  65.158  1.00  0.00    -0.343 NA 
HETATM    6  N   UNK     1     -11.553  16.218  63.802  1.00  0.00    -1.482 NA 
HETATM    7  H   UNK     1     -11.087  13.987  66.086  1.00  0.00     0.000 HD 
HETATM    8  H2  UNK     1     -11.367  17.214  63.685  1.00  0.00     0.000 HD 
HETATM    9  H1  UNK     1     -12.056  15.753  63.046  1.00  0.00     0.000 HD 
ENDROOT
BRANCH   5  10
HETATM   10  C   UNK     1     -11.794  13.463  64.112  1.00  0.00    -0.442 C  
BRANCH  10  11
HETATM   11  C   UNK     1     -10.651  12.592  63.597  1.00  0.00    -0.446 C  
BRANCH  11  12
HETATM   12  C   UNK     1     -10.681  11.190  64.225  1.00  0.00    -0.403 C  
BRANCH  12  13
HETATM   13  C   UNK     1      -9.877  11.072  65.526  1.00  0.00    -0.243 C  
HETATM   14  C   UNK     1      -8.811   9.971  65.393  1.00  0.00    -0.173 C  
HETATM   15  N   UNK     1      -9.200  12.353  65.867  1.00  0.00    -0.435 NA 
HETATM   16  O   UNK     1      -9.019   8.773  65.480  1.00  0.00    -0.193 OA 
HETATM   17  O   UNK     1      -7.590  10.507  65.119  1.00  0.00    -0.129 OA 
HETATM   18  H1  UNK     1      -8.665  12.274  66.731  1.00  0.00     0.000 HD 
HETATM   19  H2  UNK     1      -9.863  13.126  65.907  1.00  0.00     0.000 HD 
ENDBRANCH  12  13
ENDBRANCH  11  12
ENDBRANCH  10  11
ENDBRANCH   5  10
TORSDOF 4
ENDMDL
MODEL       57
REMARK 921   NORMALIZED FREE ENERGY PREDICTED BY IDOCK:   -4.24 KCAL/MOL
REMARK 922        TOTAL FREE ENERGY PREDICTED BY IDOCK:   -5.67 KCAL/MOL
REMARK 923 INTER-LIGAND FREE ENERGY PREDICTED BY IDOCK:   -5.22 KCAL/MOL
REMARK 924 INTRA-LIGAND FREE ENERGY PREDICTED BY IDOCK:   -0.45 KCAL/MOL
REMARK 927      BINDING AFFINITY PREDICTED BY RF-SCORE:    0.00 PKD
ROOT
HETATM    1  C   UNK     1     -12.334  10.610  70.638  1.00  0.00    -0.369 C  
HETATM    2  N   UNK     1     -11.400  11.389  69.858  1.00  0.00    -0.443 NA 
HETATM    3  H   UNK     1     -10.718  10.890  69.287  1.00  0.00     0.000 HD 
HETATM    4  C   UNK     1     -11.377  12.745  69.842  1.00  0.00     0.040 C  
HETATM    5  N   UNK     1     -10.537  13.205  68.878  1.00  0.00    -0.392 NA 
HETATM    6  N   UNK     1     -12.032  13.527  70.622  1.00  0.00    -0.512 NA 
HETATM    7  H   UNK     1     -10.149  12.564  68.185  1.00  0.00     0.000 HD 
HETATM    8  H2  UNK     1     -12.628  13.085  71.323  1.00  0.00     0.000 HD 
HETATM    9  H1  UNK     1     -12.015  14.547  70.611  1.00  0.00     0.000 HD 
ENDROOT
BRANCH   5  10
HETATM   10  C   UNK     1     -10.195  14.623  68.842  1.00  0.00    -0.241 C  
BRANCH  10  11
HETATM   11  C   UNK     1     -10.881  15.287  67.651  1.00  0.00    -0.295 C  
BRANCH  11  12
HETATM   12  C   UNK     1     -10.739  14.445  66.374  1.00  0.00    -0.306 C  
BRANCH  12  13
HETATM   13  C   UNK     1     -12.046  13.789  65.911  1.00  0.00    -0.433 C  
HETATM   14  C   UNK     1     -12.273  14.056  64.413  1.00  0.00    -0.426 C  
HETATM   15  N   UNK     1     -12.026  12.317  66.135  1.00  0.00    -0.618 NA 
HETATM   16  O   UNK     1     -12.695  15.096  63.939  1.00  0.00    -0.759 OA 
HETATM   17  O   UNK     1     -11.898  12.983  63.665  1.00  0.00    -0.469 OA 
HETATM   18  H1  UNK     1     -12.895  11.881  65.826  1.00  0.00     0.000 HD 
HETATM   19  H2  UNK     1     -11.818  12.090  67.107  1.00  0.00     0.000 HD 
ENDBRANCH  12  13
ENDBRANCH  11  12
ENDBRANCH  10  11
ENDBRANCH   5  10
TORSDOF 4
ENDMDL
MODEL       58
REMARK 921   NORMALIZED FREE ENERGY PREDICTED BY IDOCK:   -4.23 KCAL/MOL
REMARK 922        TOTAL FREE ENERGY PREDICTED BY IDOCK:   -5.66 KCAL/MOL
REMARK 923 INTER-LIGAND FREE ENERGY PREDICTED BY IDOCK:   -5.45 KCAL/MOL
REMARK 924 INTRA-LIGAND FREE ENERGY PREDICTED BY IDOCK:   -0.21 KCAL/MOL
REMARK 927      BINDING AFFINITY PREDICTED BY RF-SCORE:    0.00 PKD
ROOT
HETATM    1  C   UNK     1      -7.481  19.376  68.731  1.00  0.00    -0.358 C  
HETATM    2  N   UNK     1      -8.679  18.732  68.242  1.00  0.00    -0.322 NA 
HETATM    3  H   UNK     1      -9.453  18.601  68.893  1.00  0.00     0.000 HD 
HETATM    4  C   UNK     1      -8.833  18.292  66.969  1.00  0.00    -0.266 C  
HETATM    5  N   UNK     1     -10.118  17.914  66.738  1.00  0.00    -0.332 NA 
HETATM    6  N   UNK     1      -7.915  18.213  66.075  1.00  0.00    -0.510 NA 
HETATM    7  H   UNK     1     -10.847  18.127  67.420  1.00  0.00     0.000 HD 
HETATM    8  H2  UNK     1      -6.978  18.510  66.348  1.00  0.00     0.000 HD 
HETATM    9  H1  UNK     1      -8.030  17.882  65.117  1.00  0.00     0.000 HD 
ENDROOT
BRANCH   5  10
HETATM   10  C   UNK     1     -10.446  17.202  65.507  1.00  0.00    -0.144 C  
BRANCH  10  11
HETATM   11  C   UNK     1     -10.533  15.705  65.787  1.00  0.00    -0.383 C  
BRANCH  11  12
HETATM   12  C   UNK     1     -11.421  14.988  64.758  1.00  0.00    -0.403 C  
BRANCH  12  13
HETATM   13  C   UNK     1     -12.586  14.206  65.377  1.00  0.00    -0.466 C  
HETATM   14  C   UNK     1     -12.498  12.722  64.984  1.00  0.00    -0.506 C  
HETATM   15  N   UNK     1     -12.583  14.308  66.863  1.00  0.00    -0.483 NA 
HETATM   16  O   UNK     1     -12.833  12.256  63.909  1.00  0.00    -0.720 OA 
HETATM   17  O   UNK     1     -11.952  11.985  65.989  1.00  0.00    -0.559 OA 
HETATM   18  H1  UNK     1     -13.358  13.788  67.274  1.00  0.00     0.000 HD 
HETATM   19  H2  UNK     1     -12.580  15.280  67.170  1.00  0.00     0.000 HD 
ENDBRANCH  12  13
ENDBRANCH  11  12
ENDBRANCH  10  11
ENDBRANCH   5  10
TORSDOF 4
ENDMDL
MODEL       59
REMARK 921   NORMALIZED FREE ENERGY PREDICTED BY IDOCK:   -4.23 KCAL/MOL
REMARK 922        TOTAL FREE ENERGY PREDICTED BY IDOCK:   -5.66 KCAL/MOL
REMARK 923 INTER-LIGAND FREE ENERGY PREDICTED BY IDOCK:   -5.52 KCAL/MOL
REMARK 924 INTRA-LIGAND FREE ENERGY PREDICTED BY IDOCK:   -0.14 KCAL/MOL
REMARK 927      BINDING AFFINITY PREDICTED BY RF-SCORE:    0.00 PKD
ROOT
HETATM    1  C   UNK     1     -12.633  11.985  63.386  1.00  0.00    -0.469 C  
HETATM    2  N   UNK     1     -12.390  13.158  64.195  1.00  0.00    -0.588 NA 
HETATM    3  H   UNK     1     -13.196  13.659  64.568  1.00  0.00     0.000 HD 
HETATM    4  C   UNK     1     -11.153  13.630  64.487  1.00  0.00    -0.386 C  
HETATM    5  N   UNK     1     -11.218  14.616  65.420  1.00  0.00    -0.334 NA 
HETATM    6  N   UNK     1     -10.046  13.239  63.967  1.00  0.00    -0.776 NA 
HETATM    7  H   UNK     1     -12.091  14.799  65.916  1.00  0.00     0.000 HD 
HETATM    8  H2  UNK     1     -10.103  12.500  63.265  1.00  0.00     0.000 HD 
HETATM    9  H1  UNK     1      -9.116  13.594  64.186  1.00  0.00     0.000 HD 
ENDROOT
BRANCH   5  10
HETATM   10  C   UNK     1     -10.028  15.410  65.707  1.00  0.00    -0.362 C  
BRANCH  10  11
HETATM   11  C   UNK     1     -10.392  16.892  65.727  1.00  0.00    -0.298 C  
BRANCH  11  12
HETATM   12  C   UNK     1     -10.101  17.527  67.096  1.00  0.00    -0.321 C  
BRANCH  12  13
HETATM   13  C   UNK     1     -10.623  18.963  67.241  1.00  0.00    -0.456 C  
HETATM   14  C   UNK     1      -9.662  19.792  68.110  1.00  0.00    -0.398 C  
HETATM   15  N   UNK     1     -10.764  19.628  65.916  1.00  0.00    -0.478 NA 
HETATM   16  O   UNK     1      -9.599  19.753  69.326  1.00  0.00    -0.309 OA 
HETATM   17  O   UNK     1      -8.846  20.558  67.336  1.00  0.00    -0.347 OA 
HETATM   18  H1  UNK     1     -11.110  20.582  66.013  1.00  0.00     0.000 HD 
HETATM   19  H2  UNK     1     -11.347  19.080  65.284  1.00  0.00     0.000 HD 
ENDBRANCH  12  13
ENDBRANCH  11  12
ENDBRANCH  10  11
ENDBRANCH   5  10
TORSDOF 4
ENDMDL
MODEL       60
REMARK 921   NORMALIZED FREE ENERGY PREDICTED BY IDOCK:   -4.23 KCAL/MOL
REMARK 922        TOTAL FREE ENERGY PREDICTED BY IDOCK:   -5.65 KCAL/MOL
REMARK 923 INTER-LIGAND FREE ENERGY PREDICTED BY IDOCK:   -5.29 KCAL/MOL
REMARK 924 INTRA-LIGAND FREE ENERGY PREDICTED BY IDOCK:   -0.36 KCAL/MOL
REMARK 927      BINDING AFFINITY PREDICTED BY RF-SCORE:    0.00 PKD
ROOT
HETATM    1  C   UNK     1     -13.271   9.627  72.056  1.00  0.00    -0.453 C  
HETATM    2  N   UNK     1     -13.205  10.000  70.661  1.00  0.00    -0.607 NA 
HETATM    3  H   UNK     1     -14.070   9.999  70.122  1.00  0.00     0.000 HD 
HETATM    4  C   UNK     1     -12.058  10.351  70.028  1.00  0.00    -0.222 C  
HETATM    5  N   UNK     1     -12.319  10.840  68.788  1.00  0.00    -0.792 NA 
HETATM    6  N   UNK     1     -10.867  10.239  70.494  1.00  0.00    -0.408 NA 
HETATM    7  H   UNK     1     -13.278  11.051  68.509  1.00  0.00     0.000 HD 
HETATM    8  H2  UNK     1     -10.773   9.849  71.432  1.00  0.00     0.000 HD 
HETATM    9  H1  UNK     1     -10.004  10.503  70.017  1.00  0.00     0.000 HD 
ENDROOT
BRANCH   5  10
HETATM   10  C   UNK     1     -11.217  11.063  67.858  1.00  0.00    -0.310 C  
BRANCH  10  11
HETATM   11  C   UNK     1     -10.941  12.559  67.737  1.00  0.00    -0.270 C  
BRANCH  11  12
HETATM   12  C   UNK     1     -12.025  13.393  68.436  1.00  0.00    -0.359 C  
BRANCH  12  13
HETATM   13  C   UNK     1     -11.565  14.040  69.749  1.00  0.00    -0.281 C  
HETATM   14  C   UNK     1     -11.975  15.522  69.784  1.00  0.00    -0.364 C  
HETATM   15  N   UNK     1     -12.155  13.353  70.931  1.00  0.00    -0.484 NA 
HETATM   16  O   UNK     1     -11.401  16.426  69.205  1.00  0.00    -0.308 OA 
HETATM   17  O   UNK     1     -13.106  15.696  70.522  1.00  0.00    -0.436 OA 
HETATM   18  H1  UNK     1     -11.850  13.783  71.803  1.00  0.00     0.000 HD 
HETATM   19  H2  UNK     1     -11.959  12.352  70.918  1.00  0.00     0.000 HD 
ENDBRANCH  12  13
ENDBRANCH  11  12
ENDBRANCH  10  11
ENDBRANCH   5  10
TORSDOF 4
ENDMDL
MODEL       61
REMARK 921   NORMALIZED FREE ENERGY PREDICTED BY IDOCK:   -4.23 KCAL/MOL
REMARK 922        TOTAL FREE ENERGY PREDICTED BY IDOCK:   -5.65 KCAL/MOL
REMARK 923 INTER-LIGAND FREE ENERGY PREDICTED BY IDOCK:   -5.56 KCAL/MOL
REMARK 924 INTRA-LIGAND FREE ENERGY PREDICTED BY IDOCK:   -0.09 KCAL/MOL
REMARK 927      BINDING AFFINITY PREDICTED BY RF-SCORE:    0.00 PKD
ROOT
HETATM    1  C   UNK     1     -12.763  12.233  63.431  1.00  0.00    -0.336 C  
HETATM    2  N   UNK     1     -12.163  13.547  63.374  1.00  0.00    -0.942 NA 
HETATM    3  H   UNK     1     -11.802  13.871  62.477  1.00  0.00     0.000 HD 
HETATM    4  C   UNK     1     -12.052  14.373  64.444  1.00  0.00    -0.470 C  
HETATM    5  N   UNK     1     -11.634  15.607  64.062  1.00  0.00    -0.891 NA 
HETATM    6  N   UNK     1     -12.286  14.066  65.669  1.00  0.00    -0.418 NA 
HETATM    7  H   UNK     1     -11.600  15.856  63.073  1.00  0.00     0.000 HD 
HETATM    8  H2  UNK     1     -12.584  13.109  65.856  1.00  0.00     0.000 HD 
HETATM    9  H1  UNK     1     -12.202  14.687  66.474  1.00  0.00     0.000 HD 
ENDROOT
BRANCH   5  10
HETATM   10  C   UNK     1     -11.235  16.575  65.079  1.00  0.00    -0.087 C  
BRANCH  10  11
HETATM   11  C   UNK     1      -9.963  16.097  65.773  1.00  0.00    -0.370 C  
BRANCH  11  12
HETATM   12  C   UNK     1      -9.557  17.037  66.918  1.00  0.00    -0.263 C  
BRANCH  12  13
HETATM   13  C   UNK     1     -10.717  17.439  67.837  1.00  0.00    -0.351 C  
HETATM   14  C   UNK     1     -11.167  16.236  68.683  1.00  0.00    -0.354 C  
HETATM   15  N   UNK     1     -10.329  18.547  68.752  1.00  0.00    -0.440 NA 
HETATM   16  O   UNK     1     -11.870  15.322  68.291  1.00  0.00    -0.336 OA 
HETATM   17  O   UNK     1     -10.638  16.297  69.935  1.00  0.00    -0.306 OA 
HETATM   18  H1  UNK     1     -11.100  18.814  69.363  1.00  0.00     0.000 HD 
HETATM   19  H2  UNK     1      -9.966  19.348  68.236  1.00  0.00     0.000 HD 
ENDBRANCH  12  13
ENDBRANCH  11  12
ENDBRANCH  10  11
ENDBRANCH   5  10
TORSDOF 4
ENDMDL
MODEL       62
REMARK 921   NORMALIZED FREE ENERGY PREDICTED BY IDOCK:   -4.21 KCAL/MOL
REMARK 922        TOTAL FREE ENERGY PREDICTED BY IDOCK:   -5.63 KCAL/MOL
REMARK 923 INTER-LIGAND FREE ENERGY PREDICTED BY IDOCK:   -5.58 KCAL/MOL
REMARK 924 INTRA-LIGAND FREE ENERGY PREDICTED BY IDOCK:   -0.05 KCAL/MOL
REMARK 927      BINDING AFFINITY PREDICTED BY RF-SCORE:    0.00 PKD
ROOT
HETATM    1  C   UNK     1     -11.018  12.246  65.464  1.00  0.00    -0.298 C  
HETATM    2  N   UNK     1     -11.817  12.036  66.650  1.00  0.00    -0.610 NA 
HETATM    3  H   UNK     1     -12.807  11.822  66.530  1.00  0.00     0.000 HD 
HETATM    4  C   UNK     1     -11.327  12.105  67.913  1.00  0.00    -0.300 C  
HETATM    5  N   UNK     1     -12.246  11.671  68.814  1.00  0.00    -0.395 NA 
HETATM    6  N   UNK     1     -10.165  12.530  68.255  1.00  0.00    -0.230 NA 
HETATM    7  H   UNK     1     -13.097  11.206  68.498  1.00  0.00     0.000 HD 
HETATM    8  H2  UNK     1      -9.550  12.846  67.505  1.00  0.00     0.000 HD 
HETATM    9  H1  UNK     1      -9.796  12.583  69.205  1.00  0.00     0.000 HD 
ENDROOT
BRANCH   5  10
HETATM   10  C   UNK     1     -12.004  11.874  70.238  1.00  0.00    -0.330 C  
BRANCH  10  11
HETATM   11  C   UNK     1     -12.091  10.538  70.971  1.00  0.00    -0.492 C  
BRANCH  11  12
HETATM   12  C   UNK     1     -13.527   9.993  70.984  1.00  0.00    -0.253 C  
BRANCH  12  13
HETATM   13  C   UNK     1     -13.698   8.704  71.799  1.00  0.00    -0.417 C  
HETATM   14  C   UNK     1     -12.443   7.825  71.672  1.00  0.00    -0.326 C  
HETATM   15  N   UNK     1     -13.931   8.998  73.240  1.00  0.00    -1.199 NA 
HETATM   16  O   UNK     1     -12.171   7.117  70.718  1.00  0.00    -0.327 OA 
HETATM   17  O   UNK     1     -11.636   7.969  72.758  1.00  0.00    -0.405 OA 
HETATM   18  H1  UNK     1     -14.045   8.141  73.781  1.00  0.00     0.000 HD 
HETATM   19  H2  UNK     1     -14.721   9.629  73.369  1.00  0.00     0.000 HD 
ENDBRANCH  12  13
ENDBRANCH  11  12
ENDBRANCH  10  11
ENDBRANCH   5  10
TORSDOF 4
ENDMDL
MODEL       63
REMARK 921   NORMALIZED FREE ENERGY PREDICTED BY IDOCK:   -4.21 KCAL/MOL
REMARK 922        TOTAL FREE ENERGY PREDICTED BY IDOCK:   -5.63 KCAL/MOL
REMARK 923 INTER-LIGAND FREE ENERGY PREDICTED BY IDOCK:   -5.17 KCAL/MOL
REMARK 924 INTRA-LIGAND FREE ENERGY PREDICTED BY IDOCK:   -0.46 KCAL/MOL
REMARK 927      BINDING AFFINITY PREDICTED BY RF-SCORE:    0.00 PKD
ROOT
HETATM    1  C   UNK     1      -6.285  14.482  68.040  1.00  0.00    -0.154 C  
HETATM    2  N   UNK     1      -7.457  14.183  67.249  1.00  0.00    -0.323 NA 
HETATM    3  H   UNK     1      -7.816  14.908  66.628  1.00  0.00     0.000 HD 
HETATM    4  C   UNK     1      -8.108  12.993  67.284  1.00  0.00    -0.161 C  
HETATM    5  N   UNK     1      -9.044  12.923  66.302  1.00  0.00    -0.446 NA 
HETATM    6  N   UNK     1      -7.909  12.042  68.123  1.00  0.00    -0.136 NA 
HETATM    7  H   UNK     1      -9.074  13.631  65.568  1.00  0.00     0.000 HD 
HETATM    8  H2  UNK     1      -7.191  12.195  68.832  1.00  0.00     0.000 HD 
HETATM    9  H1  UNK     1      -8.398  11.147  68.150  1.00  0.00     0.000 HD 
ENDROOT
BRANCH   5  10
HETATM   10  C   UNK     1     -10.005  11.825  66.305  1.00  0.00    -0.218 C  
BRANCH  10  11
HETATM   11  C   UNK     1     -10.990  12.000  65.152  1.00  0.00    -0.359 C  
BRANCH  11  12
HETATM   12  C   UNK     1     -10.785  13.341  64.432  1.00  0.00    -0.432 C  
BRANCH  12  13
HETATM   13  C   UNK     1     -11.761  14.440  64.870  1.00  0.00    -0.408 C  
HETATM   14  C   UNK     1     -10.986  15.673  65.365  1.00  0.00    -0.333 C  
HETATM   15  N   UNK     1     -12.652  14.855  63.752  1.00  0.00    -0.981 NA 
HETATM   16  O   UNK     1     -10.461  15.784  66.460  1.00  0.00    -0.293 OA 
HETATM   17  O   UNK     1     -10.921  16.628  64.398  1.00  0.00    -0.924 OA 
HETATM   18  H1  UNK     1     -13.301  15.586  64.043  1.00  0.00     0.000 HD 
HETATM   19  H2  UNK     1     -13.144  14.056  63.351  1.00  0.00     0.000 HD 
ENDBRANCH  12  13
ENDBRANCH  11  12
ENDBRANCH  10  11
ENDBRANCH   5  10
TORSDOF 4
ENDMDL
MODEL       64
REMARK 921   NORMALIZED FREE ENERGY PREDICTED BY IDOCK:   -4.21 KCAL/MOL
REMARK 922        TOTAL FREE ENERGY PREDICTED BY IDOCK:   -5.63 KCAL/MOL
REMARK 923 INTER-LIGAND FREE ENERGY PREDICTED BY IDOCK:   -5.39 KCAL/MOL
REMARK 924 INTRA-LIGAND FREE ENERGY PREDICTED BY IDOCK:   -0.23 KCAL/MOL
REMARK 927      BINDING AFFINITY PREDICTED BY RF-SCORE:    0.00 PKD
ROOT
HETATM    1  C   UNK     1      -9.170   9.733  67.345  1.00  0.00    -0.134 C  
HETATM    2  N   UNK     1      -9.643  10.264  68.603  1.00  0.00    -0.161 NA 
HETATM    3  H   UNK     1      -9.013  10.233  69.405  1.00  0.00     0.000 HD 
HETATM    4  C   UNK     1     -10.875  10.802  68.780  1.00  0.00    -0.221 C  
HETATM    5  N   UNK     1     -10.975  11.396  69.997  1.00  0.00    -0.454 NA 
HETATM    6  N   UNK     1     -11.849  10.764  67.943  1.00  0.00    -0.742 NA 
HETATM    7  H   UNK     1     -10.144  11.535  70.572  1.00  0.00     0.000 HD 
HETATM    8  H2  UNK     1     -11.679  10.283  67.060  1.00  0.00     0.000 HD 
HETATM    9  H1  UNK     1     -12.776  11.168  68.076  1.00  0.00     0.000 HD 
ENDROOT
BRANCH   5  10
HETATM   10  C   UNK     1     -12.282  11.835  70.475  1.00  0.00    -0.347 C  
BRANCH  10  11
HETATM   11  C   UNK     1     -12.776  10.888  71.565  1.00  0.00    -0.533 C  
BRANCH  11  12
HETATM   12  C   UNK     1     -13.612   9.740  70.980  1.00  0.00    -0.170 C  
BRANCH  12  13
HETATM   13  C   UNK     1     -13.752   8.531  71.913  1.00  0.00    -0.415 C  
HETATM   14  C   UNK     1     -12.440   7.728  71.943  1.00  0.00    -0.314 C  
HETATM   15  N   UNK     1     -14.087   8.950  73.302  1.00  0.00    -1.248 NA 
HETATM   16  O   UNK     1     -12.070   6.949  71.083  1.00  0.00    -0.347 OA 
HETATM   17  O   UNK     1     -11.709   8.034  73.050  1.00  0.00    -0.309 OA 
HETATM   18  H1  UNK     1     -14.179   8.146  73.922  1.00  0.00     0.000 HD 
HETATM   19  H2  UNK     1     -14.920   9.538  73.324  1.00  0.00     0.000 HD 
ENDBRANCH  12  13
ENDBRANCH  11  12
ENDBRANCH  10  11
ENDBRANCH   5  10
TORSDOF 4
ENDMDL
MODEL       65
REMARK 921   NORMALIZED FREE ENERGY PREDICTED BY IDOCK:   -4.20 KCAL/MOL
REMARK 922        TOTAL FREE ENERGY PREDICTED BY IDOCK:   -5.62 KCAL/MOL
REMARK 923 INTER-LIGAND FREE ENERGY PREDICTED BY IDOCK:   -5.36 KCAL/MOL
REMARK 924 INTRA-LIGAND FREE ENERGY PREDICTED BY IDOCK:   -0.26 KCAL/MOL
REMARK 927      BINDING AFFINITY PREDICTED BY RF-SCORE:    0.00 PKD
ROOT
HETATM    1  C   UNK     1     -11.806  13.116  63.632  1.00  0.00    -0.488 C  
HETATM    2  N   UNK     1     -11.121  14.016  64.533  1.00  0.00    -0.515 NA 
HETATM    3  H   UNK     1     -10.470  13.616  65.208  1.00  0.00     0.000 HD 
HETATM    4  C   UNK     1     -11.295  15.361  64.533  1.00  0.00    -0.313 C  
HETATM    5  N   UNK     1     -10.386  15.968  65.340  1.00  0.00    -0.499 NA 
HETATM    6  N   UNK     1     -12.193  16.012  63.885  1.00  0.00    -1.180 NA 
HETATM    7  H   UNK     1      -9.602  15.438  65.721  1.00  0.00     0.000 HD 
HETATM    8  H2  UNK     1     -12.837  15.465  63.314  1.00  0.00     0.000 HD 
HETATM    9  H1  UNK     1     -12.324  17.023  63.884  1.00  0.00     0.000 HD 
ENDROOT
BRANCH   5  10
HETATM   10  C   UNK     1     -10.542  17.384  65.657  1.00  0.00    -0.153 C  
BRANCH  10  11
HETATM   11  C   UNK     1     -10.178  17.627  67.119  1.00  0.00    -0.342 C  
BRANCH  11  12
HETATM   12  C   UNK     1      -9.420  18.951  67.300  1.00  0.00    -0.336 C  
BRANCH  12  13
HETATM   13  C   UNK     1      -7.916  18.780  67.550  1.00  0.00    -0.244 C  
HETATM   14  C   UNK     1      -7.130  19.037  66.253  1.00  0.00    -0.241 C  
HETATM   15  N   UNK     1      -7.428  19.718  68.598  1.00  0.00    -0.319 NA 
HETATM   16  O   UNK     1      -7.008  18.247  65.334  1.00  0.00    -0.523 OA 
HETATM   17  O   UNK     1      -6.611  20.295  66.240  1.00  0.00    -0.209 OA 
HETATM   18  H1  UNK     1      -6.428  19.604  68.763  1.00  0.00     0.000 HD 
HETATM   19  H2  UNK     1      -7.963  19.625  69.461  1.00  0.00     0.000 HD 
ENDBRANCH  12  13
ENDBRANCH  11  12
ENDBRANCH  10  11
ENDBRANCH   5  10
TORSDOF 4
ENDMDL
MODEL       66
REMARK 921   NORMALIZED FREE ENERGY PREDICTED BY IDOCK:   -4.20 KCAL/MOL
REMARK 922        TOTAL FREE ENERGY PREDICTED BY IDOCK:   -5.62 KCAL/MOL
REMARK 923 INTER-LIGAND FREE ENERGY PREDICTED BY IDOCK:   -5.44 KCAL/MOL
REMARK 924 INTRA-LIGAND FREE ENERGY PREDICTED BY IDOCK:   -0.18 KCAL/MOL
REMARK 927      BINDING AFFINITY PREDICTED BY RF-SCORE:    0.00 PKD
ROOT
HETATM    1  C   UNK     1      -9.490  10.435  63.070  1.00  0.00    -0.330 C  
HETATM    2  N   UNK     1     -10.685  10.910  63.730  1.00  0.00    -0.528 NA 
HETATM    3  H   UNK     1     -11.445  10.247  63.882  1.00  0.00     0.000 HD 
HETATM    4  C   UNK     1     -10.855  12.185  64.159  1.00  0.00    -0.360 C  
HETATM    5  N   UNK     1     -11.979  12.298  64.913  1.00  0.00    -0.377 NA 
HETATM    6  N   UNK     1     -10.090  13.183  63.898  1.00  0.00    -0.764 NA 
HETATM    7  H   UNK     1     -12.479  11.463  65.220  1.00  0.00     0.000 HD 
HETATM    8  H2  UNK     1      -9.275  13.000  63.312  1.00  0.00     0.000 HD 
HETATM    9  H1  UNK     1     -10.217  14.143  64.220  1.00  0.00     0.000 HD 
ENDROOT
BRANCH   5  10
HETATM   10  C   UNK     1     -12.464  13.623  65.282  1.00  0.00    -0.479 C  
BRANCH  10  11
HETATM   11  C   UNK     1     -12.023  13.955  66.705  1.00  0.00    -0.474 C  
BRANCH  11  12
HETATM   12  C   UNK     1     -11.835  12.686  67.549  1.00  0.00    -0.396 C  
BRANCH  12  13
HETATM   13  C   UNK     1     -11.061  12.914  68.854  1.00  0.00    -0.255 C  
HETATM   14  C   UNK     1     -12.031  13.270  69.993  1.00  0.00    -0.329 C  
HETATM   15  N   UNK     1     -10.288  11.703  69.247  1.00  0.00    -0.431 NA 
HETATM   16  O   UNK     1     -12.538  14.364  70.171  1.00  0.00    -0.345 OA 
HETATM   17  O   UNK     1     -12.291  12.182  70.768  1.00  0.00    -0.376 OA 
HETATM   18  H1  UNK     1      -9.773  11.855  70.114  1.00  0.00     0.000 HD 
HETATM   19  H2  UNK     1      -9.672  11.394  68.495  1.00  0.00     0.000 HD 
ENDBRANCH  12  13
ENDBRANCH  11  12
ENDBRANCH  10  11
ENDBRANCH   5  10
TORSDOF 4
ENDMDL
MODEL       67
REMARK 921   NORMALIZED FREE ENERGY PREDICTED BY IDOCK:   -4.19 KCAL/MOL
REMARK 922        TOTAL FREE ENERGY PREDICTED BY IDOCK:   -5.61 KCAL/MOL
REMARK 923 INTER-LIGAND FREE ENERGY PREDICTED BY IDOCK:   -5.27 KCAL/MOL
REMARK 924 INTRA-LIGAND FREE ENERGY PREDICTED BY IDOCK:   -0.35 KCAL/MOL
REMARK 927      BINDING AFFINITY PREDICTED BY RF-SCORE:    0.00 PKD
ROOT
HETATM    1  C   UNK     1      -6.815  10.165  64.978  1.00  0.00    -0.132 C  
HETATM    2  N   UNK     1      -7.810  11.052  65.538  1.00  0.00    -0.365 NA 
HETATM    3  H   UNK     1      -7.487  11.849  66.086  1.00  0.00     0.000 HD 
HETATM    4  C   UNK     1      -9.146  10.885  65.378  1.00  0.00    -0.198 C  
HETATM    5  N   UNK     1      -9.828  11.966  65.837  1.00  0.00    -0.233 NA 
HETATM    6  N   UNK     1      -9.729   9.856  64.877  1.00  0.00    -0.369 NA 
HETATM    7  H   UNK     1      -9.330  12.819  66.091  1.00  0.00     0.000 HD 
HETATM    8  H2  UNK     1      -9.130   9.090  64.571  1.00  0.00     0.000 HD 
HETATM    9  H1  UNK     1     -10.734   9.730  64.757  1.00  0.00     0.000 HD 
ENDROOT
BRANCH   5  10
HETATM   10  C   UNK     1     -11.280  11.895  65.965  1.00  0.00    -0.324 C  
BRANCH  10  11
HETATM   11  C   UNK     1     -11.936  12.529  64.742  1.00  0.00    -0.469 C  
BRANCH  11  12
HETATM   12  C   UNK     1     -11.180  13.785  64.282  1.00  0.00    -0.321 C  
BRANCH  12  13
HETATM   13  C   UNK     1     -11.715  15.091  64.884  1.00  0.00    -0.336 C  
HETATM   14  C   UNK     1     -10.720  15.648  65.915  1.00  0.00    -0.329 C  
HETATM   15  N   UNK     1     -11.941  16.122  63.834  1.00  0.00    -1.332 NA 
HETATM   16  O   UNK     1     -10.587  15.244  67.057  1.00  0.00    -0.293 OA 
HETATM   17  O   UNK     1      -9.961  16.639  65.373  1.00  0.00    -0.565 OA 
HETATM   18  H1  UNK     1     -12.297  16.990  64.234  1.00  0.00     0.000 HD 
HETATM   19  H2  UNK     1     -12.551  15.774  63.094  1.00  0.00     0.000 HD 
ENDBRANCH  12  13
ENDBRANCH  11  12
ENDBRANCH  10  11
ENDBRANCH   5  10
TORSDOF 4
ENDMDL
MODEL       68
REMARK 921   NORMALIZED FREE ENERGY PREDICTED BY IDOCK:   -4.18 KCAL/MOL
REMARK 922        TOTAL FREE ENERGY PREDICTED BY IDOCK:   -5.60 KCAL/MOL
REMARK 923 INTER-LIGAND FREE ENERGY PREDICTED BY IDOCK:   -4.98 KCAL/MOL
REMARK 924 INTRA-LIGAND FREE ENERGY PREDICTED BY IDOCK:   -0.62 KCAL/MOL
REMARK 927      BINDING AFFINITY PREDICTED BY RF-SCORE:    0.00 PKD
ROOT
HETATM    1  C   UNK     1      -8.877   9.353  64.290  1.00  0.00    -0.184 C  
HETATM    2  N   UNK     1     -10.165   9.999  64.176  1.00  0.00    -0.380 NA 
HETATM    3  H   UNK     1     -10.996   9.457  64.410  1.00  0.00     0.000 HD 
HETATM    4  C   UNK     1     -10.332  11.284  63.775  1.00  0.00    -0.395 C  
HETATM    5  N   UNK     1     -11.617  11.684  63.952  1.00  0.00    -0.393 NA 
HETATM    6  N   UNK     1      -9.428  12.049  63.278  1.00  0.00    -0.667 NA 
HETATM    7  H   UNK     1     -12.269  11.104  64.481  1.00  0.00     0.000 HD 
HETATM    8  H2  UNK     1      -8.494  11.653  63.174  1.00  0.00     0.000 HD 
HETATM    9  H1  UNK     1      -9.553  13.016  62.977  1.00  0.00     0.000 HD 
ENDROOT
BRANCH   5  10
HETATM   10  C   UNK     1     -12.059  12.951  63.378  1.00  0.00    -0.530 C  
BRANCH  10  11
HETATM   11  C   UNK     1     -12.415  13.926  64.497  1.00  0.00    -0.336 C  
BRANCH  11  12
HETATM   12  C   UNK     1     -11.267  14.908  64.778  1.00  0.00    -0.393 C  
BRANCH  12  13
HETATM   13  C   UNK     1     -10.494  14.611  66.069  1.00  0.00    -0.305 C  
HETATM   14  C   UNK     1     -11.428  13.977  67.114  1.00  0.00    -0.352 C  
HETATM   15  N   UNK     1      -9.355  13.684  65.822  1.00  0.00    -0.488 NA 
HETATM   16  O   UNK     1     -12.231  14.582  67.802  1.00  0.00    -0.287 OA 
HETATM   17  O   UNK     1     -11.274  12.625  67.146  1.00  0.00    -0.270 OA 
HETATM   18  H1  UNK     1      -8.842  13.487  66.681  1.00  0.00     0.000 HD 
HETATM   19  H2  UNK     1      -8.739  14.037  65.090  1.00  0.00     0.000 HD 
ENDBRANCH  12  13
ENDBRANCH  11  12
ENDBRANCH  10  11
ENDBRANCH   5  10
TORSDOF 4
ENDMDL
MODEL       69
REMARK 921   NORMALIZED FREE ENERGY PREDICTED BY IDOCK:   -4.16 KCAL/MOL
REMARK 922        TOTAL FREE ENERGY PREDICTED BY IDOCK:   -5.57 KCAL/MOL
REMARK 923 INTER-LIGAND FREE ENERGY PREDICTED BY IDOCK:   -5.30 KCAL/MOL
REMARK 924 INTRA-LIGAND FREE ENERGY PREDICTED BY IDOCK:   -0.28 KCAL/MOL
REMARK 927      BINDING AFFINITY PREDICTED BY RF-SCORE:    0.00 PKD
ROOT
HETATM    1  C   UNK     1      -7.544   7.876  62.526  1.00  0.00    -0.113 C  
HETATM    2  N   UNK     1      -8.701   8.623  62.967  1.00  0.00    -0.430 NA 
HETATM    3  H   UNK     1      -9.622   8.208  62.826  1.00  0.00     0.000 HD 
HETATM    4  C   UNK     1      -8.632   9.842  63.556  1.00  0.00    -0.199 C  
HETATM    5  N   UNK     1      -9.845  10.215  64.042  1.00  0.00    -0.436 NA 
HETATM    6  N   UNK     1      -7.588  10.584  63.651  1.00  0.00    -0.340 NA 
HETATM    7  H   UNK     1     -10.613   9.544  64.079  1.00  0.00     0.000 HD 
HETATM    8  H2  UNK     1      -6.726  10.220  63.244  1.00  0.00     0.000 HD 
HETATM    9  H1  UNK     1      -7.536  11.501  64.094  1.00  0.00     0.000 HD 
ENDROOT
BRANCH   5  10
HETATM   10  C   UNK     1     -10.039  11.583  64.510  1.00  0.00    -0.278 C  
BRANCH  10  11
HETATM   11  C   UNK     1     -11.237  12.206  63.798  1.00  0.00    -0.509 C  
BRANCH  11  12
HETATM   12  C   UNK     1     -12.405  12.451  64.765  1.00  0.00    -0.497 C  
BRANCH  12  13
HETATM   13  C   UNK     1     -12.670  13.933  65.059  1.00  0.00    -0.336 C  
HETATM   14  C   UNK     1     -11.852  14.388  66.279  1.00  0.00    -0.379 C  
HETATM   15  N   UNK     1     -12.311  14.792  63.897  1.00  0.00    -1.070 NA 
HETATM   16  O   UNK     1     -12.138  14.165  67.443  1.00  0.00    -0.402 OA 
HETATM   17  O   UNK     1     -10.725  15.046  65.892  1.00  0.00    -0.306 OA 
HETATM   18  H1  UNK     1     -12.488  15.778  64.093  1.00  0.00     0.000 HD 
HETATM   19  H2  UNK     1     -12.787  14.489  63.048  1.00  0.00     0.000 HD 
ENDBRANCH  12  13
ENDBRANCH  11  12
ENDBRANCH  10  11
ENDBRANCH   5  10
TORSDOF 4
ENDMDL
MODEL       70
REMARK 921   NORMALIZED FREE ENERGY PREDICTED BY IDOCK:   -4.16 KCAL/MOL
REMARK 922        TOTAL FREE ENERGY PREDICTED BY IDOCK:   -5.57 KCAL/MOL
REMARK 923 INTER-LIGAND FREE ENERGY PREDICTED BY IDOCK:   -5.31 KCAL/MOL
REMARK 924 INTRA-LIGAND FREE ENERGY PREDICTED BY IDOCK:   -0.26 KCAL/MOL
REMARK 927      BINDING AFFINITY PREDICTED BY RF-SCORE:    0.00 PKD
ROOT
HETATM    1  C   UNK     1     -12.966  15.919  73.576  1.00  0.00    -0.594 C  
HETATM    2  N   UNK     1     -12.096  16.004  72.425  1.00  0.00    -0.493 NA 
HETATM    3  H   UNK     1     -11.123  16.269  72.578  1.00  0.00     0.000 HD 
HETATM    4  C   UNK     1     -12.497  15.751  71.155  1.00  0.00    -0.436 C  
HETATM    5  N   UNK     1     -11.435  15.712  70.309  1.00  0.00    -0.316 NA 
HETATM    6  N   UNK     1     -13.707  15.580  70.759  1.00  0.00    -0.859 NA 
HETATM    7  H   UNK     1     -10.484  15.706  70.677  1.00  0.00     0.000 HD 
HETATM    8  H2  UNK     1     -14.437  15.639  71.469  1.00  0.00     0.000 HD 
HETATM    9  H1  UNK     1     -14.010  15.390  69.804  1.00  0.00     0.000 HD 
ENDROOT
BRANCH   5  10
HETATM   10  C   UNK     1     -11.667  15.679  68.869  1.00  0.00    -0.384 C  
BRANCH  10  11
HETATM   11  C   UNK     1     -10.446  15.094  68.164  1.00  0.00    -0.245 C  
BRANCH  11  12
HETATM   12  C   UNK     1     -10.165  13.655  68.621  1.00  0.00    -0.199 C  
BRANCH  12  13
HETATM   13  C   UNK     1     -11.428  12.817  68.856  1.00  0.00    -0.305 C  
HETATM   14  C   UNK     1     -11.315  11.469  68.123  1.00  0.00    -0.298 C  
HETATM   15  N   UNK     1     -11.647  12.555  70.305  1.00  0.00    -0.534 NA 
HETATM   16  O   UNK     1     -11.493  11.298  66.929  1.00  0.00    -0.431 OA 
HETATM   17  O   UNK     1     -10.944  10.479  68.980  1.00  0.00    -0.213 OA 
HETATM   18  H1  UNK     1     -12.487  11.998  70.460  1.00  0.00     0.000 HD 
HETATM   19  H2  UNK     1     -11.668  13.422  70.842  1.00  0.00     0.000 HD 
ENDBRANCH  12  13
ENDBRANCH  11  12
ENDBRANCH  10  11
ENDBRANCH   5  10
TORSDOF 4
ENDMDL
MODEL       71
REMARK 921   NORMALIZED FREE ENERGY PREDICTED BY IDOCK:   -4.15 KCAL/MOL
REMARK 922        TOTAL FREE ENERGY PREDICTED BY IDOCK:   -5.55 KCAL/MOL
REMARK 923 INTER-LIGAND FREE ENERGY PREDICTED BY IDOCK:   -5.28 KCAL/MOL
REMARK 924 INTRA-LIGAND FREE ENERGY PREDICTED BY IDOCK:   -0.27 KCAL/MOL
REMARK 927      BINDING AFFINITY PREDICTED BY RF-SCORE:    0.00 PKD
ROOT
HETATM    1  C   UNK     1     -11.276  11.556  67.120  1.00  0.00    -0.301 C  
HETATM    2  N   UNK     1     -12.144  10.925  68.088  1.00  0.00    -0.790 NA 
HETATM    3  H   UNK     1     -12.912  10.351  67.741  1.00  0.00     0.000 HD 
HETATM    4  C   UNK     1     -11.995  11.051  69.430  1.00  0.00    -0.337 C  
HETATM    5  N   UNK     1     -12.820  10.198  70.091  1.00  0.00    -0.565 NA 
HETATM    6  N   UNK     1     -11.206  11.864  70.035  1.00  0.00    -0.485 NA 
HETATM    7  H   UNK     1     -13.322   9.470  69.583  1.00  0.00     0.000 HD 
HETATM    8  H2  UNK     1     -10.635  12.473  69.449  1.00  0.00     0.000 HD 
HETATM    9  H1  UNK     1     -11.094  11.959  71.044  1.00  0.00     0.000 HD 
ENDROOT
BRANCH   5  10
HETATM   10  C   UNK     1     -12.980  10.332  71.535  1.00  0.00    -0.453 C  
BRANCH  10  11
HETATM   11  C   UNK     1     -13.305   8.971  72.146  1.00  0.00    -0.510 C  
BRANCH  11  12
HETATM   12  C   UNK     1     -12.030   8.187  72.490  1.00  0.00    -0.410 C  
BRANCH  12  13
HETATM   13  C   UNK     1     -11.307   7.603  71.269  1.00  0.00    -0.264 C  
HETATM   14  C   UNK     1     -10.282   6.546  71.714  1.00  0.00    -0.188 C  
HETATM   15  N   UNK     1     -12.264   6.970  70.321  1.00  0.00    -0.622 NA 
HETATM   16  O   UNK     1      -9.181   6.784  72.179  1.00  0.00    -0.138 OA 
HETATM   17  O   UNK     1     -10.781   5.290  71.560  1.00  0.00    -0.221 OA 
HETATM   18  H1  UNK     1     -11.784   6.582  69.510  1.00  0.00     0.000 HD 
HETATM   19  H2  UNK     1     -13.001   7.619  70.044  1.00  0.00     0.000 HD 
ENDBRANCH  12  13
ENDBRANCH  11  12
ENDBRANCH  10  11
ENDBRANCH   5  10
TORSDOF 4
ENDMDL
MODEL       72
REMARK 921   NORMALIZED FREE ENERGY PREDICTED BY IDOCK:   -4.14 KCAL/MOL
REMARK 922        TOTAL FREE ENERGY PREDICTED BY IDOCK:   -5.55 KCAL/MOL
REMARK 923 INTER-LIGAND FREE ENERGY PREDICTED BY IDOCK:   -4.97 KCAL/MOL
REMARK 924 INTRA-LIGAND FREE ENERGY PREDICTED BY IDOCK:   -0.58 KCAL/MOL
REMARK 927      BINDING AFFINITY PREDICTED BY RF-SCORE:    0.00 PKD
ROOT
HETATM    1  C   UNK     1     -12.607  11.891  63.225  1.00  0.00    -0.344 C  
HETATM    2  N   UNK     1     -11.704  12.969  63.554  1.00  0.00    -0.652 NA 
HETATM    3  H   UNK     1     -10.790  12.985  63.101  1.00  0.00     0.000 HD 
HETATM    4  C   UNK     1     -12.000  13.962  64.429  1.00  0.00    -0.450 C  
HETATM    5  N   UNK     1     -11.056  14.938  64.393  1.00  0.00    -0.645 NA 
HETATM    6  N   UNK     1     -13.016  14.007  65.213  1.00  0.00    -0.767 NA 
HETATM    7  H   UNK     1     -10.346  14.942  63.660  1.00  0.00     0.000 HD 
HETATM    8  H2  UNK     1     -13.663  13.219  65.174  1.00  0.00     0.000 HD 
HETATM    9  H1  UNK     1     -13.239  14.753  65.871  1.00  0.00     0.000 HD 
ENDROOT
BRANCH   5  10
HETATM   10  C   UNK     1     -11.065  15.982  65.412  1.00  0.00    -0.155 C  
BRANCH  10  11
HETATM   11  C   UNK     1      -9.717  16.016  66.127  1.00  0.00    -0.353 C  
BRANCH  11  12
HETATM   12  C   UNK     1      -9.247  14.606  66.515  1.00  0.00    -0.294 C  
BRANCH  12  13
HETATM   13  C   UNK     1     -10.036  13.982  67.673  1.00  0.00    -0.241 C  
HETATM   14  C   UNK     1     -10.254  12.481  67.420  1.00  0.00    -0.213 C  
HETATM   15  N   UNK     1      -9.324  14.148  68.970  1.00  0.00    -0.397 NA 
HETATM   16  O   UNK     1     -11.090  12.006  66.671  1.00  0.00    -0.278 OA 
HETATM   17  O   UNK     1      -9.354  11.734  68.116  1.00  0.00    -0.178 OA 
HETATM   18  H1  UNK     1      -9.849  13.733  69.740  1.00  0.00     0.000 HD 
HETATM   19  H2  UNK     1      -9.104  15.127  69.152  1.00  0.00     0.000 HD 
ENDBRANCH  12  13
ENDBRANCH  11  12
ENDBRANCH  10  11
ENDBRANCH   5  10
TORSDOF 4
ENDMDL
MODEL       73
REMARK 921   NORMALIZED FREE ENERGY PREDICTED BY IDOCK:   -4.11 KCAL/MOL
REMARK 922        TOTAL FREE ENERGY PREDICTED BY IDOCK:   -5.51 KCAL/MOL
REMARK 923 INTER-LIGAND FREE ENERGY PREDICTED BY IDOCK:   -5.29 KCAL/MOL
REMARK 924 INTRA-LIGAND FREE ENERGY PREDICTED BY IDOCK:   -0.22 KCAL/MOL
REMARK 927      BINDING AFFINITY PREDICTED BY RF-SCORE:    0.00 PKD
ROOT
HETATM    1  C   UNK     1     -12.724  11.892  63.379  1.00  0.00    -0.366 C  
HETATM    2  N   UNK     1     -11.710  12.814  63.838  1.00  0.00    -0.420 NA 
HETATM    3  H   UNK     1     -10.753  12.676  63.514  1.00  0.00     0.000 HD 
HETATM    4  C   UNK     1     -11.957  13.854  64.673  1.00  0.00    -0.419 C  
HETATM    5  N   UNK     1     -10.871  14.663  64.775  1.00  0.00    -0.538 NA 
HETATM    6  N   UNK     1     -13.049  14.072  65.313  1.00  0.00    -0.765 NA 
HETATM    7  H   UNK     1     -10.078  14.542  64.145  1.00  0.00     0.000 HD 
HETATM    8  H2  UNK     1     -13.804  13.400  65.179  1.00  0.00     0.000 HD 
HETATM    9  H1  UNK     1     -13.235  14.854  65.941  1.00  0.00     0.000 HD 
ENDROOT
BRANCH   5  10
HETATM   10  C   UNK     1     -10.849  15.708  65.793  1.00  0.00    -0.306 C  
BRANCH  10  11
HETATM   11  C   UNK     1      -9.412  16.161  66.035  1.00  0.00    -0.374 C  
BRANCH  11  12
HETATM   12  C   UNK     1      -9.331  17.214  67.150  1.00  0.00    -0.249 C  
BRANCH  12  13
HETATM   13  C   UNK     1      -8.939  18.614  66.659  1.00  0.00    -0.306 C  
HETATM   14  C   UNK     1     -10.195  19.408  66.260  1.00  0.00    -0.478 C  
HETATM   15  N   UNK     1      -8.209  19.375  67.710  1.00  0.00    -0.282 NA 
HETATM   16  O   UNK     1     -10.810  19.277  65.216  1.00  0.00    -0.503 OA 
HETATM   17  O   UNK     1     -10.568  20.261  67.253  1.00  0.00    -0.282 OA 
HETATM   18  H1  UNK     1      -7.949  20.306  67.384  1.00  0.00     0.000 HD 
HETATM   19  H2  UNK     1      -7.398  18.858  68.050  1.00  0.00     0.000 HD 
ENDBRANCH  12  13
ENDBRANCH  11  12
ENDBRANCH  10  11
ENDBRANCH   5  10
TORSDOF 4
ENDMDL
MODEL       74
REMARK 921   NORMALIZED FREE ENERGY PREDICTED BY IDOCK:   -4.10 KCAL/MOL
REMARK 922        TOTAL FREE ENERGY PREDICTED BY IDOCK:   -5.50 KCAL/MOL
REMARK 923 INTER-LIGAND FREE ENERGY PREDICTED BY IDOCK:   -5.17 KCAL/MOL
REMARK 924 INTRA-LIGAND FREE ENERGY PREDICTED BY IDOCK:   -0.33 KCAL/MOL
REMARK 927      BINDING AFFINITY PREDICTED BY RF-SCORE:    0.00 PKD
ROOT
HETATM    1  C   UNK     1     -12.076  14.803  64.365  1.00  0.00    -0.440 C  
HETATM    2  N   UNK     1     -10.933  15.657  64.599  1.00  0.00    -0.695 NA 
HETATM    3  H   UNK     1     -10.757  16.414  63.939  1.00  0.00     0.000 HD 
HETATM    4  C   UNK     1     -10.082  15.509  65.644  1.00  0.00    -0.376 C  
HETATM    5  N   UNK     1      -9.227  16.561  65.725  1.00  0.00    -0.491 NA 
HETATM    6  N   UNK     1     -10.045  14.519  66.461  1.00  0.00    -0.266 NA 
HETATM    7  H   UNK     1      -9.378  17.393  65.154  1.00  0.00     0.000 HD 
HETATM    8  H2  UNK     1     -10.722  13.771  66.310  1.00  0.00     0.000 HD 
HETATM    9  H1  UNK     1      -9.405  14.407  67.247  1.00  0.00     0.000 HD 
ENDROOT
BRANCH   5  10
HETATM   10  C   UNK     1      -8.089  16.491  66.637  1.00  0.00    -0.278 C  
BRANCH  10  11
HETATM   11  C   UNK     1      -7.735  17.892  67.126  1.00  0.00    -0.227 C  
BRANCH  11  12
HETATM   12  C   UNK     1      -7.344  18.816  65.963  1.00  0.00    -0.283 C  
BRANCH  12  13
HETATM   13  C   UNK     1      -8.112  20.144  65.935  1.00  0.00    -0.136 C  
HETATM   14  C   UNK     1      -9.595  19.907  66.270  1.00  0.00    -0.425 C  
HETATM   15  N   UNK     1      -7.552  21.118  66.911  1.00  0.00    -0.701 NA 
HETATM   16  O   UNK     1     -10.432  19.473  65.498  1.00  0.00    -0.465 OA 
HETATM   17  O   UNK     1      -9.853  20.208  67.572  1.00  0.00    -0.388 OA 
HETATM   18  H1  UNK     1      -8.063  22.000  66.892  1.00  0.00     0.000 HD 
HETATM   19  H2  UNK     1      -6.553  21.261  66.764  1.00  0.00     0.000 HD 
ENDBRANCH  12  13
ENDBRANCH  11  12
ENDBRANCH  10  11
ENDBRANCH   5  10
TORSDOF 4
ENDMDL
MODEL       75
REMARK 921   NORMALIZED FREE ENERGY PREDICTED BY IDOCK:   -4.10 KCAL/MOL
REMARK 922        TOTAL FREE ENERGY PREDICTED BY IDOCK:   -5.50 KCAL/MOL
REMARK 923 INTER-LIGAND FREE ENERGY PREDICTED BY IDOCK:   -4.88 KCAL/MOL
REMARK 924 INTRA-LIGAND FREE ENERGY PREDICTED BY IDOCK:   -0.62 KCAL/MOL
REMARK 927      BINDING AFFINITY PREDICTED BY RF-SCORE:    0.00 PKD
ROOT
HETATM    1  C   UNK     1      -7.292  10.318  65.105  1.00  0.00    -0.127 C  
HETATM    2  N   UNK     1      -8.717  10.516  65.241  1.00  0.00    -0.183 NA 
HETATM    3  H   UNK     1      -9.330  10.076  64.555  1.00  0.00     0.000 HD 
HETATM    4  C   UNK     1      -9.286  11.252  66.227  1.00  0.00    -0.207 C  
HETATM    5  N   UNK     1     -10.636  11.103  66.227  1.00  0.00    -0.260 NA 
HETATM    6  N   UNK     1      -8.672  12.012  67.060  1.00  0.00    -0.182 NA 
HETATM    7  H   UNK     1     -11.074  10.384  65.650  1.00  0.00     0.000 HD 
HETATM    8  H2  UNK     1      -7.657  12.067  66.972  1.00  0.00     0.000 HD 
HETATM    9  H1  UNK     1      -9.099  12.566  67.802  1.00  0.00     0.000 HD 
ENDROOT
BRANCH   5  10
HETATM   10  C   UNK     1     -11.455  11.979  67.058  1.00  0.00    -0.338 C  
BRANCH  10  11
HETATM   11  C   UNK     1     -12.256  12.928  66.171  1.00  0.00    -0.385 C  
BRANCH  11  12
HETATM   12  C   UNK     1     -11.780  14.381  66.322  1.00  0.00    -0.394 C  
BRANCH  12  13
HETATM   13  C   UNK     1     -10.718  14.799  65.297  1.00  0.00    -0.390 C  
HETATM   14  C   UNK     1     -11.098  16.146  64.658  1.00  0.00    -0.296 C  
HETATM   15  N   UNK     1      -9.375  14.931  65.926  1.00  0.00    -0.487 NA 
HETATM   16  O   UNK     1     -11.925  16.300  63.777  1.00  0.00    -0.973 OA 
HETATM   17  O   UNK     1     -10.412  17.169  65.237  1.00  0.00    -0.655 OA 
HETATM   18  H1  UNK     1      -8.670  15.209  65.244  1.00  0.00     0.000 HD 
HETATM   19  H2  UNK     1      -9.107  14.077  66.415  1.00  0.00     0.000 HD 
ENDBRANCH  12  13
ENDBRANCH  11  12
ENDBRANCH  10  11
ENDBRANCH   5  10
TORSDOF 4
ENDMDL
MODEL       76
REMARK 921   NORMALIZED FREE ENERGY PREDICTED BY IDOCK:   -4.10 KCAL/MOL
REMARK 922        TOTAL FREE ENERGY PREDICTED BY IDOCK:   -5.49 KCAL/MOL
REMARK 923 INTER-LIGAND FREE ENERGY PREDICTED BY IDOCK:   -5.10 KCAL/MOL
REMARK 924 INTRA-LIGAND FREE ENERGY PREDICTED BY IDOCK:   -0.39 KCAL/MOL
REMARK 927      BINDING AFFINITY PREDICTED BY RF-SCORE:    0.00 PKD
ROOT
HETATM    1  C   UNK     1     -11.783  15.721  71.613  1.00  0.00    -0.464 C  
HETATM    2  N   UNK     1     -11.380  14.766  70.606  1.00  0.00    -0.445 NA 
HETATM    3  H   UNK     1     -10.645  15.039  69.953  1.00  0.00     0.000 HD 
HETATM    4  C   UNK     1     -11.922  13.530  70.477  1.00  0.00    -0.269 C  
HETATM    5  N   UNK     1     -11.221  12.783  69.585  1.00  0.00    -0.476 NA 
HETATM    6  N   UNK     1     -12.963  13.089  71.086  1.00  0.00    -0.238 NA 
HETATM    7  H   UNK     1     -10.322  13.112  69.233  1.00  0.00     0.000 HD 
HETATM    8  H2  UNK     1     -13.428  13.730  71.729  1.00  0.00     0.000 HD 
HETATM    9  H1  UNK     1     -13.371  12.159  70.990  1.00  0.00     0.000 HD 
ENDROOT
BRANCH   5  10
HETATM   10  C   UNK     1     -11.766  11.507  69.134  1.00  0.00    -0.329 C  
BRANCH  10  11
HETATM   11  C   UNK     1     -11.586  11.375  67.624  1.00  0.00    -0.315 C  
BRANCH  11  12
HETATM   12  C   UNK     1     -10.667  12.472  67.067  1.00  0.00    -0.268 C  
BRANCH  12  13
HETATM   13  C   UNK     1     -11.355  13.419  66.075  1.00  0.00    -0.309 C  
HETATM   14  C   UNK     1     -11.836  12.637  64.840  1.00  0.00    -0.387 C  
HETATM   15  N   UNK     1     -12.525  14.100  66.694  1.00  0.00    -0.548 NA 
HETATM   16  O   UNK     1     -11.130  12.276  63.916  1.00  0.00    -0.341 OA 
HETATM   17  O   UNK     1     -13.165  12.358  64.929  1.00  0.00    -0.714 OA 
HETATM   18  H1  UNK     1     -12.982  14.729  66.035  1.00  0.00     0.000 HD 
HETATM   19  H2  UNK     1     -12.264  14.583  67.553  1.00  0.00     0.000 HD 
ENDBRANCH  12  13
ENDBRANCH  11  12
ENDBRANCH  10  11
ENDBRANCH   5  10
TORSDOF 4
ENDMDL
MODEL       77
REMARK 921   NORMALIZED FREE ENERGY PREDICTED BY IDOCK:   -4.09 KCAL/MOL
REMARK 922        TOTAL FREE ENERGY PREDICTED BY IDOCK:   -5.49 KCAL/MOL
REMARK 923 INTER-LIGAND FREE ENERGY PREDICTED BY IDOCK:   -5.29 KCAL/MOL
REMARK 924 INTRA-LIGAND FREE ENERGY PREDICTED BY IDOCK:   -0.20 KCAL/MOL
REMARK 927      BINDING AFFINITY PREDICTED BY RF-SCORE:    0.00 PKD
ROOT
HETATM    1  C   UNK     1     -12.074  10.697  70.081  1.00  0.00    -0.333 C  
HETATM    2  N   UNK     1     -12.101  10.929  68.654  1.00  0.00    -0.796 NA 
HETATM    3  H   UNK     1     -12.963  11.286  68.242  1.00  0.00     0.000 HD 
HETATM    4  C   UNK     1     -11.047  10.700  67.832  1.00  0.00    -0.308 C  
HETATM    5  N   UNK     1     -11.287  11.190  66.588  1.00  0.00    -0.310 NA 
HETATM    6  N   UNK     1      -9.958  10.094  68.143  1.00  0.00    -0.144 NA 
HETATM    7  H   UNK     1     -12.094  11.790  66.418  1.00  0.00     0.000 HD 
HETATM    8  H2  UNK     1      -9.878   9.751  69.100  1.00  0.00     0.000 HD 
HETATM    9  H1  UNK     1      -9.165   9.921  67.525  1.00  0.00     0.000 HD 
ENDROOT
BRANCH   5  10
HETATM   10  C   UNK     1     -10.379  10.850  65.498  1.00  0.00    -0.252 C  
BRANCH  10  11
HETATM   11  C   UNK     1     -10.202  12.058  64.581  1.00  0.00    -0.313 C  
BRANCH  11  12
HETATM   12  C   UNK     1     -10.258  13.377  65.366  1.00  0.00    -0.311 C  
BRANCH  12  13
HETATM   13  C   UNK     1     -11.636  14.050  65.357  1.00  0.00    -0.328 C  
HETATM   14  C   UNK     1     -12.507  13.462  64.234  1.00  0.00    -0.257 C  
HETATM   15  N   UNK     1     -12.341  13.866  66.655  1.00  0.00    -0.452 NA 
HETATM   16  O   UNK     1     -12.424  13.748  63.053  1.00  0.00    -0.712 OA 
HETATM   17  O   UNK     1     -13.372  12.534  64.726  1.00  0.00    -0.773 OA 
HETATM   18  H1  UNK     1     -13.257  14.314  66.648  1.00  0.00     0.000 HD 
HETATM   19  H2  UNK     1     -11.773  14.189  67.437  1.00  0.00     0.000 HD 
ENDBRANCH  12  13
ENDBRANCH  11  12
ENDBRANCH  10  11
ENDBRANCH   5  10
TORSDOF 4
ENDMDL
MODEL       78
REMARK 921   NORMALIZED FREE ENERGY PREDICTED BY IDOCK:   -4.05 KCAL/MOL
REMARK 922        TOTAL FREE ENERGY PREDICTED BY IDOCK:   -5.44 KCAL/MOL
REMARK 923 INTER-LIGAND FREE ENERGY PREDICTED BY IDOCK:   -4.65 KCAL/MOL
REMARK 924 INTRA-LIGAND FREE ENERGY PREDICTED BY IDOCK:   -0.78 KCAL/MOL
REMARK 927      BINDING AFFINITY PREDICTED BY RF-SCORE:    0.00 PKD
ROOT
HETATM    1  C   UNK     1     -13.103  13.376  71.224  1.00  0.00    -0.238 C  
HETATM    2  N   UNK     1     -11.838  13.570  70.553  1.00  0.00    -0.524 NA 
HETATM    3  H   UNK     1     -11.084  12.911  70.747  1.00  0.00     0.000 HD 
HETATM    4  C   UNK     1     -11.594  14.579  69.679  1.00  0.00    -0.299 C  
HETATM    5  N   UNK     1     -10.400  14.403  69.055  1.00  0.00    -0.306 NA 
HETATM    6  N   UNK     1     -12.354  15.589  69.453  1.00  0.00    -0.595 NA 
HETATM    7  H   UNK     1      -9.895  13.521  69.150  1.00  0.00     0.000 HD 
HETATM    8  H2  UNK     1     -13.225  15.638  69.981  1.00  0.00     0.000 HD 
HETATM    9  H1  UNK     1     -12.171  16.348  68.796  1.00  0.00     0.000 HD 
ENDROOT
BRANCH   5  10
HETATM   10  C   UNK     1      -9.847  15.485  68.248  1.00  0.00    -0.213 C  
BRANCH  10  11
HETATM   11  C   UNK     1     -10.435  15.430  66.841  1.00  0.00    -0.295 C  
BRANCH  11  12
HETATM   12  C   UNK     1     -10.235  14.050  66.198  1.00  0.00    -0.308 C  
BRANCH  12  13
HETATM   13  C   UNK     1     -11.534  13.257  66.007  1.00  0.00    -0.330 C  
HETATM   14  C   UNK     1     -11.423  11.882  66.688  1.00  0.00    -0.314 C  
HETATM   15  N   UNK     1     -12.703  13.979  66.579  1.00  0.00    -0.454 NA 
HETATM   16  O   UNK     1     -10.834  10.916  66.235  1.00  0.00    -0.219 OA 
HETATM   17  O   UNK     1     -12.038  11.889  67.902  1.00  0.00    -0.558 OA 
HETATM   18  H1  UNK     1     -13.567  13.451  66.452  1.00  0.00     0.000 HD 
HETATM   19  H2  UNK     1     -12.782  14.922  66.199  1.00  0.00     0.000 HD 
ENDBRANCH  12  13
ENDBRANCH  11  12
ENDBRANCH  10  11
ENDBRANCH   5  10
TORSDOF 4
ENDMDL
MODEL       79
REMARK 921   NORMALIZED FREE ENERGY PREDICTED BY IDOCK:   -4.05 KCAL/MOL
REMARK 922        TOTAL FREE ENERGY PREDICTED BY IDOCK:   -5.43 KCAL/MOL
REMARK 923 INTER-LIGAND FREE ENERGY PREDICTED BY IDOCK:   -4.70 KCAL/MOL
REMARK 924 INTRA-LIGAND FREE ENERGY PREDICTED BY IDOCK:   -0.73 KCAL/MOL
REMARK 927      BINDING AFFINITY PREDICTED BY RF-SCORE:    0.00 PKD
ROOT
HETATM    1  C   UNK     1      -9.413  11.425  68.265  1.00  0.00    -0.187 C  
HETATM    2  N   UNK     1     -10.135  11.048  69.459  1.00  0.00    -0.441 NA 
HETATM    3  H   UNK     1      -9.601  10.893  70.314  1.00  0.00     0.000 HD 
HETATM    4  C   UNK     1     -11.481  10.887  69.508  1.00  0.00    -0.301 C  
HETATM    5  N   UNK     1     -11.904  10.729  70.789  1.00  0.00    -0.342 NA 
HETATM    6  N   UNK     1     -12.282  10.866  68.504  1.00  0.00    -0.809 NA 
HETATM    7  H   UNK     1     -11.265  10.897  71.567  1.00  0.00     0.000 HD 
HETATM    8  H2  UNK     1     -11.865  10.982  67.580  1.00  0.00     0.000 HD 
HETATM    9  H1  UNK     1     -13.294  10.745  68.541  1.00  0.00     0.000 HD 
ENDROOT
BRANCH   5  10
HETATM   10  C   UNK     1     -13.281  10.318  71.043  1.00  0.00    -0.319 C  
BRANCH  10  11
HETATM   11  C   UNK     1     -13.306   8.866  71.513  1.00  0.00    -0.374 C  
BRANCH  11  12
HETATM   12  C   UNK     1     -12.325   8.629  72.671  1.00  0.00    -0.282 C  
BRANCH  12  13
HETATM   13  C   UNK     1     -11.175   7.673  72.328  1.00  0.00    -0.293 C  
HETATM   14  C   UNK     1      -9.822   8.360  72.577  1.00  0.00    -0.289 C  
HETATM   15  N   UNK     1     -11.237   6.431  73.147  1.00  0.00    -0.463 NA 
HETATM   16  O   UNK     1      -9.294   9.168  71.833  1.00  0.00    -0.349 OA 
HETATM   17  O   UNK     1      -9.295   7.978  73.772  1.00  0.00    -0.250 OA 
HETATM   18  H1  UNK     1     -10.473   5.796  72.919  1.00  0.00     0.000 HD 
HETATM   19  H2  UNK     1     -12.144   5.972  73.060  1.00  0.00     0.000 HD 
ENDBRANCH  12  13
ENDBRANCH  11  12
ENDBRANCH  10  11
ENDBRANCH   5  10
TORSDOF 4
ENDMDL
MODEL       80
REMARK 921   NORMALIZED FREE ENERGY PREDICTED BY IDOCK:   -4.04 KCAL/MOL
REMARK 922        TOTAL FREE ENERGY PREDICTED BY IDOCK:   -5.42 KCAL/MOL
REMARK 923 INTER-LIGAND FREE ENERGY PREDICTED BY IDOCK:   -5.20 KCAL/MOL
REMARK 924 INTRA-LIGAND FREE ENERGY PREDICTED BY IDOCK:   -0.22 KCAL/MOL
REMARK 927      BINDING AFFINITY PREDICTED BY RF-SCORE:    0.00 PKD
ROOT
HETATM    1  C   UNK     1     -13.338  13.451  72.200  1.00  0.00    -0.520 C  
HETATM    2  N   UNK     1     -13.163  14.249  71.007  1.00  0.00    -0.335 NA 
HETATM    3  H   UNK     1     -13.776  15.053  70.874  1.00  0.00     0.000 HD 
HETATM    4  C   UNK     1     -12.233  13.990  70.056  1.00  0.00    -0.352 C  
HETATM    5  N   UNK     1     -12.162  15.006  69.157  1.00  0.00    -0.564 NA 
HETATM    6  N   UNK     1     -11.507  12.934  69.969  1.00  0.00    -0.523 NA 
HETATM    7  H   UNK     1     -12.644  15.887  69.337  1.00  0.00     0.000 HD 
HETATM    8  H2  UNK     1     -11.642  12.221  70.686  1.00  0.00     0.000 HD 
HETATM    9  H1  UNK     1     -10.807  12.739  69.254  1.00  0.00     0.000 HD 
ENDROOT
BRANCH   5  10
HETATM   10  C   UNK     1     -11.389  14.827  67.933  1.00  0.00    -0.316 C  
BRANCH  10  11
HETATM   11  C   UNK     1     -10.189  15.770  67.939  1.00  0.00    -0.242 C  
BRANCH  11  12
HETATM   12  C   UNK     1     -10.624  17.240  67.843  1.00  0.00    -0.384 C  
BRANCH  12  13
HETATM   13  C   UNK     1     -10.362  17.880  66.474  1.00  0.00    -0.362 C  
HETATM   14  C   UNK     1      -9.576  19.191  66.641  1.00  0.00    -0.346 C  
HETATM   15  N   UNK     1      -9.588  16.970  65.586  1.00  0.00    -0.530 NA 
HETATM   16  O   UNK     1     -10.051  20.259  66.985  1.00  0.00    -0.442 OA 
HETATM   17  O   UNK     1      -8.252  18.999  66.394  1.00  0.00    -0.290 OA 
HETATM   18  H1  UNK     1      -9.415  17.395  64.675  1.00  0.00     0.000 HD 
HETATM   19  H2  UNK     1     -10.044  16.062  65.493  1.00  0.00     0.000 HD 
ENDBRANCH  12  13
ENDBRANCH  11  12
ENDBRANCH  10  11
ENDBRANCH   5  10
TORSDOF 4
ENDMDL
MODEL       81
REMARK 921   NORMALIZED FREE ENERGY PREDICTED BY IDOCK:   -4.04 KCAL/MOL
REMARK 922        TOTAL FREE ENERGY PREDICTED BY IDOCK:   -5.42 KCAL/MOL
REMARK 923 INTER-LIGAND FREE ENERGY PREDICTED BY IDOCK:   -5.07 KCAL/MOL
REMARK 924 INTRA-LIGAND FREE ENERGY PREDICTED BY IDOCK:   -0.35 KCAL/MOL
REMARK 927      BINDING AFFINITY PREDICTED BY RF-SCORE:    0.00 PKD
ROOT
HETATM    1  C   UNK     1     -11.589  14.996  68.849  1.00  0.00    -0.326 C  
HETATM    2  N   UNK     1     -12.278  14.445  67.705  1.00  0.00    -0.623 NA 
HETATM    3  H   UNK     1     -13.215  14.067  67.844  1.00  0.00     0.000 HD 
HETATM    4  C   UNK     1     -11.752  14.401  66.456  1.00  0.00    -0.391 C  
HETATM    5  N   UNK     1     -12.687  14.019  65.548  1.00  0.00    -0.608 NA 
HETATM    6  N   UNK     1     -10.536  14.663  66.133  1.00  0.00    -0.303 NA 
HETATM    7  H   UNK     1     -13.670  13.962  65.815  1.00  0.00     0.000 HD 
HETATM    8  H2  UNK     1      -9.906  14.931  66.889  1.00  0.00     0.000 HD 
HETATM    9  H1  UNK     1     -10.140  14.631  65.194  1.00  0.00     0.000 HD 
ENDROOT
BRANCH   5  10
HETATM   10  C   UNK     1     -12.273  13.691  64.187  1.00  0.00    -0.399 C  
BRANCH  10  11
HETATM   11  C   UNK     1     -12.416  12.190  63.953  1.00  0.00    -0.581 C  
BRANCH  11  12
HETATM   12  C   UNK     1     -11.099  11.566  63.467  1.00  0.00    -0.434 C  
BRANCH  12  13
HETATM   13  C   UNK     1      -9.969  11.607  64.503  1.00  0.00    -0.253 C  
HETATM   14  C   UNK     1     -10.341  10.758  65.730  1.00  0.00    -0.230 C  
HETATM   15  N   UNK     1      -8.692  11.093  63.937  1.00  0.00    -0.383 NA 
HETATM   16  O   UNK     1     -11.095  11.102  66.624  1.00  0.00    -0.270 OA 
HETATM   17  O   UNK     1      -9.748   9.534  65.673  1.00  0.00    -0.272 OA 
HETATM   18  H1  UNK     1      -7.940  11.120  64.626  1.00  0.00     0.000 HD 
HETATM   19  H2  UNK     1      -8.435  11.589  63.084  1.00  0.00     0.000 HD 
ENDBRANCH  12  13
ENDBRANCH  11  12
ENDBRANCH  10  11
ENDBRANCH   5  10
TORSDOF 4
ENDMDL
MODEL       82
REMARK 921   NORMALIZED FREE ENERGY PREDICTED BY IDOCK:   -4.04 KCAL/MOL
REMARK 922        TOTAL FREE ENERGY PREDICTED BY IDOCK:   -5.42 KCAL/MOL
REMARK 923 INTER-LIGAND FREE ENERGY PREDICTED BY IDOCK:   -5.24 KCAL/MOL
REMARK 924 INTRA-LIGAND FREE ENERGY PREDICTED BY IDOCK:   -0.18 KCAL/MOL
REMARK 927      BINDING AFFINITY PREDICTED BY RF-SCORE:    0.00 PKD
ROOT
HETATM    1  C   UNK     1      -7.755   7.373  65.318  1.00  0.00    -0.113 C  
HETATM    2  N   UNK     1      -8.849   8.182  64.832  1.00  0.00    -0.394 NA 
HETATM    3  H   UNK     1      -9.728   7.715  64.605  1.00  0.00     0.000 HD 
HETATM    4  C   UNK     1      -8.777   9.525  64.659  1.00  0.00    -0.205 C  
HETATM    5  N   UNK     1     -10.001  10.046  64.386  1.00  0.00    -0.425 NA 
HETATM    6  N   UNK     1      -7.714  10.244  64.723  1.00  0.00    -0.204 NA 
HETATM    7  H   UNK     1     -10.839   9.473  64.488  1.00  0.00     0.000 HD 
HETATM    8  H2  UNK     1      -6.840   9.757  64.922  1.00  0.00     0.000 HD 
HETATM    9  H1  UNK     1      -7.659  11.254  64.593  1.00  0.00     0.000 HD 
ENDROOT
BRANCH   5  10
HETATM   10  C   UNK     1     -10.108  11.433  63.946  1.00  0.00    -0.345 C  
BRANCH  10  11
HETATM   11  C   UNK     1     -10.739  12.276  65.050  1.00  0.00    -0.336 C  
BRANCH  11  12
HETATM   12  C   UNK     1     -10.297  13.745  64.963  1.00  0.00    -0.402 C  
BRANCH  12  13
HETATM   13  C   UNK     1     -11.386  14.750  65.359  1.00  0.00    -0.356 C  
HETATM   14  C   UNK     1     -11.104  16.120  64.720  1.00  0.00    -0.333 C  
HETATM   15  N   UNK     1     -12.735  14.290  64.926  1.00  0.00    -0.662 NA 
HETATM   16  O   UNK     1     -10.289  16.932  65.124  1.00  0.00    -0.631 OA 
HETATM   17  O   UNK     1     -11.859  16.300  63.603  1.00  0.00    -0.831 OA 
HETATM   18  H1  UNK     1     -13.459  14.958  65.189  1.00  0.00     0.000 HD 
HETATM   19  H2  UNK     1     -12.941  13.356  65.278  1.00  0.00     0.000 HD 
ENDBRANCH  12  13
ENDBRANCH  11  12
ENDBRANCH  10  11
ENDBRANCH   5  10
TORSDOF 4
ENDMDL
MODEL       83
REMARK 921   NORMALIZED FREE ENERGY PREDICTED BY IDOCK:   -4.03 KCAL/MOL
REMARK 922        TOTAL FREE ENERGY PREDICTED BY IDOCK:   -5.41 KCAL/MOL
REMARK 923 INTER-LIGAND FREE ENERGY PREDICTED BY IDOCK:   -5.18 KCAL/MOL
REMARK 924 INTRA-LIGAND FREE ENERGY PREDICTED BY IDOCK:   -0.23 KCAL/MOL
REMARK 927      BINDING AFFINITY PREDICTED BY RF-SCORE:    0.00 PKD
ROOT
HETATM    1  C   UNK     1     -11.911  14.863  64.184  1.00  0.00    -0.184 C  
HETATM    2  N   UNK     1     -11.648  16.284  64.198  1.00  0.00    -1.351 NA 
HETATM    3  H   UNK     1     -12.011  16.846  63.429  1.00  0.00     0.000 HD 
HETATM    4  C   UNK     1     -10.947  16.912  65.174  1.00  0.00    -0.053 C  
HETATM    5  N   UNK     1     -11.026  18.261  65.036  1.00  0.00    -0.476 NA 
HETATM    6  N   UNK     1     -10.274  16.348  66.111  1.00  0.00    -0.333 NA 
HETATM    7  H   UNK     1     -11.683  18.673  64.373  1.00  0.00     0.000 HD 
HETATM    8  H2  UNK     1     -10.266  15.328  66.123  1.00  0.00     0.000 HD 
HETATM    9  H1  UNK     1      -9.746  16.820  66.845  1.00  0.00     0.000 HD 
ENDROOT
BRANCH   5  10
HETATM   10  C   UNK     1     -10.162  19.116  65.843  1.00  0.00    -0.337 C  
BRANCH  10  11
HETATM   11  C   UNK     1     -10.752  19.269  67.242  1.00  0.00    -0.594 C  
BRANCH  11  12
HETATM   12  C   UNK     1      -9.670  19.611  68.278  1.00  0.00    -0.500 C  
BRANCH  12  13
HETATM   13  C   UNK     1      -8.288  19.031  67.951  1.00  0.00    -0.288 C  
HETATM   14  C   UNK     1      -7.190  19.838  68.666  1.00  0.00    -0.323 C  
HETATM   15  N   UNK     1      -8.182  17.607  68.370  1.00  0.00    -0.281 NA 
HETATM   16  O   UNK     1      -6.759  20.918  68.303  1.00  0.00    -0.240 OA 
HETATM   17  O   UNK     1      -6.782  19.205  69.800  1.00  0.00    -0.221 OA 
HETATM   18  H1  UNK     1      -7.263  17.221  68.153  1.00  0.00     0.000 HD 
HETATM   19  H2  UNK     1      -8.929  17.042  67.966  1.00  0.00     0.000 HD 
ENDBRANCH  12  13
ENDBRANCH  11  12
ENDBRANCH  10  11
ENDBRANCH   5  10
TORSDOF 4
ENDMDL
MODEL       84
REMARK 921   NORMALIZED FREE ENERGY PREDICTED BY IDOCK:   -4.02 KCAL/MOL
REMARK 922        TOTAL FREE ENERGY PREDICTED BY IDOCK:   -5.39 KCAL/MOL
REMARK 923 INTER-LIGAND FREE ENERGY PREDICTED BY IDOCK:   -4.75 KCAL/MOL
REMARK 924 INTRA-LIGAND FREE ENERGY PREDICTED BY IDOCK:   -0.65 KCAL/MOL
REMARK 927      BINDING AFFINITY PREDICTED BY RF-SCORE:    0.00 PKD
ROOT
HETATM    1  C   UNK     1      -9.133   9.652  69.378  1.00  0.00    -0.188 C  
HETATM    2  N   UNK     1      -9.262  11.091  69.328  1.00  0.00    -0.403 NA 
HETATM    3  H   UNK     1      -9.479  11.584  70.194  1.00  0.00     0.000 HD 
HETATM    4  C   UNK     1      -9.113  11.823  68.196  1.00  0.00    -0.185 C  
HETATM    5  N   UNK     1      -9.090  13.152  68.477  1.00  0.00    -0.358 NA 
HETATM    6  N   UNK     1      -9.017  11.364  67.000  1.00  0.00    -0.162 NA 
HETATM    7  H   UNK     1      -9.022  13.473  69.443  1.00  0.00     0.000 HD 
HETATM    8  H2  UNK     1      -9.057  10.351  66.891  1.00  0.00     0.000 HD 
HETATM    9  H1  UNK     1      -8.905  11.914  66.149  1.00  0.00     0.000 HD 
ENDROOT
BRANCH   5  10
HETATM   10  C   UNK     1      -9.164  14.117  67.385  1.00  0.00    -0.204 C  
BRANCH  10  11
HETATM   11  C   UNK     1     -10.233  15.162  67.693  1.00  0.00    -0.241 C  
BRANCH  11  12
HETATM   12  C   UNK     1     -11.402  15.085  66.699  1.00  0.00    -0.289 C  
BRANCH  12  13
HETATM   13  C   UNK     1     -11.203  14.053  65.581  1.00  0.00    -0.310 C  
HETATM   14  C   UNK     1     -12.171  12.872  65.769  1.00  0.00    -0.439 C  
HETATM   15  N   UNK     1     -11.439  14.653  64.239  1.00  0.00    -0.639 NA 
HETATM   16  O   UNK     1     -12.021  11.958  66.560  1.00  0.00    -0.588 OA 
HETATM   17  O   UNK     1     -13.256  12.999  64.958  1.00  0.00    -0.739 OA 
HETATM   18  H1  UNK     1     -11.307  13.968  63.496  1.00  0.00     0.000 HD 
HETATM   19  H2  UNK     1     -10.859  15.480  64.093  1.00  0.00     0.000 HD 
ENDBRANCH  12  13
ENDBRANCH  11  12
ENDBRANCH  10  11
ENDBRANCH   5  10
TORSDOF 4
ENDMDL
MODEL       85
REMARK 921   NORMALIZED FREE ENERGY PREDICTED BY IDOCK:   -4.01 KCAL/MOL
REMARK 922        TOTAL FREE ENERGY PREDICTED BY IDOCK:   -5.38 KCAL/MOL
REMARK 923 INTER-LIGAND FREE ENERGY PREDICTED BY IDOCK:   -5.22 KCAL/MOL
REMARK 924 INTRA-LIGAND FREE ENERGY PREDICTED BY IDOCK:   -0.16 KCAL/MOL
REMARK 927      BINDING AFFINITY PREDICTED BY RF-SCORE:    0.00 PKD
ROOT
HETATM    1  C   UNK     1      -9.403  10.267  62.553  1.00  0.00    -0.296 C  
HETATM    2  N   UNK     1      -9.493  11.528  63.254  1.00  0.00    -0.496 NA 
HETATM    3  H   UNK     1      -8.626  11.970  63.559  1.00  0.00     0.000 HD 
HETATM    4  C   UNK     1     -10.663  12.157  63.529  1.00  0.00    -0.457 C  
HETATM    5  N   UNK     1     -10.439  13.406  64.014  1.00  0.00    -0.612 NA 
HETATM    6  N   UNK     1     -11.842  11.669  63.381  1.00  0.00    -0.813 NA 
HETATM    7  H   UNK     1      -9.504  13.811  63.980  1.00  0.00     0.000 HD 
HETATM    8  H2  UNK     1     -11.905  10.717  63.021  1.00  0.00     0.000 HD 
HETATM    9  H1  UNK     1     -12.722  12.142  63.588  1.00  0.00     0.000 HD 
ENDROOT
BRANCH   5  10
HETATM   10  C   UNK     1     -11.550  14.163  64.582  1.00  0.00    -0.406 C  
BRANCH  10  11
HETATM   11  C   UNK     1     -11.036  15.483  65.148  1.00  0.00    -0.422 C  
BRANCH  11  12
HETATM   12  C   UNK     1     -10.343  15.285  66.505  1.00  0.00    -0.289 C  
BRANCH  12  13
HETATM   13  C   UNK     1     -10.579  16.429  67.500  1.00  0.00    -0.309 C  
HETATM   14  C   UNK     1     -11.021  15.867  68.861  1.00  0.00    -0.290 C  
HETATM   15  N   UNK     1      -9.347  17.242  67.697  1.00  0.00    -0.235 NA 
HETATM   16  O   UNK     1     -12.143  15.477  69.132  1.00  0.00    -0.326 OA 
HETATM   17  O   UNK     1      -9.975  15.818  69.730  1.00  0.00    -0.274 OA 
HETATM   18  H1  UNK     1      -9.504  18.002  68.358  1.00  0.00     0.000 HD 
HETATM   19  H2  UNK     1      -8.982  17.588  66.809  1.00  0.00     0.000 HD 
ENDBRANCH  12  13
ENDBRANCH  11  12
ENDBRANCH  10  11
ENDBRANCH   5  10
TORSDOF 4
ENDMDL
MODEL       86
REMARK 921   NORMALIZED FREE ENERGY PREDICTED BY IDOCK:   -3.98 KCAL/MOL
REMARK 922        TOTAL FREE ENERGY PREDICTED BY IDOCK:   -5.35 KCAL/MOL
REMARK 923 INTER-LIGAND FREE ENERGY PREDICTED BY IDOCK:   -4.66 KCAL/MOL
REMARK 924 INTRA-LIGAND FREE ENERGY PREDICTED BY IDOCK:   -0.68 KCAL/MOL
REMARK 927      BINDING AFFINITY PREDICTED BY RF-SCORE:    0.00 PKD
ROOT
HETATM    1  C   UNK     1      -8.616   9.482  68.489  1.00  0.00    -0.119 C  
HETATM    2  N   UNK     1      -9.228   9.410  67.181  1.00  0.00    -0.133 NA 
HETATM    3  H   UNK     1      -9.854   8.629  66.986  1.00  0.00     0.000 HD 
HETATM    4  C   UNK     1      -9.018  10.321  66.199  1.00  0.00    -0.154 C  
HETATM    5  N   UNK     1      -9.867  10.117  65.158  1.00  0.00    -0.310 NA 
HETATM    6  N   UNK     1      -8.139  11.257  66.205  1.00  0.00    -0.323 NA 
HETATM    7  H   UNK     1     -10.644   9.462  65.249  1.00  0.00     0.000 HD 
HETATM    8  H2  UNK     1      -7.540  11.322  67.028  1.00  0.00     0.000 HD 
HETATM    9  H1  UNK     1      -7.980  11.942  65.466  1.00  0.00     0.000 HD 
ENDROOT
BRANCH   5  10
HETATM   10  C   UNK     1      -9.657  10.841  63.909  1.00  0.00    -0.293 C  
BRANCH  10  11
HETATM   11  C   UNK     1     -10.921  11.615  63.545  1.00  0.00    -0.485 C  
BRANCH  11  12
HETATM   12  C   UNK     1     -11.077  12.879  64.403  1.00  0.00    -0.395 C  
BRANCH  12  13
HETATM   13  C   UNK     1     -12.342  12.892  65.271  1.00  0.00    -0.490 C  
HETATM   14  C   UNK     1     -11.982  12.609  66.739  1.00  0.00    -0.292 C  
HETATM   15  N   UNK     1     -13.041  14.204  65.195  1.00  0.00    -0.720 NA 
HETATM   16  O   UNK     1     -11.742  11.511  67.208  1.00  0.00    -0.576 OA 
HETATM   17  O   UNK     1     -11.922  13.765  67.456  1.00  0.00    -0.372 OA 
HETATM   18  H1  UNK     1     -13.882  14.213  65.772  1.00  0.00     0.000 HD 
HETATM   19  H2  UNK     1     -13.247  14.462  64.230  1.00  0.00     0.000 HD 
ENDBRANCH  12  13
ENDBRANCH  11  12
ENDBRANCH  10  11
ENDBRANCH   5  10
TORSDOF 4
ENDMDL
MODEL       87
REMARK 921   NORMALIZED FREE ENERGY PREDICTED BY IDOCK:   -3.96 KCAL/MOL
REMARK 922        TOTAL FREE ENERGY PREDICTED BY IDOCK:   -5.32 KCAL/MOL
REMARK 923 INTER-LIGAND FREE ENERGY PREDICTED BY IDOCK:   -4.53 KCAL/MOL
REMARK 924 INTRA-LIGAND FREE ENERGY PREDICTED BY IDOCK:   -0.80 KCAL/MOL
REMARK 927      BINDING AFFINITY PREDICTED BY RF-SCORE:    0.00 PKD
ROOT
HETATM    1  C   UNK     1     -12.336  12.910  63.289  1.00  0.00    -0.321 C  
HETATM    2  N   UNK     1     -12.445  12.954  64.730  1.00  0.00    -0.566 NA 
HETATM    3  H   UNK     1     -13.147  13.569  65.139  1.00  0.00     0.000 HD 
HETATM    4  C   UNK     1     -11.667  12.225  65.568  1.00  0.00    -0.377 C  
HETATM    5  N   UNK     1     -12.118  12.312  66.846  1.00  0.00    -0.553 NA 
HETATM    6  N   UNK     1     -10.628  11.543  65.242  1.00  0.00    -0.276 NA 
HETATM    7  H   UNK     1     -13.023  12.739  67.045  1.00  0.00     0.000 HD 
HETATM    8  H2  UNK     1     -10.363  11.550  64.257  1.00  0.00     0.000 HD 
HETATM    9  H1  UNK     1     -10.043  10.994  65.872  1.00  0.00     0.000 HD 
ENDROOT
BRANCH   5  10
HETATM   10  C   UNK     1     -11.296  11.788  67.933  1.00  0.00    -0.292 C  
BRANCH  10  11
HETATM   11  C   UNK     1     -10.931  12.918  68.892  1.00  0.00    -0.271 C  
BRANCH  11  12
HETATM   12  C   UNK     1      -9.912  13.882  68.269  1.00  0.00    -0.238 C  
BRANCH  12  13
HETATM   13  C   UNK     1     -10.496  15.249  67.890  1.00  0.00    -0.253 C  
HETATM   14  C   UNK     1     -10.104  15.614  66.448  1.00  0.00    -0.287 C  
HETATM   15  N   UNK     1     -11.981  15.255  67.996  1.00  0.00    -0.452 NA 
HETATM   16  O   UNK     1      -9.020  16.046  66.100  1.00  0.00    -0.317 OA 
HETATM   17  O   UNK     1     -11.124  15.350  65.585  1.00  0.00    -0.322 OA 
HETATM   18  H1  UNK     1     -12.370  16.164  67.744  1.00  0.00     0.000 HD 
HETATM   19  H2  UNK     1     -12.290  14.960  68.922  1.00  0.00     0.000 HD 
ENDBRANCH  12  13
ENDBRANCH  11  12
ENDBRANCH  10  11
ENDBRANCH   5  10
TORSDOF 4
ENDMDL
MODEL       88
REMARK 921   NORMALIZED FREE ENERGY PREDICTED BY IDOCK:   -3.95 KCAL/MOL
REMARK 922        TOTAL FREE ENERGY PREDICTED BY IDOCK:   -5.31 KCAL/MOL
REMARK 923 INTER-LIGAND FREE ENERGY PREDICTED BY IDOCK:   -5.09 KCAL/MOL
REMARK 924 INTRA-LIGAND FREE ENERGY PREDICTED BY IDOCK:   -0.22 KCAL/MOL
REMARK 927      BINDING AFFINITY PREDICTED BY RF-SCORE:    0.00 PKD
ROOT
HETATM    1  C   UNK     1      -6.738  14.991  69.453  1.00  0.00    -0.158 C  
HETATM    2  N   UNK     1      -7.946  14.211  69.306  1.00  0.00    -0.346 NA 
HETATM    3  H   UNK     1      -7.908  13.219  69.537  1.00  0.00     0.000 HD 
HETATM    4  C   UNK     1      -9.127  14.723  68.880  1.00  0.00    -0.168 C  
HETATM    5  N   UNK     1     -10.130  13.818  69.029  1.00  0.00    -0.432 NA 
HETATM    6  N   UNK     1      -9.315  15.892  68.383  1.00  0.00    -0.197 NA 
HETATM    7  H   UNK     1      -9.974  12.960  69.558  1.00  0.00     0.000 HD 
HETATM    8  H2  UNK     1      -8.496  16.495  68.302  1.00  0.00     0.000 HD 
HETATM    9  H1  UNK     1     -10.203  16.278  68.063  1.00  0.00     0.000 HD 
ENDROOT
BRANCH   5  10
HETATM   10  C   UNK     1     -11.431  14.085  68.425  1.00  0.00    -0.306 C  
BRANCH  10  11
HETATM   11  C   UNK     1     -11.706  13.066  67.323  1.00  0.00    -0.429 C  
BRANCH  11  12
HETATM   12  C   UNK     1     -12.383  13.717  66.107  1.00  0.00    -0.496 C  
BRANCH  12  13
HETATM   13  C   UNK     1     -11.470  13.852  64.882  1.00  0.00    -0.350 C  
HETATM   14  C   UNK     1     -11.999  12.985  63.727  1.00  0.00    -0.518 C  
HETATM   15  N   UNK     1     -11.385  15.264  64.418  1.00  0.00    -0.685 NA 
HETATM   16  O   UNK     1     -11.857  11.779  63.628  1.00  0.00    -0.447 OA 
HETATM   17  O   UNK     1     -12.695  13.738  62.833  1.00  0.00    -0.558 OA 
HETATM   18  H1  UNK     1     -10.778  15.353  63.603  1.00  0.00     0.000 HD 
HETATM   19  H2  UNK     1     -11.094  15.887  65.171  1.00  0.00     0.000 HD 
ENDBRANCH  12  13
ENDBRANCH  11  12
ENDBRANCH  10  11
ENDBRANCH   5  10
TORSDOF 4
ENDMDL
MODEL       89
REMARK 921   NORMALIZED FREE ENERGY PREDICTED BY IDOCK:   -3.94 KCAL/MOL
REMARK 922        TOTAL FREE ENERGY PREDICTED BY IDOCK:   -5.30 KCAL/MOL
REMARK 923 INTER-LIGAND FREE ENERGY PREDICTED BY IDOCK:   -5.08 KCAL/MOL
REMARK 924 INTRA-LIGAND FREE ENERGY PREDICTED BY IDOCK:   -0.22 KCAL/MOL
REMARK 927      BINDING AFFINITY PREDICTED BY RF-SCORE:    0.00 PKD
ROOT
HETATM    1  C   UNK     1     -10.584  18.479  65.713  1.00  0.00    -0.231 C  
HETATM    2  N   UNK     1     -10.491  17.040  65.805  1.00  0.00    -0.498 NA 
HETATM    3  H   UNK     1      -9.943  16.642  66.569  1.00  0.00     0.000 HD 
HETATM    4  C   UNK     1     -11.089  16.187  64.937  1.00  0.00    -0.325 C  
HETATM    5  N   UNK     1     -11.000  14.905  65.376  1.00  0.00    -0.344 NA 
HETATM    6  N   UNK     1     -11.660  16.505  63.831  1.00  0.00    -1.578 NA 
HETATM    7  H   UNK     1     -10.671  14.707  66.321  1.00  0.00     0.000 HD 
HETATM    8  H2  UNK     1     -11.665  17.494  63.582  1.00  0.00     0.000 HD 
HETATM    9  H1  UNK     1     -12.110  15.864  63.177  1.00  0.00     0.000 HD 
ENDROOT
BRANCH   5  10
HETATM   10  C   UNK     1     -11.378  13.814  64.484  1.00  0.00    -0.380 C  
BRANCH  10  11
HETATM   11  C   UNK     1     -10.476  12.609  64.734  1.00  0.00    -0.343 C  
BRANCH  11  12
HETATM   12  C   UNK     1     -10.271  12.357  66.236  1.00  0.00    -0.258 C  
BRANCH  12  13
HETATM   13  C   UNK     1      -9.109  11.408  66.557  1.00  0.00    -0.186 C  
HETATM   14  C   UNK     1      -9.649  10.031  66.978  1.00  0.00    -0.172 C  
HETATM   15  N   UNK     1      -8.211  11.230  65.383  1.00  0.00    -0.359 NA 
HETATM   16  O   UNK     1     -10.101   9.755  68.075  1.00  0.00    -0.156 OA 
HETATM   17  O   UNK     1      -9.597   9.151  65.940  1.00  0.00    -0.253 OA 
HETATM   18  H1  UNK     1      -7.439  10.599  65.597  1.00  0.00     0.000 HD 
HETATM   19  H2  UNK     1      -7.875  12.126  65.031  1.00  0.00     0.000 HD 
ENDBRANCH  12  13
ENDBRANCH  11  12
ENDBRANCH  10  11
ENDBRANCH   5  10
TORSDOF 4
ENDMDL
MODEL       90
REMARK 921   NORMALIZED FREE ENERGY PREDICTED BY IDOCK:   -3.92 KCAL/MOL
REMARK 922        TOTAL FREE ENERGY PREDICTED BY IDOCK:   -5.27 KCAL/MOL
REMARK 923 INTER-LIGAND FREE ENERGY PREDICTED BY IDOCK:   -5.08 KCAL/MOL
REMARK 924 INTRA-LIGAND FREE ENERGY PREDICTED BY IDOCK:   -0.20 KCAL/MOL
REMARK 927      BINDING AFFINITY PREDICTED BY RF-SCORE:    0.00 PKD
ROOT
HETATM    1  C   UNK     1     -11.440   6.081  72.941  1.00  0.00    -0.147 C  
HETATM    2  N   UNK     1     -11.762   7.490  72.917  1.00  0.00    -0.598 NA 
HETATM    3  H   UNK     1     -11.533   8.049  73.739  1.00  0.00     0.000 HD 
HETATM    4  C   UNK     1     -12.352   8.111  71.866  1.00  0.00    -0.332 C  
HETATM    5  N   UNK     1     -12.353   9.459  72.038  1.00  0.00    -0.363 NA 
HETATM    6  N   UNK     1     -12.865   7.542  70.836  1.00  0.00    -0.576 NA 
HETATM    7  H   UNK     1     -11.811   9.882  72.791  1.00  0.00     0.000 HD 
HETATM    8  H2  UNK     1     -12.825   6.523  70.805  1.00  0.00     0.000 HD 
HETATM    9  H1  UNK     1     -13.309   8.009  70.045  1.00  0.00     0.000 HD 
ENDROOT
BRANCH   5  10
HETATM   10  C   UNK     1     -13.136  10.296  71.135  1.00  0.00    -0.390 C  
BRANCH  10  11
HETATM   11  C   UNK     1     -12.257  11.408  70.571  1.00  0.00    -0.478 C  
BRANCH  11  12
HETATM   12  C   UNK     1     -11.979  11.205  69.074  1.00  0.00    -0.389 C  
BRANCH  12  13
HETATM   13  C   UNK     1     -11.412  12.445  68.371  1.00  0.00    -0.310 C  
HETATM   14  C   UNK     1     -11.296  12.192  66.858  1.00  0.00    -0.343 C  
HETATM   15  N   UNK     1     -12.275  13.638  68.590  1.00  0.00    -0.373 NA 
HETATM   16  O   UNK     1     -10.413  11.552  66.316  1.00  0.00    -0.235 OA 
HETATM   17  O   UNK     1     -12.345  12.746  66.191  1.00  0.00    -0.542 OA 
HETATM   18  H1  UNK     1     -11.898  14.462  68.123  1.00  0.00     0.000 HD 
HETATM   19  H2  UNK     1     -12.429  13.810  69.584  1.00  0.00     0.000 HD 
ENDBRANCH  12  13
ENDBRANCH  11  12
ENDBRANCH  10  11
ENDBRANCH   5  10
TORSDOF 4
ENDMDL
MODEL       91
REMARK 921   NORMALIZED FREE ENERGY PREDICTED BY IDOCK:   -3.92 KCAL/MOL
REMARK 922        TOTAL FREE ENERGY PREDICTED BY IDOCK:   -5.27 KCAL/MOL
REMARK 923 INTER-LIGAND FREE ENERGY PREDICTED BY IDOCK:   -5.05 KCAL/MOL
REMARK 924 INTRA-LIGAND FREE ENERGY PREDICTED BY IDOCK:   -0.22 KCAL/MOL
REMARK 927      BINDING AFFINITY PREDICTED BY RF-SCORE:    0.00 PKD
ROOT
HETATM    1  C   UNK     1     -10.853   7.787  70.124  1.00  0.00    -0.244 C  
HETATM    2  N   UNK     1     -10.958   9.004  69.351  1.00  0.00    -0.408 NA 
HETATM    3  H   UNK     1     -10.644   8.985  68.381  1.00  0.00     0.000 HD 
HETATM    4  C   UNK     1     -11.450  10.169  69.841  1.00  0.00    -0.254 C  
HETATM    5  N   UNK     1     -11.616  11.081  68.848  1.00  0.00    -0.289 NA 
HETATM    6  N   UNK     1     -11.721  10.423  71.070  1.00  0.00    -0.353 NA 
HETATM    7  H   UNK     1     -11.530  10.800  67.871  1.00  0.00     0.000 HD 
HETATM    8  H2  UNK     1     -11.551   9.676  71.744  1.00  0.00     0.000 HD 
HETATM    9  H1  UNK     1     -12.091  11.299  71.439  1.00  0.00     0.000 HD 
ENDROOT
BRANCH   5  10
HETATM   10  C   UNK     1     -11.919  12.467  69.191  1.00  0.00    -0.240 C  
BRANCH  10  11
HETATM   11  C   UNK     1     -11.898  13.326  67.930  1.00  0.00    -0.388 C  
BRANCH  11  12
HETATM   12  C   UNK     1     -11.869  12.463  66.659  1.00  0.00    -0.394 C  
BRANCH  12  13
HETATM   13  C   UNK     1     -12.238  13.225  65.379  1.00  0.00    -0.456 C  
HETATM   14  C   UNK     1     -10.965  13.631  64.617  1.00  0.00    -0.396 C  
HETATM   15  N   UNK     1     -13.090  12.399  64.481  1.00  0.00    -0.815 NA 
HETATM   16  O   UNK     1     -10.243  14.571  64.899  1.00  0.00    -0.405 OA 
HETATM   17  O   UNK     1     -10.716  12.769  63.593  1.00  0.00    -0.407 OA 
HETATM   18  H1  UNK     1     -13.335  12.905  63.630  1.00  0.00     0.000 HD 
HETATM   19  H2  UNK     1     -13.920  12.056  64.964  1.00  0.00     0.000 HD 
ENDBRANCH  12  13
ENDBRANCH  11  12
ENDBRANCH  10  11
ENDBRANCH   5  10
TORSDOF 4
ENDMDL
MODEL       92
REMARK 921   NORMALIZED FREE ENERGY PREDICTED BY IDOCK:   -3.88 KCAL/MOL
REMARK 922        TOTAL FREE ENERGY PREDICTED BY IDOCK:   -5.23 KCAL/MOL
REMARK 923 INTER-LIGAND FREE ENERGY PREDICTED BY IDOCK:   -4.88 KCAL/MOL
REMARK 924 INTRA-LIGAND FREE ENERGY PREDICTED BY IDOCK:   -0.34 KCAL/MOL
REMARK 927      BINDING AFFINITY PREDICTED BY RF-SCORE:    0.00 PKD
ROOT
HETATM    1  C   UNK     1      -5.220  11.899  67.752  1.00  0.00    -0.062 C  
HETATM    2  N   UNK     1      -6.149  12.771  67.070  1.00  0.00    -0.491 NA 
HETATM    3  H   UNK     1      -6.212  12.705  66.055  1.00  0.00     0.000 HD 
HETATM    4  C   UNK     1      -6.943  13.671  67.703  1.00  0.00    -0.172 C  
HETATM    5  N   UNK     1      -7.849  14.206  66.844  1.00  0.00    -0.316 NA 
HETATM    6  N   UNK     1      -6.872  14.011  68.939  1.00  0.00    -0.103 NA 
HETATM    7  H   UNK     1      -7.973  13.809  65.912  1.00  0.00     0.000 HD 
HETATM    8  H2  UNK     1      -6.149  13.561  69.500  1.00  0.00     0.000 HD 
HETATM    9  H1  UNK     1      -7.469  14.688  69.415  1.00  0.00     0.000 HD 
ENDROOT
BRANCH   5  10
HETATM   10  C   UNK     1      -8.645  15.354  67.266  1.00  0.00    -0.195 C  
BRANCH  10  11
HETATM   11  C   UNK     1      -9.356  15.959  66.058  1.00  0.00    -0.385 C  
BRANCH  11  12
HETATM   12  C   UNK     1     -10.843  15.576  66.027  1.00  0.00    -0.301 C  
BRANCH  12  13
HETATM   13  C   UNK     1     -11.117  14.178  65.457  1.00  0.00    -0.310 C  
HETATM   14  C   UNK     1     -12.533  14.116  64.859  1.00  0.00    -0.401 C  
HETATM   15  N   UNK     1     -10.135  13.821  64.396  1.00  0.00    -0.752 NA 
HETATM   16  O   UNK     1     -13.563  13.993  65.498  1.00  0.00    -0.596 OA 
HETATM   17  O   UNK     1     -12.496  14.259  63.506  1.00  0.00    -0.798 OA 
HETATM   18  H1  UNK     1     -10.317  12.892  64.017  1.00  0.00     0.000 HD 
HETATM   19  H2  UNK     1      -9.176  13.907  64.731  1.00  0.00     0.000 HD 
ENDBRANCH  12  13
ENDBRANCH  11  12
ENDBRANCH  10  11
ENDBRANCH   5  10
TORSDOF 4
ENDMDL
MODEL       93
REMARK 921   NORMALIZED FREE ENERGY PREDICTED BY IDOCK:   -3.88 KCAL/MOL
REMARK 922        TOTAL FREE ENERGY PREDICTED BY IDOCK:   -5.22 KCAL/MOL
REMARK 923 INTER-LIGAND FREE ENERGY PREDICTED BY IDOCK:   -5.03 KCAL/MOL
REMARK 924 INTRA-LIGAND FREE ENERGY PREDICTED BY IDOCK:   -0.19 KCAL/MOL
REMARK 927      BINDING AFFINITY PREDICTED BY RF-SCORE:    0.00 PKD
ROOT
HETATM    1  C   UNK     1     -12.461  16.096  73.602  1.00  0.00    -0.576 C  
HETATM    2  N   UNK     1     -11.805  15.416  72.508  1.00  0.00    -0.433 NA 
HETATM    3  H   UNK     1     -10.800  15.259  72.575  1.00  0.00     0.000 HD 
HETATM    4  C   UNK     1     -12.448  14.976  71.398  1.00  0.00    -0.329 C  
HETATM    5  N   UNK     1     -11.629  14.206  70.636  1.00  0.00    -0.507 NA 
HETATM    6  N   UNK     1     -13.661  15.240  71.067  1.00  0.00    -0.667 NA 
HETATM    7  H   UNK     1     -10.726  13.899  70.999  1.00  0.00     0.000 HD 
HETATM    8  H2  UNK     1     -14.192  15.838  71.700  1.00  0.00     0.000 HD 
HETATM    9  H1  UNK     1     -14.145  14.909  70.232  1.00  0.00     0.000 HD 
ENDROOT
BRANCH   5  10
HETATM   10  C   UNK     1     -12.052  13.821  69.294  1.00  0.00    -0.329 C  
BRANCH  10  11
HETATM   11  C   UNK     1     -10.837  13.747  68.373  1.00  0.00    -0.268 C  
BRANCH  11  12
HETATM   12  C   UNK     1     -10.345  12.303  68.200  1.00  0.00    -0.221 C  
BRANCH  12  13
HETATM   13  C   UNK     1     -11.244  11.440  67.304  1.00  0.00    -0.304 C  
HETATM   14  C   UNK     1     -10.552  11.174  65.956  1.00  0.00    -0.239 C  
HETATM   15  N   UNK     1     -11.558  10.134  67.944  1.00  0.00    -0.629 NA 
HETATM   16  O   UNK     1     -10.485  11.963  65.030  1.00  0.00    -0.266 OA 
HETATM   17  O   UNK     1      -9.977   9.941  65.940  1.00  0.00    -0.261 OA 
HETATM   18  H1  UNK     1     -12.156   9.561  67.349  1.00  0.00     0.000 HD 
HETATM   19  H2  UNK     1     -11.966  10.261  68.871  1.00  0.00     0.000 HD 
ENDBRANCH  12  13
ENDBRANCH  11  12
ENDBRANCH  10  11
ENDBRANCH   5  10
TORSDOF 4
ENDMDL
MODEL       94
REMARK 921   NORMALIZED FREE ENERGY PREDICTED BY IDOCK:   -3.88 KCAL/MOL
REMARK 922        TOTAL FREE ENERGY PREDICTED BY IDOCK:   -5.22 KCAL/MOL
REMARK 923 INTER-LIGAND FREE ENERGY PREDICTED BY IDOCK:   -4.68 KCAL/MOL
REMARK 924 INTRA-LIGAND FREE ENERGY PREDICTED BY IDOCK:   -0.55 KCAL/MOL
REMARK 927      BINDING AFFINITY PREDICTED BY RF-SCORE:    0.00 PKD
ROOT
HETATM    1  C   UNK     1     -12.399  12.107  63.923  1.00  0.00    -0.487 C  
HETATM    2  N   UNK     1     -12.541  12.634  65.261  1.00  0.00    -0.663 NA 
HETATM    3  H   UNK     1     -13.180  12.158  65.899  1.00  0.00     0.000 HD 
HETATM    4  C   UNK     1     -11.875  13.723  65.718  1.00  0.00    -0.372 C  
HETATM    5  N   UNK     1     -12.047  13.870  67.057  1.00  0.00    -0.429 NA 
HETATM    6  N   UNK     1     -11.177  14.539  65.013  1.00  0.00    -0.362 NA 
HETATM    7  H   UNK     1     -12.482  13.128  67.605  1.00  0.00     0.000 HD 
HETATM    8  H2  UNK     1     -11.118  14.349  64.013  1.00  0.00     0.000 HD 
HETATM    9  H1  UNK     1     -10.676  15.358  65.356  1.00  0.00     0.000 HD 
ENDROOT
BRANCH   5  10
HETATM   10  C   UNK     1     -11.603  15.100  67.706  1.00  0.00    -0.289 C  
BRANCH  10  11
HETATM   11  C   UNK     1     -10.520  14.778  68.732  1.00  0.00    -0.250 C  
BRANCH  11  12
HETATM   12  C   UNK     1      -9.222  15.548  68.445  1.00  0.00    -0.191 C  
BRANCH  12  13
HETATM   13  C   UNK     1      -8.566  15.186  67.106  1.00  0.00    -0.223 C  
HETATM   14  C   UNK     1      -8.428  16.440  66.226  1.00  0.00    -0.337 C  
HETATM   15  N   UNK     1      -7.215  14.592  67.305  1.00  0.00    -0.294 NA 
HETATM   16  O   UNK     1      -9.326  16.951  65.581  1.00  0.00    -0.519 OA 
HETATM   17  O   UNK     1      -7.165  16.942  66.290  1.00  0.00    -0.261 OA 
HETATM   18  H1  UNK     1      -6.779  14.352  66.415  1.00  0.00     0.000 HD 
HETATM   19  H2  UNK     1      -7.250  13.789  67.933  1.00  0.00     0.000 HD 
ENDBRANCH  12  13
ENDBRANCH  11  12
ENDBRANCH  10  11
ENDBRANCH   5  10
TORSDOF 4
ENDMDL
MODEL       95
REMARK 921   NORMALIZED FREE ENERGY PREDICTED BY IDOCK:   -3.87 KCAL/MOL
REMARK 922        TOTAL FREE ENERGY PREDICTED BY IDOCK:   -5.21 KCAL/MOL
REMARK 923 INTER-LIGAND FREE ENERGY PREDICTED BY IDOCK:   -5.19 KCAL/MOL
REMARK 924 INTRA-LIGAND FREE ENERGY PREDICTED BY IDOCK:   -0.02 KCAL/MOL
REMARK 927      BINDING AFFINITY PREDICTED BY RF-SCORE:    0.00 PKD
ROOT
HETATM    1  C   UNK     1     -10.653   9.882  67.269  1.00  0.00    -0.252 C  
HETATM    2  N   UNK     1     -11.696  10.395  68.129  1.00  0.00    -0.743 NA 
HETATM    3  H   UNK     1     -12.518  10.811  67.691  1.00  0.00     0.000 HD 
HETATM    4  C   UNK     1     -11.644  10.355  69.484  1.00  0.00    -0.219 C  
HETATM    5  N   UNK     1     -12.835  10.720  70.025  1.00  0.00    -0.363 NA 
HETATM    6  N   UNK     1     -10.625  10.035  70.197  1.00  0.00    -0.282 NA 
HETATM    7  H   UNK     1     -13.659  10.825  69.433  1.00  0.00     0.000 HD 
HETATM    8  H2  UNK     1      -9.772   9.786  69.697  1.00  0.00     0.000 HD 
HETATM    9  H1  UNK     1     -10.586  10.004  71.216  1.00  0.00     0.000 HD 
ENDROOT
BRANCH   5  10
HETATM   10  C   UNK     1     -12.925  10.961  71.461  1.00  0.00    -0.451 C  
BRANCH  10  11
HETATM   11  C   UNK     1     -13.114  12.453  71.722  1.00  0.00    -0.446 C  
BRANCH  11  12
HETATM   12  C   UNK     1     -12.534  13.304  70.582  1.00  0.00    -0.373 C  
BRANCH  12  13
HETATM   13  C   UNK     1     -12.446  14.801  70.903  1.00  0.00    -0.328 C  
HETATM   14  C   UNK     1     -11.363  15.468  70.039  1.00  0.00    -0.321 C  
HETATM   15  N   UNK     1     -13.744  15.488  70.655  1.00  0.00    -0.846 NA 
HETATM   16  O   UNK     1     -10.163  15.413  70.245  1.00  0.00    -0.274 OA 
HETATM   17  O   UNK     1     -11.916  16.104  68.971  1.00  0.00    -0.291 OA 
HETATM   18  H1  UNK     1     -13.685  16.484  70.869  1.00  0.00     0.000 HD 
HETATM   19  H2  UNK     1     -14.506  15.041  71.164  1.00  0.00     0.000 HD 
ENDBRANCH  12  13
ENDBRANCH  11  12
ENDBRANCH  10  11
ENDBRANCH   5  10
TORSDOF 4
ENDMDL
MODEL       96
REMARK 921   NORMALIZED FREE ENERGY PREDICTED BY IDOCK:   -3.86 KCAL/MOL
REMARK 922        TOTAL FREE ENERGY PREDICTED BY IDOCK:   -5.20 KCAL/MOL
REMARK 923 INTER-LIGAND FREE ENERGY PREDICTED BY IDOCK:   -4.93 KCAL/MOL
REMARK 924 INTRA-LIGAND FREE ENERGY PREDICTED BY IDOCK:   -0.26 KCAL/MOL
REMARK 927      BINDING AFFINITY PREDICTED BY RF-SCORE:    0.00 PKD
ROOT
HETATM    1  C   UNK     1     -12.545  14.724  70.130  1.00  0.00    -0.271 C  
HETATM    2  N   UNK     1     -12.889  13.612  70.986  1.00  0.00    -0.312 NA 
HETATM    3  H   UNK     1     -13.511  13.788  71.775  1.00  0.00     0.000 HD 
HETATM    4  C   UNK     1     -12.433  12.348  70.802  1.00  0.00    -0.267 C  
HETATM    5  N   UNK     1     -13.071  11.477  71.627  1.00  0.00    -0.439 NA 
HETATM    6  N   UNK     1     -11.517  11.982  69.980  1.00  0.00    -0.522 NA 
HETATM    7  H   UNK     1     -13.889  11.776  72.157  1.00  0.00     0.000 HD 
HETATM    8  H2  UNK     1     -11.089  12.713  69.411  1.00  0.00     0.000 HD 
HETATM    9  H1  UNK     1     -11.174  11.032  69.841  1.00  0.00     0.000 HD 
ENDROOT
BRANCH   5  10
HETATM   10  C   UNK     1     -12.574  10.110  71.748  1.00  0.00    -0.403 C  
BRANCH  10  11
HETATM   11  C   UNK     1     -13.714   9.183  72.159  1.00  0.00    -0.531 C  
BRANCH  11  12
HETATM   12  C   UNK     1     -13.472   7.743  71.682  1.00  0.00    -0.401 C  
BRANCH  12  13
HETATM   13  C   UNK     1     -12.021   7.456  71.274  1.00  0.00    -0.313 C  
HETATM   14  C   UNK     1     -11.301   6.674  72.386  1.00  0.00    -0.272 C  
HETATM   15  N   UNK     1     -11.955   6.665  70.014  1.00  0.00    -0.636 NA 
HETATM   16  O   UNK     1     -10.856   7.156  73.412  1.00  0.00    -0.351 OA 
HETATM   17  O   UNK     1     -11.258   5.345  72.095  1.00  0.00    -0.217 OA 
HETATM   18  H1  UNK     1     -10.990   6.475  69.744  1.00  0.00     0.000 HD 
HETATM   19  H2  UNK     1     -12.472   7.118  69.261  1.00  0.00     0.000 HD 
ENDBRANCH  12  13
ENDBRANCH  11  12
ENDBRANCH  10  11
ENDBRANCH   5  10
TORSDOF 4
ENDMDL
MODEL       97
REMARK 921   NORMALIZED FREE ENERGY PREDICTED BY IDOCK:   -3.81 KCAL/MOL
REMARK 922        TOTAL FREE ENERGY PREDICTED BY IDOCK:   -5.14 KCAL/MOL
REMARK 923 INTER-LIGAND FREE ENERGY PREDICTED BY IDOCK:   -4.65 KCAL/MOL
REMARK 924 INTRA-LIGAND FREE ENERGY PREDICTED BY IDOCK:   -0.49 KCAL/MOL
REMARK 927      BINDING AFFINITY PREDICTED BY RF-SCORE:    0.00 PKD
ROOT
HETATM    1  C   UNK     1     -10.092  20.125  66.374  1.00  0.00    -0.445 C  
HETATM    2  N   UNK     1     -10.764  18.952  66.883  1.00  0.00    -0.413 NA 
HETATM    3  H   UNK     1     -11.642  18.673  66.444  1.00  0.00     0.000 HD 
HETATM    4  C   UNK     1     -10.296  18.199  67.909  1.00  0.00    -0.396 C  
HETATM    5  N   UNK     1     -11.018  17.056  68.041  1.00  0.00    -0.324 NA 
HETATM    6  N   UNK     1      -9.315  18.495  68.684  1.00  0.00    -0.333 NA 
HETATM    7  H   UNK     1     -11.691  16.786  67.323  1.00  0.00     0.000 HD 
HETATM    8  H2  UNK     1      -8.843  19.382  68.510  1.00  0.00     0.000 HD 
HETATM    9  H1  UNK     1      -8.963  17.929  69.456  1.00  0.00     0.000 HD 
ENDROOT
BRANCH   5  10
HETATM   10  C   UNK     1     -10.824  16.219  69.220  1.00  0.00    -0.318 C  
BRANCH  10  11
HETATM   11  C   UNK     1     -10.209  14.884  68.808  1.00  0.00    -0.243 C  
BRANCH  11  12
HETATM   12  C   UNK     1     -11.231  13.987  68.095  1.00  0.00    -0.299 C  
BRANCH  12  13
HETATM   13  C   UNK     1     -10.877  13.675  66.635  1.00  0.00    -0.283 C  
HETATM   14  C   UNK     1     -11.806  12.579  66.085  1.00  0.00    -0.397 C  
HETATM   15  N   UNK     1     -11.001  14.883  65.774  1.00  0.00    -0.335 NA 
HETATM   16  O   UNK     1     -11.697  11.386  66.306  1.00  0.00    -0.309 OA 
HETATM   17  O   UNK     1     -12.808  13.121  65.341  1.00  0.00    -0.553 OA 
HETATM   18  H1  UNK     1     -10.766  14.675  64.804  1.00  0.00     0.000 HD 
HETATM   19  H2  UNK     1     -10.446  15.658  66.136  1.00  0.00     0.000 HD 
ENDBRANCH  12  13
ENDBRANCH  11  12
ENDBRANCH  10  11
ENDBRANCH   5  10
TORSDOF 4
ENDMDL
MODEL       98
REMARK 921   NORMALIZED FREE ENERGY PREDICTED BY IDOCK:   -3.80 KCAL/MOL
REMARK 922        TOTAL FREE ENERGY PREDICTED BY IDOCK:   -5.13 KCAL/MOL
REMARK 923 INTER-LIGAND FREE ENERGY PREDICTED BY IDOCK:   -4.86 KCAL/MOL
REMARK 924 INTRA-LIGAND FREE ENERGY PREDICTED BY IDOCK:   -0.27 KCAL/MOL
REMARK 927      BINDING AFFINITY PREDICTED BY RF-SCORE:    0.00 PKD
ROOT
HETATM    1  C   UNK     1     -12.518  15.953  74.117  1.00  0.00    -0.643 C  
HETATM    2  N   UNK     1     -11.981  15.696  72.800  1.00  0.00    -0.445 NA 
HETATM    3  H   UNK     1     -11.313  16.363  72.416  1.00  0.00     0.000 HD 
HETATM    4  C   UNK     1     -12.314  14.619  72.046  1.00  0.00    -0.321 C  
HETATM    5  N   UNK     1     -11.515  14.528  70.951  1.00  0.00    -0.507 NA 
HETATM    6  N   UNK     1     -13.257  13.782  72.290  1.00  0.00    -0.443 NA 
HETATM    7  H   UNK     1     -10.688  15.119  70.867  1.00  0.00     0.000 HD 
HETATM    8  H2  UNK     1     -13.810  13.943  73.132  1.00  0.00     0.000 HD 
HETATM    9  H1  UNK     1     -13.508  12.972  71.723  1.00  0.00     0.000 HD 
ENDROOT
BRANCH   5  10
HETATM   10  C   UNK     1     -11.850  13.576  69.897  1.00  0.00    -0.316 C  
BRANCH  10  11
HETATM   11  C   UNK     1     -11.829  14.280  68.543  1.00  0.00    -0.382 C  
BRANCH  11  12
HETATM   12  C   UNK     1     -11.608  15.792  68.695  1.00  0.00    -0.392 C  
BRANCH  12  13
HETATM   13  C   UNK     1     -10.491  16.352  67.805  1.00  0.00    -0.300 C  
HETATM   14  C   UNK     1      -9.657  17.383  68.585  1.00  0.00    -0.295 C  
HETATM   15  N   UNK     1      -9.586  15.273  67.323  1.00  0.00    -0.210 NA 
HETATM   16  O   UNK     1      -9.984  18.536  68.801  1.00  0.00    -0.374 OA 
HETATM   17  O   UNK     1      -8.505  16.825  69.049  1.00  0.00    -0.231 OA 
HETATM   18  H1  UNK     1      -8.843  15.645  66.732  1.00  0.00     0.000 HD 
HETATM   19  H2  UNK     1     -10.105  14.534  66.850  1.00  0.00     0.000 HD 
ENDBRANCH  12  13
ENDBRANCH  11  12
ENDBRANCH  10  11
ENDBRANCH   5  10
TORSDOF 4
ENDMDL
MODEL       99
REMARK 921   NORMALIZED FREE ENERGY PREDICTED BY IDOCK:   -3.77 KCAL/MOL
REMARK 922        TOTAL FREE ENERGY PREDICTED BY IDOCK:   -5.10 KCAL/MOL
REMARK 923 INTER-LIGAND FREE ENERGY PREDICTED BY IDOCK:   -4.37 KCAL/MOL
REMARK 924 INTRA-LIGAND FREE ENERGY PREDICTED BY IDOCK:   -0.73 KCAL/MOL
REMARK 927      BINDING AFFINITY PREDICTED BY RF-SCORE:    0.00 PKD
ROOT
HETATM    1  C   UNK     1      -8.101  19.116  68.336  1.00  0.00    -0.343 C  
HETATM    2  N   UNK     1      -9.175  18.160  68.188  1.00  0.00    -0.283 NA 
HETATM    3  H   UNK     1      -9.828  18.048  68.963  1.00  0.00     0.000 HD 
HETATM    4  C   UNK     1      -9.364  17.404  67.078  1.00  0.00    -0.260 C  
HETATM    5  N   UNK     1     -10.552  16.747  67.135  1.00  0.00    -0.294 NA 
HETATM    6  N   UNK     1      -8.550  17.284  66.092  1.00  0.00    -0.482 NA 
HETATM    7  H   UNK     1     -11.233  16.978  67.859  1.00  0.00     0.000 HD 
HETATM    8  H2  UNK     1      -7.677  17.809  66.147  1.00  0.00     0.000 HD 
HETATM    9  H1  UNK     1      -8.692  16.715  65.257  1.00  0.00     0.000 HD 
ENDROOT
BRANCH   5  10
HETATM   10  C   UNK     1     -10.845  15.710  66.152  1.00  0.00    -0.264 C  
BRANCH  10  11
HETATM   11  C   UNK     1     -10.800  14.339  66.822  1.00  0.00    -0.298 C  
BRANCH  11  12
HETATM   12  C   UNK     1     -11.831  14.229  67.955  1.00  0.00    -0.379 C  
BRANCH  12  13
HETATM   13  C   UNK     1     -11.211  14.121  69.354  1.00  0.00    -0.255 C  
HETATM   14  C   UNK     1     -11.552  15.370  70.185  1.00  0.00    -0.327 C  
HETATM   15  N   UNK     1     -11.706  12.918  70.078  1.00  0.00    -0.514 NA 
HETATM   16  O   UNK     1     -11.002  16.453  70.088  1.00  0.00    -0.349 OA 
HETATM   17  O   UNK     1     -12.592  15.125  71.028  1.00  0.00    -0.318 OA 
HETATM   18  H1  UNK     1     -11.294  12.846  71.008  1.00  0.00     0.000 HD 
HETATM   19  H2  UNK     1     -11.554  12.068  69.535  1.00  0.00     0.000 HD 
ENDBRANCH  12  13
ENDBRANCH  11  12
ENDBRANCH  10  11
ENDBRANCH   5  10
TORSDOF 4
ENDMDL
MODEL      100
REMARK 921   NORMALIZED FREE ENERGY PREDICTED BY IDOCK:   -3.77 KCAL/MOL
REMARK 922        TOTAL FREE ENERGY PREDICTED BY IDOCK:   -5.09 KCAL/MOL
REMARK 923 INTER-LIGAND FREE ENERGY PREDICTED BY IDOCK:   -4.91 KCAL/MOL
REMARK 924 INTRA-LIGAND FREE ENERGY PREDICTED BY IDOCK:   -0.18 KCAL/MOL
REMARK 927      BINDING AFFINITY PREDICTED BY RF-SCORE:    0.00 PKD
ROOT
HETATM    1  C   UNK     1     -13.091   9.877  71.675  1.00  0.00    -0.437 C  
HETATM    2  N   UNK     1     -12.770  10.070  70.279  1.00  0.00    -0.541 NA 
HETATM    3  H   UNK     1     -12.922   9.290  69.639  1.00  0.00     0.000 HD 
HETATM    4  C   UNK     1     -12.278  11.227  69.770  1.00  0.00    -0.275 C  
HETATM    5  N   UNK     1     -12.259  11.190  68.412  1.00  0.00    -0.726 NA 
HETATM    6  N   UNK     1     -11.863  12.238  70.443  1.00  0.00    -0.532 NA 
HETATM    7  H   UNK     1     -12.729  10.436  67.911  1.00  0.00     0.000 HD 
HETATM    8  H2  UNK     1     -11.907  12.165  71.460  1.00  0.00     0.000 HD 
HETATM    9  H1  UNK     1     -11.493  13.109  70.061  1.00  0.00     0.000 HD 
ENDROOT
BRANCH   5  10
HETATM   10  C   UNK     1     -11.561  12.239  67.676  1.00  0.00    -0.354 C  
BRANCH  10  11
HETATM   11  C   UNK     1     -11.386  11.818  66.220  1.00  0.00    -0.350 C  
BRANCH  11  12
HETATM   12  C   UNK     1     -10.026  11.142  65.987  1.00  0.00    -0.280 C  
BRANCH  12  13
HETATM   13  C   UNK     1     -10.029  10.109  64.852  1.00  0.00    -0.288 C  
HETATM   14  C   UNK     1      -9.457  10.730  63.567  1.00  0.00    -0.299 C  
HETATM   15  N   UNK     1      -9.220   8.910  65.205  1.00  0.00    -0.434 NA 
HETATM   16  O   UNK     1     -10.061  11.473  62.813  1.00  0.00    -0.231 OA 
HETATM   17  O   UNK     1      -8.155  10.373  63.393  1.00  0.00    -0.161 OA 
HETATM   18  H1  UNK     1      -9.222   8.224  64.450  1.00  0.00     0.000 HD 
HETATM   19  H2  UNK     1      -9.526   8.498  66.086  1.00  0.00     0.000 HD 
ENDBRANCH  12  13
ENDBRANCH  11  12
ENDBRANCH  10  11
ENDBRANCH   5  10
TORSDOF 4
ENDMDL
MODEL      101
REMARK 921   NORMALIZED FREE ENERGY PREDICTED BY IDOCK:   -3.76 KCAL/MOL
REMARK 922        TOTAL FREE ENERGY PREDICTED BY IDOCK:   -5.08 KCAL/MOL
REMARK 923 INTER-LIGAND FREE ENERGY PREDICTED BY IDOCK:   -4.84 KCAL/MOL
REMARK 924 INTRA-LIGAND FREE ENERGY PREDICTED BY IDOCK:   -0.24 KCAL/MOL
REMARK 927      BINDING AFFINITY PREDICTED BY RF-SCORE:    0.00 PKD
ROOT
HETATM    1  C   UNK     1      -6.715  19.900  68.866  1.00  0.00    -0.322 C  
HETATM    2  N   UNK     1      -7.471  18.773  68.366  1.00  0.00    -0.287 NA 
HETATM    3  H   UNK     1      -6.955  17.955  68.044  1.00  0.00     0.000 HD 
HETATM    4  C   UNK     1      -8.825  18.742  68.301  1.00  0.00    -0.333 C  
HETATM    5  N   UNK     1      -9.266  17.497  67.982  1.00  0.00    -0.268 NA 
HETATM    6  N   UNK     1      -9.619  19.733  68.493  1.00  0.00    -0.359 NA 
HETATM    7  H   UNK     1      -8.621  16.707  67.981  1.00  0.00     0.000 HD 
HETATM    8  H2  UNK     1      -9.190  20.631  68.716  1.00  0.00     0.000 HD 
HETATM    9  H1  UNK     1     -10.637  19.710  68.444  1.00  0.00     0.000 HD 
ENDROOT
BRANCH   5  10
HETATM   10  C   UNK     1     -10.671  17.301  67.641  1.00  0.00    -0.307 C  
BRANCH  10  11
HETATM   11  C   UNK     1     -11.206  16.062  68.354  1.00  0.00    -0.364 C  
BRANCH  11  12
HETATM   12  C   UNK     1     -11.014  16.157  69.875  1.00  0.00    -0.362 C  
BRANCH  12  13
HETATM   13  C   UNK     1     -11.723  15.049  70.664  1.00  0.00    -0.308 C  
HETATM   14  C   UNK     1     -12.636  15.664  71.738  1.00  0.00    -0.442 C  
HETATM   15  N   UNK     1     -12.548  14.188  69.773  1.00  0.00    -0.455 NA 
HETATM   16  O   UNK     1     -12.264  16.109  72.810  1.00  0.00    -0.466 OA 
HETATM   17  O   UNK     1     -13.931  15.688  71.320  1.00  0.00    -0.570 OA 
HETATM   18  H1  UNK     1     -13.020  13.452  70.298  1.00  0.00     0.000 HD 
HETATM   19  H2  UNK     1     -11.994  13.805  69.007  1.00  0.00     0.000 HD 
ENDBRANCH  12  13
ENDBRANCH  11  12
ENDBRANCH  10  11
ENDBRANCH   5  10
TORSDOF 4
ENDMDL
MODEL      102
REMARK 921   NORMALIZED FREE ENERGY PREDICTED BY IDOCK:   -3.76 KCAL/MOL
REMARK 922        TOTAL FREE ENERGY PREDICTED BY IDOCK:   -5.08 KCAL/MOL
REMARK 923 INTER-LIGAND FREE ENERGY PREDICTED BY IDOCK:   -4.79 KCAL/MOL
REMARK 924 INTRA-LIGAND FREE ENERGY PREDICTED BY IDOCK:   -0.29 KCAL/MOL
REMARK 927      BINDING AFFINITY PREDICTED BY RF-SCORE:    0.00 PKD
ROOT
HETATM    1  C   UNK     1      -9.303   9.049  67.823  1.00  0.00    -0.140 C  
HETATM    2  N   UNK     1     -10.214   9.671  66.890  1.00  0.00    -0.230 NA 
HETATM    3  H   UNK     1     -11.199   9.727  67.146  1.00  0.00     0.000 HD 
HETATM    4  C   UNK     1      -9.835  10.184  65.693  1.00  0.00    -0.280 C  
HETATM    5  N   UNK     1     -10.852  10.877  65.118  1.00  0.00    -0.135 NA 
HETATM    6  N   UNK     1      -8.686  10.044  65.135  1.00  0.00    -0.153 NA 
HETATM    7  H   UNK     1     -11.696  11.090  65.651  1.00  0.00     0.000 HD 
HETATM    8  H2  UNK     1      -7.992   9.495  65.641  1.00  0.00     0.000 HD 
HETATM    9  H1  UNK     1      -8.401  10.430  64.235  1.00  0.00     0.000 HD 
ENDROOT
BRANCH   5  10
HETATM   10  C   UNK     1     -10.727  11.316  63.732  1.00  0.00    -0.379 C  
BRANCH  10  11
HETATM   11  C   UNK     1     -11.438  12.654  63.550  1.00  0.00    -0.557 C  
BRANCH  11  12
HETATM   12  C   UNK     1     -11.385  13.501  64.830  1.00  0.00    -0.362 C  
BRANCH  12  13
HETATM   13  C   UNK     1     -10.306  14.591  64.813  1.00  0.00    -0.287 C  
HETATM   14  C   UNK     1     -10.955  15.983  64.905  1.00  0.00    -0.384 C  
HETATM   15  N   UNK     1      -9.354  14.433  65.947  1.00  0.00    -0.530 NA 
HETATM   16  O   UNK     1     -11.486  16.576  63.982  1.00  0.00    -1.137 OA 
HETATM   17  O   UNK     1     -10.899  16.463  66.177  1.00  0.00    -0.213 OA 
HETATM   18  H1  UNK     1      -8.637  15.158  65.935  1.00  0.00     0.000 HD 
HETATM   19  H2  UNK     1      -8.943  13.500  65.961  1.00  0.00     0.000 HD 
ENDBRANCH  12  13
ENDBRANCH  11  12
ENDBRANCH  10  11
ENDBRANCH   5  10
TORSDOF 4
ENDMDL
MODEL      103
REMARK 921   NORMALIZED FREE ENERGY PREDICTED BY IDOCK:   -3.75 KCAL/MOL
REMARK 922        TOTAL FREE ENERGY PREDICTED BY IDOCK:   -5.07 KCAL/MOL
REMARK 923 INTER-LIGAND FREE ENERGY PREDICTED BY IDOCK:   -4.92 KCAL/MOL
REMARK 924 INTRA-LIGAND FREE ENERGY PREDICTED BY IDOCK:   -0.14 KCAL/MOL
REMARK 927      BINDING AFFINITY PREDICTED BY RF-SCORE:    0.00 PKD
ROOT
HETATM    1  C   UNK     1      -9.397   7.828  67.223  1.00  0.00    -0.145 C  
HETATM    2  N   UNK     1     -10.414   8.854  67.274  1.00  0.00    -0.282 NA 
HETATM    3  H   UNK     1     -11.019   8.970  66.462  1.00  0.00     0.000 HD 
HETATM    4  C   UNK     1     -10.609   9.671  68.339  1.00  0.00    -0.225 C  
HETATM    5  N   UNK     1     -11.749  10.395  68.191  1.00  0.00    -0.743 NA 
HETATM    6  N   UNK     1      -9.840   9.786  69.361  1.00  0.00    -0.192 NA 
HETATM    7  H   UNK     1     -12.407  10.174  67.443  1.00  0.00     0.000 HD 
HETATM    8  H2  UNK     1      -9.001   9.207  69.373  1.00  0.00     0.000 HD 
HETATM    9  H1  UNK     1      -9.987  10.401  70.161  1.00  0.00     0.000 HD 
ENDROOT
BRANCH   5  10
HETATM   10  C   UNK     1     -12.024  11.493  69.112  1.00  0.00    -0.320 C  
BRANCH  10  11
HETATM   11  C   UNK     1     -11.190  12.711  68.725  1.00  0.00    -0.325 C  
BRANCH  11  12
HETATM   12  C   UNK     1     -11.988  13.688  67.848  1.00  0.00    -0.382 C  
BRANCH  12  13
HETATM   13  C   UNK     1     -11.438  13.840  66.424  1.00  0.00    -0.336 C  
HETATM   14  C   UNK     1     -12.489  13.387  65.397  1.00  0.00    -0.494 C  
HETATM   15  N   UNK     1     -11.064  15.251  66.133  1.00  0.00    -0.317 NA 
HETATM   16  O   UNK     1     -12.744  12.230  65.113  1.00  0.00    -0.571 OA 
HETATM   17  O   UNK     1     -13.142  14.456  64.865  1.00  0.00    -0.593 OA 
HETATM   18  H1  UNK     1     -10.699  15.353  65.186  1.00  0.00     0.000 HD 
HETATM   19  H2  UNK     1     -10.411  15.615  66.827  1.00  0.00     0.000 HD 
ENDBRANCH  12  13
ENDBRANCH  11  12
ENDBRANCH  10  11
ENDBRANCH   5  10
TORSDOF 4
ENDMDL
MODEL      104
REMARK 921   NORMALIZED FREE ENERGY PREDICTED BY IDOCK:   -3.72 KCAL/MOL
REMARK 922        TOTAL FREE ENERGY PREDICTED BY IDOCK:   -5.03 KCAL/MOL
REMARK 923 INTER-LIGAND FREE ENERGY PREDICTED BY IDOCK:   -4.55 KCAL/MOL
REMARK 924 INTRA-LIGAND FREE ENERGY PREDICTED BY IDOCK:   -0.47 KCAL/MOL
REMARK 927      BINDING AFFINITY PREDICTED BY RF-SCORE:    0.00 PKD
ROOT
HETATM    1  C   UNK     1     -13.201  10.357  71.115  1.00  0.00    -0.310 C  
HETATM    2  N   UNK     1     -12.406   9.954  69.978  1.00  0.00    -0.481 NA 
HETATM    3  H   UNK     1     -12.516   9.002  69.629  1.00  0.00     0.000 HD 
HETATM    4  C   UNK     1     -11.522  10.767  69.348  1.00  0.00    -0.295 C  
HETATM    5  N   UNK     1     -11.069  10.196  68.202  1.00  0.00    -0.424 NA 
HETATM    6  N   UNK     1     -11.129  11.921  69.752  1.00  0.00    -0.475 NA 
HETATM    7  H   UNK     1     -11.509   9.350  67.839  1.00  0.00     0.000 HD 
HETATM    8  H2  UNK     1     -11.519  12.259  70.632  1.00  0.00     0.000 HD 
HETATM    9  H1  UNK     1     -10.465  12.533  69.278  1.00  0.00     0.000 HD 
ENDROOT
BRANCH   5  10
HETATM   10  C   UNK     1      -9.947  10.803  67.494  1.00  0.00    -0.174 C  
BRANCH  10  11
HETATM   11  C   UNK     1     -10.366  11.155  66.069  1.00  0.00    -0.308 C  
BRANCH  11  12
HETATM   12  C   UNK     1     -11.518  12.171  66.054  1.00  0.00    -0.427 C  
BRANCH  12  13
HETATM   13  C   UNK     1     -11.064  13.627  65.894  1.00  0.00    -0.284 C  
HETATM   14  C   UNK     1     -10.681  14.218  67.262  1.00  0.00    -0.277 C  
HETATM   15  N   UNK     1      -9.891  13.735  64.984  1.00  0.00    -0.604 NA 
HETATM   16  O   UNK     1     -11.468  14.616  68.103  1.00  0.00    -0.293 OA 
HETATM   17  O   UNK     1      -9.332  14.202  67.439  1.00  0.00    -0.202 OA 
HETATM   18  H1  UNK     1      -9.589  14.704  64.878  1.00  0.00     0.000 HD 
HETATM   19  H2  UNK     1     -10.079  13.301  64.080  1.00  0.00     0.000 HD 
ENDBRANCH  12  13
ENDBRANCH  11  12
ENDBRANCH  10  11
ENDBRANCH   5  10
TORSDOF 4
ENDMDL
MODEL      105
REMARK 921   NORMALIZED FREE ENERGY PREDICTED BY IDOCK:   -3.71 KCAL/MOL
REMARK 922        TOTAL FREE ENERGY PREDICTED BY IDOCK:   -5.02 KCAL/MOL
REMARK 923 INTER-LIGAND FREE ENERGY PREDICTED BY IDOCK:   -4.47 KCAL/MOL
REMARK 924 INTRA-LIGAND FREE ENERGY PREDICTED BY IDOCK:   -0.54 KCAL/MOL
REMARK 927      BINDING AFFINITY PREDICTED BY RF-SCORE:    0.00 PKD
ROOT
HETATM    1  C   UNK     1      -8.190  18.178  66.489  1.00  0.00    -0.267 C  
HETATM    2  N   UNK     1      -9.398  17.538  66.020  1.00  0.00    -0.510 NA 
HETATM    3  H   UNK     1     -10.206  18.127  65.818  1.00  0.00     0.000 HD 
HETATM    4  C   UNK     1      -9.520  16.200  65.834  1.00  0.00    -0.302 C  
HETATM    5  N   UNK     1     -10.685  15.903  65.203  1.00  0.00    -0.479 NA 
HETATM    6  N   UNK     1      -8.679  15.302  66.200  1.00  0.00    -0.447 NA 
HETATM    7  H   UNK     1     -11.256  16.645  64.798  1.00  0.00     0.000 HD 
HETATM    8  H2  UNK     1      -7.837  15.625  66.678  1.00  0.00     0.000 HD 
HETATM    9  H1  UNK     1      -8.770  14.295  66.060  1.00  0.00     0.000 HD 
ENDROOT
BRANCH   5  10
HETATM   10  C   UNK     1     -11.114  14.511  65.109  1.00  0.00    -0.370 C  
BRANCH  10  11
HETATM   11  C   UNK     1     -12.057  14.184  66.263  1.00  0.00    -0.463 C  
BRANCH  11  12
HETATM   12  C   UNK     1     -11.872  12.740  66.753  1.00  0.00    -0.452 C  
BRANCH  12  13
HETATM   13  C   UNK     1     -11.387  12.630  68.204  1.00  0.00    -0.290 C  
HETATM   14  C   UNK     1      -9.954  13.176  68.328  1.00  0.00    -0.236 C  
HETATM   15  N   UNK     1     -12.269  13.389  69.132  1.00  0.00    -0.246 NA 
HETATM   16  O   UNK     1      -8.942  12.579  68.006  1.00  0.00    -0.179 OA 
HETATM   17  O   UNK     1      -9.959  14.447  68.813  1.00  0.00    -0.233 OA 
HETATM   18  H1  UNK     1     -11.946  13.316  70.097  1.00  0.00     0.000 HD 
HETATM   19  H2  UNK     1     -13.243  13.101  69.041  1.00  0.00     0.000 HD 
ENDBRANCH  12  13
ENDBRANCH  11  12
ENDBRANCH  10  11
ENDBRANCH   5  10
TORSDOF 4
ENDMDL
MODEL      106
REMARK 921   NORMALIZED FREE ENERGY PREDICTED BY IDOCK:   -3.71 KCAL/MOL
REMARK 922        TOTAL FREE ENERGY PREDICTED BY IDOCK:   -5.01 KCAL/MOL
REMARK 923 INTER-LIGAND FREE ENERGY PREDICTED BY IDOCK:   -4.66 KCAL/MOL
REMARK 924 INTRA-LIGAND FREE ENERGY PREDICTED BY IDOCK:   -0.36 KCAL/MOL
REMARK 927      BINDING AFFINITY PREDICTED BY RF-SCORE:    0.00 PKD
ROOT
HETATM    1  C   UNK     1     -12.427  10.054  70.903  1.00  0.00    -0.337 C  
HETATM    2  N   UNK     1     -12.529  10.520  69.539  1.00  0.00    -0.655 NA 
HETATM    3  H   UNK     1     -13.423  10.411  69.060  1.00  0.00     0.000 HD 
HETATM    4  C   UNK     1     -11.505  11.092  68.858  1.00  0.00    -0.296 C  
HETATM    5  N   UNK     1     -11.936  11.609  67.678  1.00  0.00    -0.625 NA 
HETATM    6  N   UNK     1     -10.279  11.147  69.234  1.00  0.00    -0.407 NA 
HETATM    7  H   UNK     1     -12.935  11.677  67.480  1.00  0.00     0.000 HD 
HETATM    8  H2  UNK     1     -10.052  10.718  70.132  1.00  0.00     0.000 HD 
HETATM    9  H1  UNK     1      -9.508  11.577  68.722  1.00  0.00     0.000 HD 
ENDROOT
BRANCH   5  10
HETATM   10  C   UNK     1     -10.959  12.067  66.697  1.00  0.00    -0.287 C  
BRANCH  10  11
HETATM   11  C   UNK     1     -11.064  13.580  66.532  1.00  0.00    -0.310 C  
BRANCH  11  12
HETATM   12  C   UNK     1     -10.487  14.323  67.746  1.00  0.00    -0.245 C  
BRANCH  12  13
HETATM   13  C   UNK     1     -11.480  15.274  68.427  1.00  0.00    -0.345 C  
HETATM   14  C   UNK     1     -11.441  15.081  69.952  1.00  0.00    -0.289 C  
HETATM   15  N   UNK     1     -11.172  16.697  68.117  1.00  0.00    -0.287 NA 
HETATM   16  O   UNK     1     -11.979  14.175  70.563  1.00  0.00    -0.302 OA 
HETATM   17  O   UNK     1     -10.680  16.043  70.544  1.00  0.00    -0.271 OA 
HETATM   18  H1  UNK     1     -11.832  17.328  68.569  1.00  0.00     0.000 HD 
HETATM   19  H2  UNK     1     -11.128  16.859  67.111  1.00  0.00     0.000 HD 
ENDBRANCH  12  13
ENDBRANCH  11  12
ENDBRANCH  10  11
ENDBRANCH   5  10
TORSDOF 4
ENDMDL
MODEL      107
REMARK 921   NORMALIZED FREE ENERGY PREDICTED BY IDOCK:   -3.70 KCAL/MOL
REMARK 922        TOTAL FREE ENERGY PREDICTED BY IDOCK:   -5.00 KCAL/MOL
REMARK 923 INTER-LIGAND FREE ENERGY PREDICTED BY IDOCK:   -4.47 KCAL/MOL
REMARK 924 INTRA-LIGAND FREE ENERGY PREDICTED BY IDOCK:   -0.53 KCAL/MOL
REMARK 927      BINDING AFFINITY PREDICTED BY RF-SCORE:    0.00 PKD
ROOT
HETATM    1  C   UNK     1     -13.920  14.089  72.112  1.00  0.00    -0.538 C  
HETATM    2  N   UNK     1     -12.934  15.098  71.797  1.00  0.00    -0.339 NA 
HETATM    3  H   UNK     1     -12.690  15.773  72.522  1.00  0.00     0.000 HD 
HETATM    4  C   UNK     1     -12.316  15.201  70.594  1.00  0.00    -0.368 C  
HETATM    5  N   UNK     1     -11.304  16.105  70.645  1.00  0.00    -0.412 NA 
HETATM    6  N   UNK     1     -12.624  14.560  69.524  1.00  0.00    -0.560 NA 
HETATM    7  H   UNK     1     -10.996  16.483  71.540  1.00  0.00     0.000 HD 
HETATM    8  H2  UNK     1     -13.408  13.911  69.585  1.00  0.00     0.000 HD 
HETATM    9  H1  UNK     1     -12.159  14.637  68.619  1.00  0.00     0.000 HD 
ENDROOT
BRANCH   5  10
HETATM   10  C   UNK     1     -10.660  16.529  69.406  1.00  0.00    -0.329 C  
BRANCH  10  11
HETATM   11  C   UNK     1      -9.337  15.788  69.233  1.00  0.00    -0.261 C  
BRANCH  11  12
HETATM   12  C   UNK     1      -9.122  15.348  67.777  1.00  0.00    -0.178 C  
BRANCH  12  13
HETATM   13  C   UNK     1      -9.427  13.866  67.522  1.00  0.00    -0.216 C  
HETATM   14  C   UNK     1     -10.515  13.725  66.444  1.00  0.00    -0.284 C  
HETATM   15  N   UNK     1      -8.213  13.130  67.073  1.00  0.00    -0.371 NA 
HETATM   16  O   UNK     1     -11.710  13.879  66.624  1.00  0.00    -0.354 OA 
HETATM   17  O   UNK     1      -9.965  13.442  65.232  1.00  0.00    -0.259 OA 
HETATM   18  H1  UNK     1      -8.415  12.145  66.903  1.00  0.00     0.000 HD 
HETATM   19  H2  UNK     1      -7.442  13.245  67.730  1.00  0.00     0.000 HD 
ENDBRANCH  12  13
ENDBRANCH  11  12
ENDBRANCH  10  11
ENDBRANCH   5  10
TORSDOF 4
ENDMDL
MODEL      108
REMARK 921   NORMALIZED FREE ENERGY PREDICTED BY IDOCK:   -3.69 KCAL/MOL
REMARK 922        TOTAL FREE ENERGY PREDICTED BY IDOCK:   -4.99 KCAL/MOL
REMARK 923 INTER-LIGAND FREE ENERGY PREDICTED BY IDOCK:   -4.79 KCAL/MOL
REMARK 924 INTRA-LIGAND FREE ENERGY PREDICTED BY IDOCK:   -0.20 KCAL/MOL
REMARK 927      BINDING AFFINITY PREDICTED BY RF-SCORE:    0.00 PKD
ROOT
HETATM    1  C   UNK     1      -9.517  15.859  68.620  1.00  0.00    -0.214 C  
HETATM    2  N   UNK     1     -10.104  15.027  69.646  1.00  0.00    -0.401 NA 
HETATM    3  H   UNK     1      -9.537  14.799  70.462  1.00  0.00     0.000 HD 
HETATM    4  C   UNK     1     -11.366  14.533  69.587  1.00  0.00    -0.273 C  
HETATM    5  N   UNK     1     -11.718  13.959  70.767  1.00  0.00    -0.522 NA 
HETATM    6  N   UNK     1     -12.150  14.570  68.571  1.00  0.00    -0.572 NA 
HETATM    7  H   UNK     1     -11.130  14.078  71.592  1.00  0.00     0.000 HD 
HETATM    8  H2  UNK     1     -11.789  15.013  67.726  1.00  0.00     0.000 HD 
HETATM    9  H1  UNK     1     -13.099  14.198  68.526  1.00  0.00     0.000 HD 
ENDROOT
BRANCH   5  10
HETATM   10  C   UNK     1     -12.944  13.172  70.843  1.00  0.00    -0.066 C  
BRANCH  10  11
HETATM   11  C   UNK     1     -12.719  11.955  71.736  1.00  0.00    -0.287 C  
BRANCH  11  12
HETATM   12  C   UNK     1     -12.319  10.718  70.916  1.00  0.00    -0.497 C  
BRANCH  12  13
HETATM   13  C   UNK     1     -12.980   9.416  71.388  1.00  0.00    -0.346 C  
HETATM   14  C   UNK     1     -11.914   8.331  71.612  1.00  0.00    -0.303 C  
HETATM   15  N   UNK     1     -13.732   9.616  72.657  1.00  0.00    -0.686 NA 
HETATM   16  O   UNK     1     -11.380   7.674  70.736  1.00  0.00    -0.276 OA 
HETATM   17  O   UNK     1     -11.603   8.220  72.933  1.00  0.00    -0.351 OA 
HETATM   18  H1  UNK     1     -14.171   8.750  72.971  1.00  0.00     0.000 HD 
HETATM   19  H2  UNK     1     -14.412  10.371  72.573  1.00  0.00     0.000 HD 
ENDBRANCH  12  13
ENDBRANCH  11  12
ENDBRANCH  10  11
ENDBRANCH   5  10
TORSDOF 4
ENDMDL
MODEL      109
REMARK 921   NORMALIZED FREE ENERGY PREDICTED BY IDOCK:   -3.69 KCAL/MOL
REMARK 922        TOTAL FREE ENERGY PREDICTED BY IDOCK:   -4.99 KCAL/MOL
REMARK 923 INTER-LIGAND FREE ENERGY PREDICTED BY IDOCK:   -4.90 KCAL/MOL
REMARK 924 INTRA-LIGAND FREE ENERGY PREDICTED BY IDOCK:   -0.10 KCAL/MOL
REMARK 927      BINDING AFFINITY PREDICTED BY RF-SCORE:    0.00 PKD
ROOT
HETATM    1  C   UNK     1     -10.899   6.012  72.160  1.00  0.00    -0.251 C  
HETATM    2  N   UNK     1     -11.271   7.390  72.390  1.00  0.00    -0.275 NA 
HETATM    3  H   UNK     1     -10.721   7.930  73.058  1.00  0.00     0.000 HD 
HETATM    4  C   UNK     1     -12.307   8.005  71.770  1.00  0.00    -0.319 C  
HETATM    5  N   UNK     1     -12.302   9.339  72.024  1.00  0.00    -0.371 NA 
HETATM    6  N   UNK     1     -13.203   7.440  71.044  1.00  0.00    -0.604 NA 
HETATM    7  H   UNK     1     -11.499   9.773  72.479  1.00  0.00     0.000 HD 
HETATM    8  H2  UNK     1     -13.128   6.430  70.921  1.00  0.00     0.000 HD 
HETATM    9  H1  UNK     1     -13.984   7.902  70.577  1.00  0.00     0.000 HD 
ENDROOT
BRANCH   5  10
HETATM   10  C   UNK     1     -13.454  10.147  71.639  1.00  0.00    -0.284 C  
BRANCH  10  11
HETATM   11  C   UNK     1     -12.989  11.535  71.205  1.00  0.00    -0.397 C  
BRANCH  11  12
HETATM   12  C   UNK     1     -13.452  12.619  72.189  1.00  0.00    -0.561 C  
BRANCH  12  13
HETATM   13  C   UNK     1     -12.663  13.931  72.089  1.00  0.00    -0.230 C  
HETATM   14  C   UNK     1     -13.089  14.714  70.836  1.00  0.00    -0.358 C  
HETATM   15  N   UNK     1     -12.880  14.790  73.285  1.00  0.00    -0.517 NA 
HETATM   16  O   UNK     1     -12.725  14.475  69.698  1.00  0.00    -0.165 OA 
HETATM   17  O   UNK     1     -13.973  15.698  71.155  1.00  0.00    -0.564 OA 
HETATM   18  H1  UNK     1     -12.356  15.662  73.219  1.00  0.00     0.000 HD 
HETATM   19  H2  UNK     1     -12.667  14.290  74.148  1.00  0.00     0.000 HD 
ENDBRANCH  12  13
ENDBRANCH  11  12
ENDBRANCH  10  11
ENDBRANCH   5  10
TORSDOF 4
ENDMDL
MODEL      110
REMARK 921   NORMALIZED FREE ENERGY PREDICTED BY IDOCK:   -3.67 KCAL/MOL
REMARK 922        TOTAL FREE ENERGY PREDICTED BY IDOCK:   -4.97 KCAL/MOL
REMARK 923 INTER-LIGAND FREE ENERGY PREDICTED BY IDOCK:   -4.75 KCAL/MOL
REMARK 924 INTRA-LIGAND FREE ENERGY PREDICTED BY IDOCK:   -0.22 KCAL/MOL
REMARK 927      BINDING AFFINITY PREDICTED BY RF-SCORE:    0.00 PKD
ROOT
HETATM    1  C   UNK     1      -6.026   9.348  63.875  1.00  0.00    -0.090 C  
HETATM    2  N   UNK     1      -7.064  10.344  63.728  1.00  0.00    -0.314 NA 
HETATM    3  H   UNK     1      -6.784  11.299  63.504  1.00  0.00     0.000 HD 
HETATM    4  C   UNK     1      -8.387  10.081  63.870  1.00  0.00    -0.167 C  
HETATM    5  N   UNK     1      -9.136  11.146  63.483  1.00  0.00    -0.396 NA 
HETATM    6  N   UNK     1      -8.903   8.994  64.318  1.00  0.00    -0.409 NA 
HETATM    7  H   UNK     1      -8.703  11.932  62.998  1.00  0.00     0.000 HD 
HETATM    8  H2  UNK     1      -8.255   8.256  64.594  1.00  0.00     0.000 HD 
HETATM    9  H1  UNK     1      -9.898   8.797  64.425  1.00  0.00     0.000 HD 
ENDROOT
BRANCH   5  10
HETATM   10  C   UNK     1     -10.567  11.156  63.767  1.00  0.00    -0.356 C  
BRANCH  10  11
HETATM   11  C   UNK     1     -11.162  12.503  63.369  1.00  0.00    -0.460 C  
BRANCH  11  12
HETATM   12  C   UNK     1     -11.224  13.469  64.562  1.00  0.00    -0.392 C  
BRANCH  12  13
HETATM   13  C   UNK     1     -12.349  13.160  65.558  1.00  0.00    -0.474 C  
HETATM   14  C   UNK     1     -11.782  13.052  66.983  1.00  0.00    -0.383 C  
HETATM   15  N   UNK     1     -13.398  14.217  65.539  1.00  0.00    -0.666 NA 
HETATM   16  O   UNK     1     -11.194  12.087  67.437  1.00  0.00    -0.268 OA 
HETATM   17  O   UNK     1     -11.986  14.206  67.676  1.00  0.00    -0.377 OA 
HETATM   18  H1  UNK     1     -14.146  14.011  66.202  1.00  0.00     0.000 HD 
HETATM   19  H2  UNK     1     -13.762  14.365  64.598  1.00  0.00     0.000 HD 
ENDBRANCH  12  13
ENDBRANCH  11  12
ENDBRANCH  10  11
ENDBRANCH   5  10
TORSDOF 4
ENDMDL
MODEL      111
REMARK 921   NORMALIZED FREE ENERGY PREDICTED BY IDOCK:   -3.67 KCAL/MOL
REMARK 922        TOTAL FREE ENERGY PREDICTED BY IDOCK:   -4.97 KCAL/MOL
REMARK 923 INTER-LIGAND FREE ENERGY PREDICTED BY IDOCK:   -4.67 KCAL/MOL
REMARK 924 INTRA-LIGAND FREE ENERGY PREDICTED BY IDOCK:   -0.30 KCAL/MOL
REMARK 927      BINDING AFFINITY PREDICTED BY RF-SCORE:    0.00 PKD
ROOT
HETATM    1  C   UNK     1     -10.889  19.344  65.455  1.00  0.00    -0.113 C  
HETATM    2  N   UNK     1     -10.379  18.095  65.975  1.00  0.00    -0.553 NA 
HETATM    3  H   UNK     1      -9.772  18.128  66.794  1.00  0.00     0.000 HD 
HETATM    4  C   UNK     1     -10.662  16.883  65.438  1.00  0.00    -0.150 C  
HETATM    5  N   UNK     1     -10.218  15.881  66.241  1.00  0.00    -0.294 NA 
HETATM    6  N   UNK     1     -11.254  16.666  64.319  1.00  0.00    -1.380 NA 
HETATM    7  H   UNK     1      -9.886  16.085  67.184  1.00  0.00     0.000 HD 
HETATM    8  H2  UNK     1     -11.540  17.485  63.782  1.00  0.00     0.000 HD 
HETATM    9  H1  UNK     1     -11.467  15.754  63.914  1.00  0.00     0.000 HD 
ENDROOT
BRANCH   5  10
HETATM   10  C   UNK     1     -10.219  14.509  65.743  1.00  0.00    -0.335 C  
BRANCH  10  11
HETATM   11  C   UNK     1      -9.071  13.730  66.378  1.00  0.00    -0.083 C  
BRANCH  11  12
HETATM   12  C   UNK     1      -9.273  13.559  67.891  1.00  0.00    -0.211 C  
BRANCH  12  13
HETATM   13  C   UNK     1      -9.840  12.192  68.295  1.00  0.00    -0.212 C  
HETATM   14  C   UNK     1     -11.356  12.296  68.536  1.00  0.00    -0.286 C  
HETATM   15  N   UNK     1      -9.594  11.168  67.243  1.00  0.00    -0.165 NA 
HETATM   16  O   UNK     1     -11.881  12.745  69.540  1.00  0.00    -0.308 OA 
HETATM   17  O   UNK     1     -12.052  11.854  67.454  1.00  0.00    -0.577 OA 
HETATM   18  H1  UNK     1      -9.971  10.259  67.512  1.00  0.00     0.000 HD 
HETATM   19  H2  UNK     1      -8.604  11.107  67.006  1.00  0.00     0.000 HD 
ENDBRANCH  12  13
ENDBRANCH  11  12
ENDBRANCH  10  11
ENDBRANCH   5  10
TORSDOF 4
ENDMDL
MODEL      112
REMARK 921   NORMALIZED FREE ENERGY PREDICTED BY IDOCK:   -3.67 KCAL/MOL
REMARK 922        TOTAL FREE ENERGY PREDICTED BY IDOCK:   -4.96 KCAL/MOL
REMARK 923 INTER-LIGAND FREE ENERGY PREDICTED BY IDOCK:   -4.22 KCAL/MOL
REMARK 924 INTRA-LIGAND FREE ENERGY PREDICTED BY IDOCK:   -0.74 KCAL/MOL
REMARK 927      BINDING AFFINITY PREDICTED BY RF-SCORE:    0.00 PKD
ROOT
HETATM    1  C   UNK     1     -11.042  11.670  67.742  1.00  0.00    -0.249 C  
HETATM    2  N   UNK     1     -10.365  11.279  68.958  1.00  0.00    -0.305 NA 
HETATM    3  H   UNK     1      -9.861  11.997  69.478  1.00  0.00     0.000 HD 
HETATM    4  C   UNK     1     -10.362  10.014  69.447  1.00  0.00    -0.227 C  
HETATM    5  N   UNK     1      -9.823   9.978  70.693  1.00  0.00    -0.314 NA 
HETATM    6  N   UNK     1     -10.787   8.964  68.842  1.00  0.00    -0.420 NA 
HETATM    7  H   UNK     1      -9.632  10.844  71.197  1.00  0.00     0.000 HD 
HETATM    8  H2  UNK     1     -11.164   9.094  67.903  1.00  0.00     0.000 HD 
HETATM    9  H1  UNK     1     -10.784   8.013  69.210  1.00  0.00     0.000 HD 
ENDROOT
BRANCH   5  10
HETATM   10  C   UNK     1      -9.519   8.688  71.305  1.00  0.00    -0.224 C  
BRANCH  10  11
HETATM   11  C   UNK     1     -10.423   8.466  72.514  1.00  0.00    -0.372 C  
BRANCH  11  12
HETATM   12  C   UNK     1     -11.200   7.145  72.405  1.00  0.00    -0.309 C  
BRANCH  12  13
HETATM   13  C   UNK     1     -12.613   7.298  71.828  1.00  0.00    -0.341 C  
HETATM   14  C   UNK     1     -13.162   8.703  72.132  1.00  0.00    -0.383 C  
HETATM   15  N   UNK     1     -12.626   7.089  70.354  1.00  0.00    -0.571 NA 
HETATM   16  O   UNK     1     -13.621   9.065  73.201  1.00  0.00    -0.214 OA 
HETATM   17  O   UNK     1     -13.031   9.520  71.051  1.00  0.00    -0.294 OA 
HETATM   18  H1  UNK     1     -13.566   7.191  69.972  1.00  0.00     0.000 HD 
HETATM   19  H2  UNK     1     -12.214   6.191  70.101  1.00  0.00     0.000 HD 
ENDBRANCH  12  13
ENDBRANCH  11  12
ENDBRANCH  10  11
ENDBRANCH   5  10
TORSDOF 4
ENDMDL
MODEL      113
REMARK 921   NORMALIZED FREE ENERGY PREDICTED BY IDOCK:   -3.65 KCAL/MOL
REMARK 922        TOTAL FREE ENERGY PREDICTED BY IDOCK:   -4.94 KCAL/MOL
REMARK 923 INTER-LIGAND FREE ENERGY PREDICTED BY IDOCK:   -4.70 KCAL/MOL
REMARK 924 INTRA-LIGAND FREE ENERGY PREDICTED BY IDOCK:   -0.24 KCAL/MOL
REMARK 927      BINDING AFFINITY PREDICTED BY RF-SCORE:    0.00 PKD
ROOT
HETATM    1  C   UNK     1     -14.367   6.558  71.986  1.00  0.00     0.103 C  
HETATM    2  N   UNK     1     -13.710   7.671  71.338  1.00  0.00    -0.555 NA 
HETATM    3  H   UNK     1     -13.191   7.488  70.480  1.00  0.00     0.000 HD 
HETATM    4  C   UNK     1     -13.744   8.943  71.806  1.00  0.00    -0.422 C  
HETATM    5  N   UNK     1     -13.216   9.807  70.901  1.00  0.00    -0.581 NA 
HETATM    6  N   UNK     1     -14.192   9.322  72.949  1.00  0.00    -1.017 NA 
HETATM    7  H   UNK     1     -13.007   9.495  69.953  1.00  0.00     0.000 HD 
HETATM    8  H2  UNK     1     -14.558   8.595  73.564  1.00  0.00     0.000 HD 
HETATM    9  H1  UNK     1     -14.218  10.278  73.301  1.00  0.00     0.000 HD 
ENDROOT
BRANCH   5  10
HETATM   10  C   UNK     1     -12.951  11.186  71.297  1.00  0.00    -0.357 C  
BRANCH  10  11
HETATM   11  C   UNK     1     -11.884  11.787  70.386  1.00  0.00    -0.362 C  
BRANCH  11  12
HETATM   12  C   UNK     1     -12.221  11.574  68.903  1.00  0.00    -0.128 C  
BRANCH  12  13
HETATM   13  C   UNK     1     -11.102  10.898  68.100  1.00  0.00    -0.280 C  
HETATM   14  C   UNK     1      -9.727  11.305  68.657  1.00  0.00    -0.195 C  
HETATM   15  N   UNK     1     -11.216   9.414  68.148  1.00  0.00    -0.497 NA 
HETATM   16  O   UNK     1      -9.164  12.363  68.441  1.00  0.00    -0.197 OA 
HETATM   17  O   UNK     1      -9.226  10.336  69.471  1.00  0.00    -0.208 OA 
HETATM   18  H1  UNK     1     -10.473   8.965  67.615  1.00  0.00     0.000 HD 
HETATM   19  H2  UNK     1     -12.138   9.101  67.843  1.00  0.00     0.000 HD 
ENDBRANCH  12  13
ENDBRANCH  11  12
ENDBRANCH  10  11
ENDBRANCH   5  10
TORSDOF 4
ENDMDL
MODEL      114
REMARK 921   NORMALIZED FREE ENERGY PREDICTED BY IDOCK:   -3.64 KCAL/MOL
REMARK 922        TOTAL FREE ENERGY PREDICTED BY IDOCK:   -4.93 KCAL/MOL
REMARK 923 INTER-LIGAND FREE ENERGY PREDICTED BY IDOCK:   -5.03 KCAL/MOL
REMARK 924 INTRA-LIGAND FREE ENERGY PREDICTED BY IDOCK:    0.09 KCAL/MOL
REMARK 927      BINDING AFFINITY PREDICTED BY RF-SCORE:    0.00 PKD
ROOT
HETATM    1  C   UNK     1     -11.668  13.533  66.322  1.00  0.00    -0.367 C  
HETATM    2  N   UNK     1     -12.170  12.452  67.139  1.00  0.00    -0.418 NA 
HETATM    3  H   UNK     1     -12.945  11.897  66.776  1.00  0.00     0.000 HD 
HETATM    4  C   UNK     1     -11.671  12.132  68.359  1.00  0.00    -0.332 C  
HETATM    5  N   UNK     1     -12.194  10.961  68.805  1.00  0.00    -0.793 NA 
HETATM    6  N   UNK     1     -10.827  12.821  69.039  1.00  0.00    -0.398 NA 
HETATM    7  H   UNK     1     -12.744  10.371  68.180  1.00  0.00     0.000 HD 
HETATM    8  H2  UNK     1     -10.501  13.693  68.623  1.00  0.00     0.000 HD 
HETATM    9  H1  UNK     1     -10.452  12.581  69.957  1.00  0.00     0.000 HD 
ENDROOT
BRANCH   5  10
HETATM   10  C   UNK     1     -11.963  10.554  70.187  1.00  0.00    -0.316 C  
BRANCH  10  11
HETATM   11  C   UNK     1     -11.140   9.269  70.214  1.00  0.00    -0.289 C  
BRANCH  11  12
HETATM   12  C   UNK     1     -10.509   9.030  71.594  1.00  0.00    -0.426 C  
BRANCH  12  13
HETATM   13  C   UNK     1     -11.335   8.117  72.509  1.00  0.00    -0.401 C  
HETATM   14  C   UNK     1     -11.922   6.947  71.702  1.00  0.00    -0.339 C  
HETATM   15  N   UNK     1     -10.509   7.566  73.618  1.00  0.00    -0.333 NA 
HETATM   16  O   UNK     1     -12.900   7.009  70.978  1.00  0.00    -0.349 OA 
HETATM   17  O   UNK     1     -11.176   5.820  71.867  1.00  0.00    -0.264 OA 
HETATM   18  H1  UNK     1     -11.058   6.959  74.226  1.00  0.00     0.000 HD 
HETATM   19  H2  UNK     1     -10.050   8.308  74.146  1.00  0.00     0.000 HD 
ENDBRANCH  12  13
ENDBRANCH  11  12
ENDBRANCH  10  11
ENDBRANCH   5  10
TORSDOF 4
ENDMDL
MODEL      115
REMARK 921   NORMALIZED FREE ENERGY PREDICTED BY IDOCK:   -3.64 KCAL/MOL
REMARK 922        TOTAL FREE ENERGY PREDICTED BY IDOCK:   -4.93 KCAL/MOL
REMARK 923 INTER-LIGAND FREE ENERGY PREDICTED BY IDOCK:   -4.52 KCAL/MOL
REMARK 924 INTRA-LIGAND FREE ENERGY PREDICTED BY IDOCK:   -0.41 KCAL/MOL
REMARK 927      BINDING AFFINITY PREDICTED BY RF-SCORE:    0.00 PKD
ROOT
HETATM    1  C   UNK     1     -10.719  17.046  68.090  1.00  0.00    -0.374 C  
HETATM    2  N   UNK     1     -11.414  15.779  68.052  1.00  0.00    -0.311 NA 
HETATM    3  H   UNK     1     -12.334  15.750  67.612  1.00  0.00     0.000 HD 
HETATM    4  C   UNK     1     -10.915  14.628  68.567  1.00  0.00    -0.252 C  
HETATM    5  N   UNK     1     -11.685  13.566  68.216  1.00  0.00    -0.339 NA 
HETATM    6  N   UNK     1      -9.868  14.515  69.302  1.00  0.00    -0.416 NA 
HETATM    7  H   UNK     1     -12.419  13.671  67.515  1.00  0.00     0.000 HD 
HETATM    8  H2  UNK     1      -9.363  15.374  69.520  1.00  0.00     0.000 HD 
HETATM    9  H1  UNK     1      -9.492  13.649  69.690  1.00  0.00     0.000 HD 
ENDROOT
BRANCH   5  10
HETATM   10  C   UNK     1     -11.453  12.272  68.849  1.00  0.00    -0.304 C  
BRANCH  10  11
HETATM   11  C   UNK     1     -11.168  11.220  67.781  1.00  0.00    -0.354 C  
BRANCH  11  12
HETATM   12  C   UNK     1     -11.294  11.802  66.366  1.00  0.00    -0.361 C  
BRANCH  12  13
HETATM   13  C   UNK     1      -9.950  12.033  65.663  1.00  0.00    -0.245 C  
HETATM   14  C   UNK     1      -9.929  11.311  64.305  1.00  0.00    -0.297 C  
HETATM   15  N   UNK     1      -9.694  13.482  65.438  1.00  0.00    -0.530 NA 
HETATM   16  O   UNK     1      -9.743  10.118  64.144  1.00  0.00    -0.307 OA 
HETATM   17  O   UNK     1     -10.190  12.178  63.290  1.00  0.00    -0.429 OA 
HETATM   18  H1  UNK     1      -8.801  13.635  64.971  1.00  0.00     0.000 HD 
HETATM   19  H2  UNK     1      -9.758  14.012  66.306  1.00  0.00     0.000 HD 
ENDBRANCH  12  13
ENDBRANCH  11  12
ENDBRANCH  10  11
ENDBRANCH   5  10
TORSDOF 4
ENDMDL
MODEL      116
REMARK 921   NORMALIZED FREE ENERGY PREDICTED BY IDOCK:   -3.64 KCAL/MOL
REMARK 922        TOTAL FREE ENERGY PREDICTED BY IDOCK:   -4.93 KCAL/MOL
REMARK 923 INTER-LIGAND FREE ENERGY PREDICTED BY IDOCK:   -4.58 KCAL/MOL
REMARK 924 INTRA-LIGAND FREE ENERGY PREDICTED BY IDOCK:   -0.36 KCAL/MOL
REMARK 927      BINDING AFFINITY PREDICTED BY RF-SCORE:    0.00 PKD
ROOT
HETATM    1  C   UNK     1     -11.030   6.479  67.179  1.00  0.00    -0.408 C  
HETATM    2  N   UNK     1     -10.842   7.909  67.090  1.00  0.00    -0.501 NA 
HETATM    3  H   UNK     1     -11.490   8.510  67.598  1.00  0.00     0.000 HD 
HETATM    4  C   UNK     1      -9.854   8.498  66.371  1.00  0.00    -0.257 C  
HETATM    5  N   UNK     1      -9.796   9.830  66.628  1.00  0.00    -0.202 NA 
HETATM    6  N   UNK     1      -9.068   7.915  65.540  1.00  0.00    -0.392 NA 
HETATM    7  H   UNK     1     -10.333  10.231  67.397  1.00  0.00     0.000 HD 
HETATM    8  H2  UNK     1      -9.199   6.912  65.407  1.00  0.00     0.000 HD 
HETATM    9  H1  UNK     1      -8.325   8.357  64.999  1.00  0.00     0.000 HD 
ENDROOT
BRANCH   5  10
HETATM   10  C   UNK     1      -8.957  10.684  65.794  1.00  0.00    -0.182 C  
BRANCH  10  11
HETATM   11  C   UNK     1      -9.503  12.109  65.803  1.00  0.00    -0.156 C  
BRANCH  11  12
HETATM   12  C   UNK     1      -9.739  12.615  67.234  1.00  0.00    -0.207 C  
BRANCH  12  13
HETATM   13  C   UNK     1     -11.216  12.841  67.580  1.00  0.00    -0.280 C  
HETATM   14  C   UNK     1     -11.948  13.488  66.392  1.00  0.00    -0.414 C  
HETATM   15  N   UNK     1     -11.898  11.562  67.921  1.00  0.00    -0.614 NA 
HETATM   16  O   UNK     1     -11.898  14.667  66.090  1.00  0.00    -0.352 OA 
HETATM   17  O   UNK     1     -12.637  12.556  65.679  1.00  0.00    -0.612 OA 
HETATM   18  H1  UNK     1     -12.880  11.712  68.151  1.00  0.00     0.000 HD 
HETATM   19  H2  UNK     1     -11.411  11.067  68.667  1.00  0.00     0.000 HD 
ENDBRANCH  12  13
ENDBRANCH  11  12
ENDBRANCH  10  11
ENDBRANCH   5  10
TORSDOF 4
ENDMDL
MODEL      117
REMARK 921   NORMALIZED FREE ENERGY PREDICTED BY IDOCK:   -3.64 KCAL/MOL
REMARK 922        TOTAL FREE ENERGY PREDICTED BY IDOCK:   -4.93 KCAL/MOL
REMARK 923 INTER-LIGAND FREE ENERGY PREDICTED BY IDOCK:   -4.31 KCAL/MOL
REMARK 924 INTRA-LIGAND FREE ENERGY PREDICTED BY IDOCK:   -0.62 KCAL/MOL
REMARK 927      BINDING AFFINITY PREDICTED BY RF-SCORE:    0.00 PKD
ROOT
HETATM    1  C   UNK     1     -11.743  13.553  68.699  1.00  0.00    -0.354 C  
HETATM    2  N   UNK     1     -11.862  12.771  69.909  1.00  0.00    -0.435 NA 
HETATM    3  H   UNK     1     -11.641  13.223  70.796  1.00  0.00     0.000 HD 
HETATM    4  C   UNK     1     -12.250  11.472  69.932  1.00  0.00    -0.258 C  
HETATM    5  N   UNK     1     -12.464  11.053  71.206  1.00  0.00    -0.378 NA 
HETATM    6  N   UNK     1     -12.394  10.703  68.914  1.00  0.00    -0.790 NA 
HETATM    7  H   UNK     1     -12.483  11.725  71.973  1.00  0.00     0.000 HD 
HETATM    8  H2  UNK     1     -12.198  11.108  67.999  1.00  0.00     0.000 HD 
HETATM    9  H1  UNK     1     -12.686   9.725  68.931  1.00  0.00     0.000 HD 
ENDROOT
BRANCH   5  10
HETATM   10  C   UNK     1     -12.668   9.632  71.469  1.00  0.00    -0.387 C  
BRANCH  10  11
HETATM   11  C   UNK     1     -11.331   8.971  71.790  1.00  0.00    -0.447 C  
BRANCH  11  12
HETATM   12  C   UNK     1     -11.159   7.645  71.033  1.00  0.00    -0.273 C  
BRANCH  12  13
HETATM   13  C   UNK     1     -10.001   7.646  70.027  1.00  0.00    -0.190 C  
HETATM   14  C   UNK     1     -10.491   7.158  68.653  1.00  0.00    -0.197 C  
HETATM   15  N   UNK     1      -9.417   9.006  69.870  1.00  0.00    -0.168 NA 
HETATM   16  O   UNK     1     -10.682   5.995  68.344  1.00  0.00    -0.240 OA 
HETATM   17  O   UNK     1     -10.729   8.208  67.821  1.00  0.00    -0.194 OA 
HETATM   18  H1  UNK     1      -8.647   9.006  69.201  1.00  0.00     0.000 HD 
HETATM   19  H2  UNK     1      -9.132   9.396  70.768  1.00  0.00     0.000 HD 
ENDBRANCH  12  13
ENDBRANCH  11  12
ENDBRANCH  10  11
ENDBRANCH   5  10
TORSDOF 4
ENDMDL
MODEL      118
REMARK 921   NORMALIZED FREE ENERGY PREDICTED BY IDOCK:   -3.64 KCAL/MOL
REMARK 922        TOTAL FREE ENERGY PREDICTED BY IDOCK:   -4.93 KCAL/MOL
REMARK 923 INTER-LIGAND FREE ENERGY PREDICTED BY IDOCK:   -4.77 KCAL/MOL
REMARK 924 INTRA-LIGAND FREE ENERGY PREDICTED BY IDOCK:   -0.16 KCAL/MOL
REMARK 927      BINDING AFFINITY PREDICTED BY RF-SCORE:    0.00 PKD
ROOT
HETATM    1  C   UNK     1      -9.226  10.156  62.793  1.00  0.00    -0.301 C  
HETATM    2  N   UNK     1     -10.350  10.745  63.485  1.00  0.00    -0.521 NA 
HETATM    3  H   UNK     1     -11.279  10.621  63.083  1.00  0.00     0.000 HD 
HETATM    4  C   UNK     1     -10.241  11.451  64.637  1.00  0.00    -0.294 C  
HETATM    5  N   UNK     1     -11.466  11.711  65.164  1.00  0.00    -0.178 NA 
HETATM    6  N   UNK     1      -9.150  11.853  65.183  1.00  0.00    -0.407 NA 
HETATM    7  H   UNK     1     -12.296  11.255  64.786  1.00  0.00     0.000 HD 
HETATM    8  H2  UNK     1      -8.281  11.617  64.704  1.00  0.00     0.000 HD 
HETATM    9  H1  UNK     1      -9.068  12.385  66.050  1.00  0.00     0.000 HD 
ENDROOT
BRANCH   5  10
HETATM   10  C   UNK     1     -11.583  12.649  66.277  1.00  0.00    -0.386 C  
BRANCH  10  11
HETATM   11  C   UNK     1     -11.690  14.073  65.740  1.00  0.00    -0.368 C  
BRANCH  11  12
HETATM   12  C   UNK     1     -10.713  15.021  66.453  1.00  0.00    -0.322 C  
BRANCH  12  13
HETATM   13  C   UNK     1     -10.794  16.476  65.974  1.00  0.00    -0.069 C  
HETATM   14  C   UNK     1      -9.667  17.308  66.609  1.00  0.00    -0.288 C  
HETATM   15  N   UNK     1     -10.679  16.570  64.492  1.00  0.00    -0.839 NA 
HETATM   16  O   UNK     1      -9.668  17.743  67.748  1.00  0.00    -0.271 OA 
HETATM   17  O   UNK     1      -8.631  17.466  65.742  1.00  0.00    -0.526 OA 
HETATM   18  H1  UNK     1     -10.732  17.537  64.175  1.00  0.00     0.000 HD 
HETATM   19  H2  UNK     1     -11.371  15.984  64.026  1.00  0.00     0.000 HD 
ENDBRANCH  12  13
ENDBRANCH  11  12
ENDBRANCH  10  11
ENDBRANCH   5  10
TORSDOF 4
ENDMDL
MODEL      119
REMARK 921   NORMALIZED FREE ENERGY PREDICTED BY IDOCK:   -3.63 KCAL/MOL
REMARK 922        TOTAL FREE ENERGY PREDICTED BY IDOCK:   -4.92 KCAL/MOL
REMARK 923 INTER-LIGAND FREE ENERGY PREDICTED BY IDOCK:   -4.88 KCAL/MOL
REMARK 924 INTRA-LIGAND FREE ENERGY PREDICTED BY IDOCK:   -0.04 KCAL/MOL
REMARK 927      BINDING AFFINITY PREDICTED BY RF-SCORE:    0.00 PKD
ROOT
HETATM    1  C   UNK     1      -7.400  20.197  66.336  1.00  0.00    -0.281 C  
HETATM    2  N   UNK     1      -7.876  18.908  65.889  1.00  0.00    -0.470 NA 
HETATM    3  H   UNK     1      -7.357  18.435  65.149  1.00  0.00     0.000 HD 
HETATM    4  C   UNK     1      -8.972  18.291  66.395  1.00  0.00    -0.243 C  
HETATM    5  N   UNK     1      -9.068  17.017  65.934  1.00  0.00    -0.533 NA 
HETATM    6  N   UNK     1      -9.836  18.808  67.193  1.00  0.00    -0.305 NA 
HETATM    7  H   UNK     1      -8.293  16.595  65.423  1.00  0.00     0.000 HD 
HETATM    8  H2  UNK     1      -9.683  19.777  67.473  1.00  0.00     0.000 HD 
HETATM    9  H1  UNK     1     -10.661  18.345  67.573  1.00  0.00     0.000 HD 
ENDROOT
BRANCH   5  10
HETATM   10  C   UNK     1     -10.290  16.257  66.176  1.00  0.00    -0.341 C  
BRANCH  10  11
HETATM   11  C   UNK     1     -10.191  15.537  67.518  1.00  0.00    -0.254 C  
BRANCH  11  12
HETATM   12  C   UNK     1     -10.521  14.043  67.383  1.00  0.00    -0.263 C  
BRANCH  12  13
HETATM   13  C   UNK     1     -11.887  13.651  67.961  1.00  0.00    -0.362 C  
HETATM   14  C   UNK     1     -11.847  12.207  68.490  1.00  0.00    -0.310 C  
HETATM   15  N   UNK     1     -12.288  14.556  69.073  1.00  0.00    -0.579 NA 
HETATM   16  O   UNK     1     -11.913  11.203  67.804  1.00  0.00    -0.630 OA 
HETATM   17  O   UNK     1     -11.681  12.189  69.841  1.00  0.00    -0.314 OA 
HETATM   18  H1  UNK     1     -13.196  14.295  69.457  1.00  0.00     0.000 HD 
HETATM   19  H2  UNK     1     -12.271  15.533  68.784  1.00  0.00     0.000 HD 
ENDBRANCH  12  13
ENDBRANCH  11  12
ENDBRANCH  10  11
ENDBRANCH   5  10
TORSDOF 4
ENDMDL
MODEL      120
REMARK 921   NORMALIZED FREE ENERGY PREDICTED BY IDOCK:   -3.62 KCAL/MOL
REMARK 922        TOTAL FREE ENERGY PREDICTED BY IDOCK:   -4.91 KCAL/MOL
REMARK 923 INTER-LIGAND FREE ENERGY PREDICTED BY IDOCK:   -4.81 KCAL/MOL
REMARK 924 INTRA-LIGAND FREE ENERGY PREDICTED BY IDOCK:   -0.10 KCAL/MOL
REMARK 927      BINDING AFFINITY PREDICTED BY RF-SCORE:    0.00 PKD
ROOT
HETATM    1  C   UNK     1     -10.175  16.204  69.276  1.00  0.00    -0.257 C  
HETATM    2  N   UNK     1     -11.585  16.048  69.553  1.00  0.00    -0.326 NA 
HETATM    3  H   UNK     1     -12.241  16.158  68.780  1.00  0.00     0.000 HD 
HETATM    4  C   UNK     1     -12.086  15.763  70.781  1.00  0.00    -0.408 C  
HETATM    5  N   UNK     1     -13.412  15.477  70.709  1.00  0.00    -0.809 NA 
HETATM    6  N   UNK     1     -11.435  15.765  71.887  1.00  0.00    -0.413 NA 
HETATM    7  H   UNK     1     -13.862  15.342  69.803  1.00  0.00     0.000 HD 
HETATM    8  H2  UNK     1     -10.444  16.005  71.839  1.00  0.00     0.000 HD 
HETATM    9  H1  UNK     1     -11.811  15.551  72.811  1.00  0.00     0.000 HD 
ENDROOT
BRANCH   5  10
HETATM   10  C   UNK     1     -14.189  15.365  71.940  1.00  0.00    -0.537 C  
BRANCH  10  11
HETATM   11  C   UNK     1     -13.875  14.040  72.627  1.00  0.00    -0.516 C  
BRANCH  11  12
HETATM   12  C   UNK     1     -13.904  12.867  71.635  1.00  0.00     0.223 C  
BRANCH  12  13
HETATM   13  C   UNK     1     -12.543  12.189  71.432  1.00  0.00    -0.209 C  
HETATM   14  C   UNK     1     -12.731  10.683  71.182  1.00  0.00    -0.422 C  
HETATM   15  N   UNK     1     -11.809  12.776  70.276  1.00  0.00    -0.537 NA 
HETATM   16  O   UNK     1     -12.954   9.849  72.042  1.00  0.00    -0.413 OA 
HETATM   17  O   UNK     1     -12.660  10.397  69.854  1.00  0.00    -0.187 OA 
HETATM   18  H1  UNK     1     -10.905  12.324  70.141  1.00  0.00     0.000 HD 
HETATM   19  H2  UNK     1     -11.713  13.787  70.370  1.00  0.00     0.000 HD 
ENDBRANCH  12  13
ENDBRANCH  11  12
ENDBRANCH  10  11
ENDBRANCH   5  10
TORSDOF 4
ENDMDL
MODEL      121
REMARK 921   NORMALIZED FREE ENERGY PREDICTED BY IDOCK:   -3.61 KCAL/MOL
REMARK 922        TOTAL FREE ENERGY PREDICTED BY IDOCK:   -4.89 KCAL/MOL
REMARK 923 INTER-LIGAND FREE ENERGY PREDICTED BY IDOCK:   -4.67 KCAL/MOL
REMARK 924 INTRA-LIGAND FREE ENERGY PREDICTED BY IDOCK:   -0.22 KCAL/MOL
REMARK 927      BINDING AFFINITY PREDICTED BY RF-SCORE:    0.00 PKD
ROOT
HETATM    1  C   UNK     1     -11.900  11.904  69.316  1.00  0.00    -0.318 C  
HETATM    2  N   UNK     1     -11.652  12.602  68.075  1.00  0.00    -0.323 NA 
HETATM    3  H   UNK     1     -12.294  12.443  67.299  1.00  0.00     0.000 HD 
HETATM    4  C   UNK     1     -10.615  13.454  67.882  1.00  0.00    -0.245 C  
HETATM    5  N   UNK     1     -10.741  14.112  66.701  1.00  0.00    -0.287 NA 
HETATM    6  N   UNK     1      -9.621  13.635  68.676  1.00  0.00    -0.379 NA 
HETATM    7  H   UNK     1     -11.609  14.053  66.169  1.00  0.00     0.000 HD 
HETATM    8  H2  UNK     1      -9.611  13.084  69.535  1.00  0.00     0.000 HD 
HETATM    9  H1  UNK     1      -8.841  14.276  68.532  1.00  0.00     0.000 HD 
ENDROOT
BRANCH   5  10
HETATM   10  C   UNK     1      -9.623  14.905  66.199  1.00  0.00    -0.310 C  
BRANCH  10  11
HETATM   11  C   UNK     1     -10.094  16.324  65.894  1.00  0.00    -0.381 C  
BRANCH  11  12
HETATM   12  C   UNK     1      -9.749  17.292  67.036  1.00  0.00    -0.267 C  
BRANCH  12  13
HETATM   13  C   UNK     1     -10.550  18.600  67.009  1.00  0.00    -0.397 C  
HETATM   14  C   UNK     1      -9.914  19.632  67.956  1.00  0.00    -0.427 C  
HETATM   15  N   UNK     1     -10.602  19.179  65.639  1.00  0.00    -0.526 NA 
HETATM   16  O   UNK     1     -10.039  19.648  69.168  1.00  0.00    -0.438 OA 
HETATM   17  O   UNK     1      -9.146  20.517  67.265  1.00  0.00    -0.378 OA 
HETATM   18  H1  UNK     1     -11.134  20.048  65.621  1.00  0.00     0.000 HD 
HETATM   19  H2  UNK     1     -10.962  18.505  64.963  1.00  0.00     0.000 HD 
ENDBRANCH  12  13
ENDBRANCH  11  12
ENDBRANCH  10  11
ENDBRANCH   5  10
TORSDOF 4
ENDMDL
MODEL      122
REMARK 921   NORMALIZED FREE ENERGY PREDICTED BY IDOCK:   -3.60 KCAL/MOL
REMARK 922        TOTAL FREE ENERGY PREDICTED BY IDOCK:   -4.88 KCAL/MOL
REMARK 923 INTER-LIGAND FREE ENERGY PREDICTED BY IDOCK:   -4.58 KCAL/MOL
REMARK 924 INTRA-LIGAND FREE ENERGY PREDICTED BY IDOCK:   -0.30 KCAL/MOL
REMARK 927      BINDING AFFINITY PREDICTED BY RF-SCORE:    0.00 PKD
ROOT
HETATM    1  C   UNK     1     -13.030   9.790  71.954  1.00  0.00    -0.440 C  
HETATM    2  N   UNK     1     -12.652   9.909  70.564  1.00  0.00    -0.508 NA 
HETATM    3  H   UNK     1     -12.623   9.060  70.000  1.00  0.00     0.000 HD 
HETATM    4  C   UNK     1     -12.331  11.084  69.968  1.00  0.00    -0.305 C  
HETATM    5  N   UNK     1     -12.212  10.929  68.624  1.00  0.00    -0.810 NA 
HETATM    6  N   UNK     1     -12.143  12.210  70.557  1.00  0.00    -0.461 NA 
HETATM    7  H   UNK     1     -12.510  10.061  68.177  1.00  0.00     0.000 HD 
HETATM    8  H2  UNK     1     -12.244  12.221  71.572  1.00  0.00     0.000 HD 
HETATM    9  H1  UNK     1     -11.902  13.094  70.108  1.00  0.00     0.000 HD 
ENDROOT
BRANCH   5  10
HETATM   10  C   UNK     1     -11.655  12.014  67.824  1.00  0.00    -0.330 C  
BRANCH  10  11
HETATM   11  C   UNK     1     -11.000  11.444  66.568  1.00  0.00    -0.328 C  
BRANCH  11  12
HETATM   12  C   UNK     1      -9.538  11.048  66.823  1.00  0.00    -0.216 C  
BRANCH  12  13
HETATM   13  C   UNK     1      -9.152   9.680  66.245  1.00  0.00    -0.160 C  
HETATM   14  C   UNK     1      -9.485   8.565  67.251  1.00  0.00    -0.157 C  
HETATM   15  N   UNK     1      -9.872   9.404  64.972  1.00  0.00    -0.389 NA 
HETATM   16  O   UNK     1      -8.818   8.275  68.229  1.00  0.00    -0.139 OA 
HETATM   17  O   UNK     1     -10.661   7.958  66.932  1.00  0.00    -0.341 OA 
HETATM   18  H1  UNK     1      -9.616   8.495  64.588  1.00  0.00     0.000 HD 
HETATM   19  H2  UNK     1      -9.728  10.151  64.292  1.00  0.00     0.000 HD 
ENDBRANCH  12  13
ENDBRANCH  11  12
ENDBRANCH  10  11
ENDBRANCH   5  10
TORSDOF 4
ENDMDL
MODEL      123
REMARK 921   NORMALIZED FREE ENERGY PREDICTED BY IDOCK:   -3.59 KCAL/MOL
REMARK 922        TOTAL FREE ENERGY PREDICTED BY IDOCK:   -4.87 KCAL/MOL
REMARK 923 INTER-LIGAND FREE ENERGY PREDICTED BY IDOCK:   -4.15 KCAL/MOL
REMARK 924 INTRA-LIGAND FREE ENERGY PREDICTED BY IDOCK:   -0.73 KCAL/MOL
REMARK 927      BINDING AFFINITY PREDICTED BY RF-SCORE:    0.00 PKD
ROOT
HETATM    1  C   UNK     1      -5.935  18.995  64.649  1.00  0.00    -0.263 C  
HETATM    2  N   UNK     1      -6.884  18.260  65.454  1.00  0.00    -0.505 NA 
HETATM    3  H   UNK     1      -7.871  18.507  65.378  1.00  0.00     0.000 HD 
HETATM    4  C   UNK     1      -6.539  17.261  66.303  1.00  0.00    -0.213 C  
HETATM    5  N   UNK     1      -7.642  16.621  66.773  1.00  0.00    -0.229 NA 
HETATM    6  N   UNK     1      -5.347  16.939  66.655  1.00  0.00    -0.331 NA 
HETATM    7  H   UNK     1      -8.558  16.806  66.363  1.00  0.00     0.000 HD 
HETATM    8  H2  UNK     1      -4.585  17.488  66.256  1.00  0.00     0.000 HD 
HETATM    9  H1  UNK     1      -5.087  16.188  67.294  1.00  0.00     0.000 HD 
ENDROOT
BRANCH   5  10
HETATM   10  C   UNK     1      -7.505  15.668  67.868  1.00  0.00    -0.133 C  
BRANCH  10  11
HETATM   11  C   UNK     1      -8.841  15.519  68.591  1.00  0.00    -0.193 C  
BRANCH  11  12
HETATM   12  C   UNK     1      -9.564  16.867  68.726  1.00  0.00    -0.268 C  
BRANCH  12  13
HETATM   13  C   UNK     1     -10.741  17.043  67.758  1.00  0.00    -0.318 C  
HETATM   14  C   UNK     1     -10.595  18.360  66.978  1.00  0.00    -0.366 C  
HETATM   15  N   UNK     1     -10.820  15.918  66.786  1.00  0.00    -0.278 NA 
HETATM   16  O   UNK     1     -10.860  19.469  67.410  1.00  0.00    -0.486 OA 
HETATM   17  O   UNK     1     -10.086  18.136  65.736  1.00  0.00    -0.563 OA 
HETATM   18  H1  UNK     1     -11.603  16.036  66.143  1.00  0.00     0.000 HD 
HETATM   19  H2  UNK     1     -10.858  15.016  67.260  1.00  0.00     0.000 HD 
ENDBRANCH  12  13
ENDBRANCH  11  12
ENDBRANCH  10  11
ENDBRANCH   5  10
TORSDOF 4
ENDMDL
MODEL      124
REMARK 921   NORMALIZED FREE ENERGY PREDICTED BY IDOCK:   -3.59 KCAL/MOL
REMARK 922        TOTAL FREE ENERGY PREDICTED BY IDOCK:   -4.87 KCAL/MOL
REMARK 923 INTER-LIGAND FREE ENERGY PREDICTED BY IDOCK:   -4.69 KCAL/MOL
REMARK 924 INTRA-LIGAND FREE ENERGY PREDICTED BY IDOCK:   -0.17 KCAL/MOL
REMARK 927      BINDING AFFINITY PREDICTED BY RF-SCORE:    0.00 PKD
ROOT
HETATM    1  C   UNK     1     -10.351   8.465  72.298  1.00  0.00    -0.333 C  
HETATM    2  N   UNK     1      -9.880   9.475  71.377  1.00  0.00    -0.241 NA 
HETATM    3  H   UNK     1      -8.951   9.868  71.530  1.00  0.00     0.000 HD 
HETATM    4  C   UNK     1     -10.601   9.931  70.323  1.00  0.00    -0.301 C  
HETATM    5  N   UNK     1      -9.841  10.723  69.522  1.00  0.00    -0.433 NA 
HETATM    6  N   UNK     1     -11.838   9.684  70.085  1.00  0.00    -0.457 NA 
HETATM    7  H   UNK     1      -8.832  10.778  69.660  1.00  0.00     0.000 HD 
HETATM    8  H2  UNK     1     -12.327   9.088  70.753  1.00  0.00     0.000 HD 
HETATM    9  H1  UNK     1     -12.381  10.027  69.292  1.00  0.00     0.000 HD 
ENDROOT
BRANCH   5  10
HETATM   10  C   UNK     1     -10.482  11.494  68.462  1.00  0.00    -0.208 C  
BRANCH  10  11
HETATM   11  C   UNK     1      -9.650  11.404  67.186  1.00  0.00    -0.193 C  
BRANCH  11  12
HETATM   12  C   UNK     1     -10.521  11.075  65.964  1.00  0.00    -0.304 C  
BRANCH  12  13
HETATM   13  C   UNK     1     -11.050  12.311  65.224  1.00  0.00    -0.316 C  
HETATM   14  C   UNK     1     -11.017  12.075  63.705  1.00  0.00    -0.448 C  
HETATM   15  N   UNK     1     -12.448  12.630  65.627  1.00  0.00    -0.620 NA 
HETATM   16  O   UNK     1     -10.025  12.150  63.001  1.00  0.00    -0.352 OA 
HETATM   17  O   UNK     1     -12.247  11.724  63.240  1.00  0.00    -0.489 OA 
HETATM   18  H1  UNK     1     -12.799  13.451  65.135  1.00  0.00     0.000 HD 
HETATM   19  H2  UNK     1     -12.530  12.736  66.638  1.00  0.00     0.000 HD 
ENDBRANCH  12  13
ENDBRANCH  11  12
ENDBRANCH  10  11
ENDBRANCH   5  10
TORSDOF 4
ENDMDL
MODEL      125
REMARK 921   NORMALIZED FREE ENERGY PREDICTED BY IDOCK:   -3.59 KCAL/MOL
REMARK 922        TOTAL FREE ENERGY PREDICTED BY IDOCK:   -4.87 KCAL/MOL
REMARK 923 INTER-LIGAND FREE ENERGY PREDICTED BY IDOCK:   -4.23 KCAL/MOL
REMARK 924 INTRA-LIGAND FREE ENERGY PREDICTED BY IDOCK:   -0.64 KCAL/MOL
REMARK 927      BINDING AFFINITY PREDICTED BY RF-SCORE:    0.00 PKD
ROOT
HETATM    1  C   UNK     1     -12.270  14.891  64.085  1.00  0.00    -0.255 C  
HETATM    2  N   UNK     1     -11.991  13.674  64.814  1.00  0.00    -0.377 NA 
HETATM    3  H   UNK     1     -12.512  13.499  65.673  1.00  0.00     0.000 HD 
HETATM    4  C   UNK     1     -11.077  12.752  64.421  1.00  0.00    -0.349 C  
HETATM    5  N   UNK     1     -11.167  11.627  65.178  1.00  0.00    -0.242 NA 
HETATM    6  N   UNK     1     -10.217  12.887  63.478  1.00  0.00    -0.638 NA 
HETATM    7  H   UNK     1     -11.952  11.498  65.817  1.00  0.00     0.000 HD 
HETATM    8  H2  UNK     1     -10.221  13.774  62.974  1.00  0.00     0.000 HD 
HETATM    9  H1  UNK     1      -9.530  12.194  63.182  1.00  0.00     0.000 HD 
ENDROOT
BRANCH   5  10
HETATM   10  C   UNK     1     -10.130  10.606  65.070  1.00  0.00    -0.321 C  
BRANCH  10  11
HETATM   11  C   UNK     1      -9.621  10.240  66.462  1.00  0.00    -0.228 C  
BRANCH  11  12
HETATM   12  C   UNK     1      -9.044  11.462  67.192  1.00  0.00    -0.164 C  
BRANCH  12  13
HETATM   13  C   UNK     1      -9.780  11.820  68.489  1.00  0.00    -0.178 C  
HETATM   14  C   UNK     1     -11.164  12.409  68.169  1.00  0.00    -0.265 C  
HETATM   15  N   UNK     1      -9.960  10.626  69.361  1.00  0.00    -0.363 NA 
HETATM   16  O   UNK     1     -11.376  13.552  67.802  1.00  0.00    -0.269 OA 
HETATM   17  O   UNK     1     -12.137  11.469  68.309  1.00  0.00    -0.580 OA 
HETATM   18  H1  UNK     1     -10.449  10.864  70.223  1.00  0.00     0.000 HD 
HETATM   19  H2  UNK     1      -9.070  10.165  69.550  1.00  0.00     0.000 HD 
ENDBRANCH  12  13
ENDBRANCH  11  12
ENDBRANCH  10  11
ENDBRANCH   5  10
TORSDOF 4
ENDMDL
MODEL      126
REMARK 921   NORMALIZED FREE ENERGY PREDICTED BY IDOCK:   -3.58 KCAL/MOL
REMARK 922        TOTAL FREE ENERGY PREDICTED BY IDOCK:   -4.86 KCAL/MOL
REMARK 923 INTER-LIGAND FREE ENERGY PREDICTED BY IDOCK:   -4.66 KCAL/MOL
REMARK 924 INTRA-LIGAND FREE ENERGY PREDICTED BY IDOCK:   -0.20 KCAL/MOL
REMARK 927      BINDING AFFINITY PREDICTED BY RF-SCORE:    0.00 PKD
ROOT
HETATM    1  C   UNK     1     -11.474   6.468  69.955  1.00  0.00    -0.412 C  
HETATM    2  N   UNK     1     -11.236   7.888  70.075  1.00  0.00    -0.429 NA 
HETATM    3  H   UNK     1     -11.373   8.323  70.987  1.00  0.00     0.000 HD 
HETATM    4  C   UNK     1     -10.840   8.676  69.044  1.00  0.00    -0.019 C  
HETATM    5  N   UNK     1     -10.502   9.916  69.484  1.00  0.00    -0.224 NA 
HETATM    6  N   UNK     1     -10.791   8.341  67.806  1.00  0.00    -0.493 NA 
HETATM    7  H   UNK     1     -10.413  10.101  70.484  1.00  0.00     0.000 HD 
HETATM    8  H2  UNK     1     -11.077   7.390  67.574  1.00  0.00     0.000 HD 
HETATM    9  H1  UNK     1     -10.494   8.934  67.030  1.00  0.00     0.000 HD 
ENDROOT
BRANCH   5  10
HETATM   10  C   UNK     1     -10.267  10.981  68.515  1.00  0.00    -0.192 C  
BRANCH  10  11
HETATM   11  C   UNK     1     -11.587  11.666  68.172  1.00  0.00    -0.389 C  
BRANCH  11  12
HETATM   12  C   UNK     1     -11.623  12.121  66.705  1.00  0.00    -0.412 C  
BRANCH  12  13
HETATM   13  C   UNK     1     -12.058  13.580  66.515  1.00  0.00    -0.408 C  
HETATM   14  C   UNK     1     -10.831  14.470  66.254  1.00  0.00    -0.317 C  
HETATM   15  N   UNK     1     -13.003  13.722  65.373  1.00  0.00    -0.727 NA 
HETATM   16  O   UNK     1     -10.058  14.873  67.105  1.00  0.00    -0.237 OA 
HETATM   17  O   UNK     1     -10.689  14.725  64.925  1.00  0.00    -0.401 OA 
HETATM   18  H1  UNK     1     -13.292  14.692  65.247  1.00  0.00     0.000 HD 
HETATM   19  H2  UNK     1     -13.806  13.103  65.474  1.00  0.00     0.000 HD 
ENDBRANCH  12  13
ENDBRANCH  11  12
ENDBRANCH  10  11
ENDBRANCH   5  10
TORSDOF 4
ENDMDL
MODEL      127
REMARK 921   NORMALIZED FREE ENERGY PREDICTED BY IDOCK:   -3.58 KCAL/MOL
REMARK 922        TOTAL FREE ENERGY PREDICTED BY IDOCK:   -4.85 KCAL/MOL
REMARK 923 INTER-LIGAND FREE ENERGY PREDICTED BY IDOCK:   -4.29 KCAL/MOL
REMARK 924 INTRA-LIGAND FREE ENERGY PREDICTED BY IDOCK:   -0.56 KCAL/MOL
REMARK 927      BINDING AFFINITY PREDICTED BY RF-SCORE:    0.00 PKD
ROOT
HETATM    1  C   UNK     1     -12.281  14.162  64.089  1.00  0.00    -0.390 C  
HETATM    2  N   UNK     1     -10.937  14.506  64.495  1.00  0.00    -0.608 NA 
HETATM    3  H   UNK     1     -10.325  14.943  63.807  1.00  0.00     0.000 HD 
HETATM    4  C   UNK     1     -10.443  14.282  65.738  1.00  0.00    -0.316 C  
HETATM    5  N   UNK     1      -9.235  14.881  65.895  1.00  0.00    -0.502 NA 
HETATM    6  N   UNK     1     -11.003  13.591  66.666  1.00  0.00    -0.286 NA 
HETATM    7  H   UNK     1      -8.891  15.538  65.195  1.00  0.00     0.000 HD 
HETATM    8  H2  UNK     1     -11.906  13.171  66.446  1.00  0.00     0.000 HD 
HETATM    9  H1  UNK     1     -10.632  13.422  67.601  1.00  0.00     0.000 HD 
ENDROOT
BRANCH   5  10
HETATM   10  C   UNK     1      -8.432  14.577  67.075  1.00  0.00    -0.196 C  
BRANCH  10  11
HETATM   11  C   UNK     1      -7.876  15.869  67.667  1.00  0.00    -0.164 C  
BRANCH  11  12
HETATM   12  C   UNK     1      -8.649  16.294  68.924  1.00  0.00    -0.260 C  
BRANCH  12  13
HETATM   13  C   UNK     1     -10.127  16.619  68.668  1.00  0.00    -0.270 C  
HETATM   14  C   UNK     1     -11.025  15.741  69.555  1.00  0.00    -0.295 C  
HETATM   15  N   UNK     1     -10.427  18.049  68.952  1.00  0.00    -0.404 NA 
HETATM   16  O   UNK     1     -11.305  14.575  69.341  1.00  0.00    -0.254 OA 
HETATM   17  O   UNK     1     -11.445  16.428  70.652  1.00  0.00    -0.347 OA 
HETATM   18  H1  UNK     1     -11.409  18.265  68.781  1.00  0.00     0.000 HD 
HETATM   19  H2  UNK     1      -9.811  18.671  68.428  1.00  0.00     0.000 HD 
ENDBRANCH  12  13
ENDBRANCH  11  12
ENDBRANCH  10  11
ENDBRANCH   5  10
TORSDOF 4
ENDMDL
MODEL      128
REMARK 921   NORMALIZED FREE ENERGY PREDICTED BY IDOCK:   -3.58 KCAL/MOL
REMARK 922        TOTAL FREE ENERGY PREDICTED BY IDOCK:   -4.85 KCAL/MOL
REMARK 923 INTER-LIGAND FREE ENERGY PREDICTED BY IDOCK:   -4.69 KCAL/MOL
REMARK 924 INTRA-LIGAND FREE ENERGY PREDICTED BY IDOCK:   -0.16 KCAL/MOL
REMARK 927      BINDING AFFINITY PREDICTED BY RF-SCORE:    0.00 PKD
ROOT
HETATM    1  C   UNK     1     -10.793   3.367  63.872  1.00  0.00    -0.145 C  
HETATM    2  N   UNK     1     -11.245   4.448  64.719  1.00  0.00    -0.973 NA 
HETATM    3  H   UNK     1     -12.165   4.848  64.537  1.00  0.00     0.000 HD 
HETATM    4  C   UNK     1     -10.516   4.961  65.741  1.00  0.00    -0.186 C  
HETATM    5  N   UNK     1     -11.261   5.822  66.483  1.00  0.00    -0.717 NA 
HETATM    6  N   UNK     1      -9.284   4.707  66.000  1.00  0.00    -0.136 NA 
HETATM    7  H   UNK     1     -12.268   5.887  66.338  1.00  0.00     0.000 HD 
HETATM    8  H2  UNK     1      -8.807   4.055  65.376  1.00  0.00     0.000 HD 
HETATM    9  H1  UNK     1      -8.736   5.093  66.768  1.00  0.00     0.000 HD 
ENDROOT
BRANCH   5  10
HETATM   10  C   UNK     1     -10.606   6.652  67.489  1.00  0.00    -0.281 C  
BRANCH  10  11
HETATM   11  C   UNK     1     -11.152   6.310  68.872  1.00  0.00    -0.434 C  
BRANCH  11  12
HETATM   12  C   UNK     1     -10.305   6.943  69.987  1.00  0.00    -0.219 C  
BRANCH  12  13
HETATM   13  C   UNK     1     -10.960   8.159  70.654  1.00  0.00    -0.244 C  
HETATM   14  C   UNK     1     -11.961   7.700  71.728  1.00  0.00    -0.299 C  
HETATM   15  N   UNK     1      -9.946   9.042  71.293  1.00  0.00    -0.288 NA 
HETATM   16  O   UNK     1     -13.086   7.285  71.512  1.00  0.00    -0.369 OA 
HETATM   17  O   UNK     1     -11.411   7.777  72.970  1.00  0.00    -0.399 OA 
HETATM   18  H1  UNK     1     -10.382   9.850  71.737  1.00  0.00     0.000 HD 
HETATM   19  H2  UNK     1      -9.225   9.323  70.629  1.00  0.00     0.000 HD 
ENDBRANCH  12  13
ENDBRANCH  11  12
ENDBRANCH  10  11
ENDBRANCH   5  10
TORSDOF 4
ENDMDL
MODEL      129
REMARK 921   NORMALIZED FREE ENERGY PREDICTED BY IDOCK:   -3.57 KCAL/MOL
REMARK 922        TOTAL FREE ENERGY PREDICTED BY IDOCK:   -4.84 KCAL/MOL
REMARK 923 INTER-LIGAND FREE ENERGY PREDICTED BY IDOCK:   -4.64 KCAL/MOL
REMARK 924 INTRA-LIGAND FREE ENERGY PREDICTED BY IDOCK:   -0.21 KCAL/MOL
REMARK 927      BINDING AFFINITY PREDICTED BY RF-SCORE:    0.00 PKD
ROOT
HETATM    1  C   UNK     1     -12.633  15.348  71.599  1.00  0.00    -0.389 C  
HETATM    2  N   UNK     1     -12.482  14.019  71.050  1.00  0.00    -0.352 NA 
HETATM    3  H   UNK     1     -12.017  13.923  70.147  1.00  0.00     0.000 HD 
HETATM    4  C   UNK     1     -12.921  12.893  71.665  1.00  0.00    -0.313 C  
HETATM    5  N   UNK     1     -12.470  11.783  71.025  1.00  0.00    -0.359 NA 
HETATM    6  N   UNK     1     -13.673  12.839  72.705  1.00  0.00    -0.698 NA 
HETATM    7  H   UNK     1     -11.761  11.862  70.296  1.00  0.00     0.000 HD 
HETATM    8  H2  UNK     1     -13.968  13.729  73.107  1.00  0.00     0.000 HD 
HETATM    9  H1  UNK     1     -14.003  11.992  73.169  1.00  0.00     0.000 HD 
ENDROOT
BRANCH   5  10
HETATM   10  C   UNK     1     -13.010  10.477  71.389  1.00  0.00    -0.440 C  
BRANCH  10  11
HETATM   11  C   UNK     1     -11.884   9.575  71.885  1.00  0.00    -0.349 C  
BRANCH  11  12
HETATM   12  C   UNK     1     -11.885   8.220  71.161  1.00  0.00    -0.302 C  
BRANCH  12  13
HETATM   13  C   UNK     1     -10.774   8.070  70.114  1.00  0.00    -0.244 C  
HETATM   14  C   UNK     1     -10.540   6.583  69.796  1.00  0.00    -0.235 C  
HETATM   15  N   UNK     1     -11.118   8.779  68.851  1.00  0.00    -0.426 NA 
HETATM   16  O   UNK     1      -9.911   5.805  70.491  1.00  0.00    -0.174 OA 
HETATM   17  O   UNK     1     -11.170   6.227  68.643  1.00  0.00    -0.356 OA 
HETATM   18  H1  UNK     1     -10.379   8.679  68.154  1.00  0.00     0.000 HD 
HETATM   19  H2  UNK     1     -11.340   9.760  69.022  1.00  0.00     0.000 HD 
ENDBRANCH  12  13
ENDBRANCH  11  12
ENDBRANCH  10  11
ENDBRANCH   5  10
TORSDOF 4
ENDMDL
MODEL      130
REMARK 921   NORMALIZED FREE ENERGY PREDICTED BY IDOCK:   -3.57 KCAL/MOL
REMARK 922        TOTAL FREE ENERGY PREDICTED BY IDOCK:   -4.84 KCAL/MOL
REMARK 923 INTER-LIGAND FREE ENERGY PREDICTED BY IDOCK:   -4.64 KCAL/MOL
REMARK 924 INTRA-LIGAND FREE ENERGY PREDICTED BY IDOCK:   -0.20 KCAL/MOL
REMARK 927      BINDING AFFINITY PREDICTED BY RF-SCORE:    0.00 PKD
ROOT
HETATM    1  C   UNK     1      -7.363   8.788  62.734  1.00  0.00    -0.098 C  
HETATM    2  N   UNK     1      -7.623   9.899  63.621  1.00  0.00    -0.131 NA 
HETATM    3  H   UNK     1      -7.085  10.755  63.488  1.00  0.00     0.000 HD 
HETATM    4  C   UNK     1      -8.541   9.869  64.619  1.00  0.00    -0.182 C  
HETATM    5  N   UNK     1      -8.713  11.104  65.157  1.00  0.00    -0.379 NA 
HETATM    6  N   UNK     1      -9.174   8.834  65.040  1.00  0.00    -0.433 NA 
HETATM    7  H   UNK     1      -8.306  11.924  64.705  1.00  0.00     0.000 HD 
HETATM    8  H2  UNK     1      -8.967   7.948  64.578  1.00  0.00     0.000 HD 
HETATM    9  H1  UNK     1      -9.864   8.811  65.790  1.00  0.00     0.000 HD 
ENDROOT
BRANCH   5  10
HETATM   10  C   UNK     1      -9.484  11.249  66.387  1.00  0.00    -0.200 C  
BRANCH  10  11
HETATM   11  C   UNK     1     -10.886  11.754  66.059  1.00  0.00    -0.343 C  
BRANCH  11  12
HETATM   12  C   UNK     1     -10.909  13.278  65.871  1.00  0.00    -0.289 C  
BRANCH  12  13
HETATM   13  C   UNK     1     -11.334  13.728  64.467  1.00  0.00    -0.380 C  
HETATM   14  C   UNK     1     -11.616  12.504  63.580  1.00  0.00    -0.508 C  
HETATM   15  N   UNK     1     -12.557  14.576  64.514  1.00  0.00    -0.650 NA 
HETATM   16  O   UNK     1     -10.769  11.815  63.040  1.00  0.00    -0.269 OA 
HETATM   17  O   UNK     1     -12.952  12.256  63.504  1.00  0.00    -0.776 OA 
HETATM   18  H1  UNK     1     -12.839  14.874  63.580  1.00  0.00     0.000 HD 
HETATM   19  H2  UNK     1     -12.436  15.371  65.140  1.00  0.00     0.000 HD 
ENDBRANCH  12  13
ENDBRANCH  11  12
ENDBRANCH  10  11
ENDBRANCH   5  10
TORSDOF 4
ENDMDL
MODEL      131
REMARK 921   NORMALIZED FREE ENERGY PREDICTED BY IDOCK:   -3.57 KCAL/MOL
REMARK 922        TOTAL FREE ENERGY PREDICTED BY IDOCK:   -4.84 KCAL/MOL
REMARK 923 INTER-LIGAND FREE ENERGY PREDICTED BY IDOCK:   -4.49 KCAL/MOL
REMARK 924 INTRA-LIGAND FREE ENERGY PREDICTED BY IDOCK:   -0.34 KCAL/MOL
REMARK 927      BINDING AFFINITY PREDICTED BY RF-SCORE:    0.00 PKD
ROOT
HETATM    1  C   UNK     1     -10.171  10.849  64.678  1.00  0.00    -0.345 C  
HETATM    2  N   UNK     1     -10.985  11.214  65.816  1.00  0.00    -0.154 NA 
HETATM    3  H   UNK     1     -11.648  11.981  65.705  1.00  0.00     0.000 HD 
HETATM    4  C   UNK     1     -10.918  10.596  67.021  1.00  0.00    -0.208 C  
HETATM    5  N   UNK     1     -11.925  11.007  67.834  1.00  0.00    -0.727 NA 
HETATM    6  N   UNK     1     -10.032   9.742  67.390  1.00  0.00    -0.180 NA 
HETATM    7  H   UNK     1     -12.690  11.570  67.461  1.00  0.00     0.000 HD 
HETATM    8  H2  UNK     1      -9.308   9.506  66.711  1.00  0.00     0.000 HD 
HETATM    9  H1  UNK     1      -9.981   9.277  68.296  1.00  0.00     0.000 HD 
ENDROOT
BRANCH   5  10
HETATM   10  C   UNK     1     -11.904  10.637  69.245  1.00  0.00    -0.237 C  
BRANCH  10  11
HETATM   11  C   UNK     1     -12.009  11.891  70.108  1.00  0.00    -0.413 C  
BRANCH  11  12
HETATM   12  C   UNK     1     -11.315  13.091  69.448  1.00  0.00    -0.269 C  
BRANCH  12  13
HETATM   13  C   UNK     1     -12.277  14.197  68.994  1.00  0.00    -0.239 C  
HETATM   14  C   UNK     1     -11.909  15.531  69.664  1.00  0.00    -0.366 C  
HETATM   15  N   UNK     1     -12.240  14.379  67.516  1.00  0.00    -0.619 NA 
HETATM   16  O   UNK     1     -12.182  15.843  70.810  1.00  0.00    -0.402 OA 
HETATM   17  O   UNK     1     -11.190  16.318  68.818  1.00  0.00    -0.333 OA 
HETATM   18  H1  UNK     1     -12.880  15.113  67.215  1.00  0.00     0.000 HD 
HETATM   19  H2  UNK     1     -12.420  13.502  67.028  1.00  0.00     0.000 HD 
ENDBRANCH  12  13
ENDBRANCH  11  12
ENDBRANCH  10  11
ENDBRANCH   5  10
TORSDOF 4
ENDMDL
MODEL      132
REMARK 921   NORMALIZED FREE ENERGY PREDICTED BY IDOCK:   -3.56 KCAL/MOL
REMARK 922        TOTAL FREE ENERGY PREDICTED BY IDOCK:   -4.83 KCAL/MOL
REMARK 923 INTER-LIGAND FREE ENERGY PREDICTED BY IDOCK:   -4.06 KCAL/MOL
REMARK 924 INTRA-LIGAND FREE ENERGY PREDICTED BY IDOCK:   -0.77 KCAL/MOL
REMARK 927      BINDING AFFINITY PREDICTED BY RF-SCORE:    0.00 PKD
ROOT
HETATM    1  C   UNK     1     -10.559  13.423  66.247  1.00  0.00    -0.291 C  
HETATM    2  N   UNK     1     -10.080  14.603  66.931  1.00  0.00    -0.252 NA 
HETATM    3  H   UNK     1     -10.743  15.357  67.108  1.00  0.00     0.000 HD 
HETATM    4  C   UNK     1      -8.800  14.765  67.350  1.00  0.00    -0.193 C  
HETATM    5  N   UNK     1      -8.682  15.870  68.131  1.00  0.00    -0.169 NA 
HETATM    6  N   UNK     1      -7.804  14.008  67.061  1.00  0.00    -0.362 NA 
HETATM    7  H   UNK     1      -9.514  16.361  68.458  1.00  0.00     0.000 HD 
HETATM    8  H2  UNK     1      -7.992  13.208  66.457  1.00  0.00     0.000 HD 
HETATM    9  H1  UNK     1      -6.841  14.130  67.376  1.00  0.00     0.000 HD 
ENDROOT
BRANCH   5  10
HETATM   10  C   UNK     1      -7.353  16.349  68.498  1.00  0.00    -0.181 C  
BRANCH  10  11
HETATM   11  C   UNK     1      -7.019  17.604  67.696  1.00  0.00    -0.186 C  
BRANCH  11  12
HETATM   12  C   UNK     1      -8.115  18.671  67.834  1.00  0.00    -0.283 C  
BRANCH  12  13
HETATM   13  C   UNK     1      -8.674  19.168  66.494  1.00  0.00    -0.337 C  
HETATM   14  C   UNK     1     -10.108  18.651  66.293  1.00  0.00    -0.400 C  
HETATM   15  N   UNK     1      -8.690  20.655  66.429  1.00  0.00    -0.490 NA 
HETATM   16  O   UNK     1     -10.408  17.525  65.934  1.00  0.00    -0.494 OA 
HETATM   17  O   UNK     1     -11.020  19.610  66.610  1.00  0.00    -0.424 OA 
HETATM   18  H1  UNK     1      -9.062  20.986  65.539  1.00  0.00     0.000 HD 
HETATM   19  H2  UNK     1      -7.767  21.047  66.617  1.00  0.00     0.000 HD 
ENDBRANCH  12  13
ENDBRANCH  11  12
ENDBRANCH  10  11
ENDBRANCH   5  10
TORSDOF 4
ENDMDL
MODEL      133
REMARK 921   NORMALIZED FREE ENERGY PREDICTED BY IDOCK:   -3.55 KCAL/MOL
REMARK 922        TOTAL FREE ENERGY PREDICTED BY IDOCK:   -4.81 KCAL/MOL
REMARK 923 INTER-LIGAND FREE ENERGY PREDICTED BY IDOCK:   -4.62 KCAL/MOL
REMARK 924 INTRA-LIGAND FREE ENERGY PREDICTED BY IDOCK:   -0.19 KCAL/MOL
REMARK 927      BINDING AFFINITY PREDICTED BY RF-SCORE:    0.00 PKD
ROOT
HETATM    1  C   UNK     1     -14.316   8.668  72.422  1.00  0.00    -0.340 C  
HETATM    2  N   UNK     1     -13.642   8.118  71.268  1.00  0.00    -0.552 NA 
HETATM    3  H   UNK     1     -13.961   8.406  70.343  1.00  0.00     0.000 HD 
HETATM    4  C   UNK     1     -12.611   7.240  71.343  1.00  0.00    -0.388 C  
HETATM    5  N   UNK     1     -12.047   7.049  70.122  1.00  0.00    -0.623 NA 
HETATM    6  N   UNK     1     -12.199   6.639  72.401  1.00  0.00    -0.520 NA 
HETATM    7  H   UNK     1     -12.301   7.649  69.338  1.00  0.00     0.000 HD 
HETATM    8  H2  UNK     1     -12.696   6.841  73.269  1.00  0.00     0.000 HD 
HETATM    9  H1  UNK     1     -11.423   5.979  72.458  1.00  0.00     0.000 HD 
ENDROOT
BRANCH   5  10
HETATM   10  C   UNK     1     -11.072   5.978  69.943  1.00  0.00    -0.399 C  
BRANCH  10  11
HETATM   11  C   UNK     1     -10.638   5.916  68.481  1.00  0.00    -0.317 C  
BRANCH  11  12
HETATM   12  C   UNK     1      -9.794   7.138  68.090  1.00  0.00    -0.157 C  
BRANCH  12  13
HETATM   13  C   UNK     1     -10.200   7.776  66.755  1.00  0.00    -0.276 C  
HETATM   14  C   UNK     1     -10.099   9.308  66.846  1.00  0.00    -0.256 C  
HETATM   15  N   UNK     1      -9.333   7.305  65.640  1.00  0.00    -0.364 NA 
HETATM   16  O   UNK     1     -10.916  10.039  67.377  1.00  0.00    -0.283 OA 
HETATM   17  O   UNK     1      -8.941   9.752  66.285  1.00  0.00    -0.146 OA 
HETATM   18  H1  UNK     1      -9.603   7.729  64.753  1.00  0.00     0.000 HD 
HETATM   19  H2  UNK     1      -9.322   6.287  65.580  1.00  0.00     0.000 HD 
ENDBRANCH  12  13
ENDBRANCH  11  12
ENDBRANCH  10  11
ENDBRANCH   5  10
TORSDOF 4
ENDMDL
MODEL      134
REMARK 921   NORMALIZED FREE ENERGY PREDICTED BY IDOCK:   -3.54 KCAL/MOL
REMARK 922        TOTAL FREE ENERGY PREDICTED BY IDOCK:   -4.81 KCAL/MOL
REMARK 923 INTER-LIGAND FREE ENERGY PREDICTED BY IDOCK:   -4.72 KCAL/MOL
REMARK 924 INTRA-LIGAND FREE ENERGY PREDICTED BY IDOCK:   -0.09 KCAL/MOL
REMARK 927      BINDING AFFINITY PREDICTED BY RF-SCORE:    0.00 PKD
ROOT
HETATM    1  C   UNK     1     -13.591  13.722  72.488  1.00  0.00    -0.575 C  
HETATM    2  N   UNK     1     -13.427  14.506  71.285  1.00  0.00    -0.366 NA 
HETATM    3  H   UNK     1     -14.023  15.324  71.160  1.00  0.00     0.000 HD 
HETATM    4  C   UNK     1     -12.528  14.216  70.312  1.00  0.00    -0.353 C  
HETATM    5  N   UNK     1     -12.455  15.223  69.403  1.00  0.00    -0.601 NA 
HETATM    6  N   UNK     1     -11.829  13.143  70.217  1.00  0.00    -0.525 NA 
HETATM    7  H   UNK     1     -12.911  16.117  69.588  1.00  0.00     0.000 HD 
HETATM    8  H2  UNK     1     -11.964  12.439  70.943  1.00  0.00     0.000 HD 
HETATM    9  H1  UNK     1     -11.153  12.924  69.485  1.00  0.00     0.000 HD 
ENDROOT
BRANCH   5  10
HETATM   10  C   UNK     1     -11.718  15.016  68.161  1.00  0.00    -0.312 C  
BRANCH  10  11
HETATM   11  C   UNK     1     -10.526  15.968  68.104  1.00  0.00    -0.269 C  
BRANCH  11  12
HETATM   12  C   UNK     1     -10.309  16.517  66.686  1.00  0.00    -0.298 C  
BRANCH  12  13
HETATM   13  C   UNK     1      -9.169  15.833  65.920  1.00  0.00    -0.302 C  
HETATM   14  C   UNK     1      -7.921  15.722  66.812  1.00  0.00    -0.238 C  
HETATM   15  N   UNK     1      -9.556  14.468  65.470  1.00  0.00    -0.535 NA 
HETATM   16  O   UNK     1      -7.141  16.627  67.050  1.00  0.00    -0.161 OA 
HETATM   17  O   UNK     1      -7.815  14.475  67.348  1.00  0.00    -0.180 OA 
HETATM   18  H1  UNK     1      -8.798  14.014  64.961  1.00  0.00     0.000 HD 
HETATM   19  H2  UNK     1     -10.416  14.486  64.922  1.00  0.00     0.000 HD 
ENDBRANCH  12  13
ENDBRANCH  11  12
ENDBRANCH  10  11
ENDBRANCH   5  10
TORSDOF 4
ENDMDL
MODEL      135
REMARK 921   NORMALIZED FREE ENERGY PREDICTED BY IDOCK:   -3.54 KCAL/MOL
REMARK 922        TOTAL FREE ENERGY PREDICTED BY IDOCK:   -4.81 KCAL/MOL
REMARK 923 INTER-LIGAND FREE ENERGY PREDICTED BY IDOCK:   -4.60 KCAL/MOL
REMARK 924 INTRA-LIGAND FREE ENERGY PREDICTED BY IDOCK:   -0.20 KCAL/MOL
REMARK 927      BINDING AFFINITY PREDICTED BY RF-SCORE:    0.00 PKD
ROOT
HETATM    1  C   UNK     1      -9.678  10.034  67.123  1.00  0.00    -0.174 C  
HETATM    2  N   UNK     1      -9.839  11.466  67.223  1.00  0.00    -0.188 NA 
HETATM    3  H   UNK     1      -9.022  12.054  67.059  1.00  0.00     0.000 HD 
HETATM    4  C   UNK     1     -11.014  12.075  67.523  1.00  0.00    -0.253 C  
HETATM    5  N   UNK     1     -10.920  13.419  67.353  1.00  0.00    -0.268 NA 
HETATM    6  N   UNK     1     -12.087  11.499  67.928  1.00  0.00    -0.605 NA 
HETATM    7  H   UNK     1     -10.105  13.825  66.893  1.00  0.00     0.000 HD 
HETATM    8  H2  UNK     1     -12.054  10.485  68.035  1.00  0.00     0.000 HD 
HETATM    9  H1  UNK     1     -12.971  11.956  68.154  1.00  0.00     0.000 HD 
ENDROOT
BRANCH   5  10
HETATM   10  C   UNK     1     -11.996  14.279  67.835  1.00  0.00    -0.329 C  
BRANCH  10  11
HETATM   11  C   UNK     1     -11.555  14.989  69.112  1.00  0.00    -0.333 C  
BRANCH  11  12
HETATM   12  C   UNK     1     -12.722  15.158  70.097  1.00  0.00    -0.273 C  
BRANCH  12  13
HETATM   13  C   UNK     1     -12.433  14.620  71.505  1.00  0.00    -0.346 C  
HETATM   14  C   UNK     1     -12.656  15.725  72.551  1.00  0.00    -0.450 C  
HETATM   15  N   UNK     1     -13.310  13.464  71.837  1.00  0.00    -0.434 NA 
HETATM   16  O   UNK     1     -11.877  16.629  72.799  1.00  0.00    -0.519 OA 
HETATM   17  O   UNK     1     -13.871  15.591  73.149  1.00  0.00    -0.429 OA 
HETATM   18  H1  UNK     1     -13.118  13.108  72.773  1.00  0.00     0.000 HD 
HETATM   19  H2  UNK     1     -13.240  12.729  71.135  1.00  0.00     0.000 HD 
ENDBRANCH  12  13
ENDBRANCH  11  12
ENDBRANCH  10  11
ENDBRANCH   5  10
TORSDOF 4
ENDMDL
MODEL      136
REMARK 921   NORMALIZED FREE ENERGY PREDICTED BY IDOCK:   -3.53 KCAL/MOL
REMARK 922        TOTAL FREE ENERGY PREDICTED BY IDOCK:   -4.79 KCAL/MOL
REMARK 923 INTER-LIGAND FREE ENERGY PREDICTED BY IDOCK:   -4.53 KCAL/MOL
REMARK 924 INTRA-LIGAND FREE ENERGY PREDICTED BY IDOCK:   -0.27 KCAL/MOL
REMARK 927      BINDING AFFINITY PREDICTED BY RF-SCORE:    0.00 PKD
ROOT
HETATM    1  C   UNK     1     -10.523  11.362  63.474  1.00  0.00    -0.417 C  
HETATM    2  N   UNK     1     -10.013  12.607  64.001  1.00  0.00    -0.611 NA 
HETATM    3  H   UNK     1      -9.059  12.876  63.760  1.00  0.00     0.000 HD 
HETATM    4  C   UNK     1     -10.729  13.439  64.798  1.00  0.00    -0.390 C  
HETATM    5  N   UNK     1     -10.078  14.618  64.977  1.00  0.00    -0.458 NA 
HETATM    6  N   UNK     1     -11.864  13.182  65.341  1.00  0.00    -0.351 NA 
HETATM    7  H   UNK     1      -9.256  14.842  64.418  1.00  0.00     0.000 HD 
HETATM    8  H2  UNK     1     -12.267  12.263  65.155  1.00  0.00     0.000 HD 
HETATM    9  H1  UNK     1     -12.403  13.807  65.940  1.00  0.00     0.000 HD 
ENDROOT
BRANCH   5  10
HETATM   10  C   UNK     1     -10.567  15.561  65.978  1.00  0.00    -0.325 C  
BRANCH  10  11
HETATM   11  C   UNK     1     -10.577  16.971  65.395  1.00  0.00    -0.147 C  
BRANCH  11  12
HETATM   12  C   UNK     1     -10.505  18.039  66.496  1.00  0.00    -0.341 C  
BRANCH  12  13
HETATM   13  C   UNK     1      -9.718  17.602  67.739  1.00  0.00    -0.280 C  
HETATM   14  C   UNK     1      -8.343  18.292  67.766  1.00  0.00    -0.255 C  
HETATM   15  N   UNK     1     -10.447  17.940  68.992  1.00  0.00    -0.416 NA 
HETATM   16  O   UNK     1      -7.374  17.960  67.107  1.00  0.00    -0.184 OA 
HETATM   17  O   UNK     1      -8.355  19.365  68.603  1.00  0.00    -0.356 OA 
HETATM   18  H1  UNK     1      -9.923  17.650  69.818  1.00  0.00     0.000 HD 
HETATM   19  H2  UNK     1     -11.390  17.552  68.992  1.00  0.00     0.000 HD 
ENDBRANCH  12  13
ENDBRANCH  11  12
ENDBRANCH  10  11
ENDBRANCH   5  10
TORSDOF 4
ENDMDL
MODEL      137
REMARK 921   NORMALIZED FREE ENERGY PREDICTED BY IDOCK:   -3.53 KCAL/MOL
REMARK 922        TOTAL FREE ENERGY PREDICTED BY IDOCK:   -4.79 KCAL/MOL
REMARK 923 INTER-LIGAND FREE ENERGY PREDICTED BY IDOCK:   -4.12 KCAL/MOL
REMARK 924 INTRA-LIGAND FREE ENERGY PREDICTED BY IDOCK:   -0.68 KCAL/MOL
REMARK 927      BINDING AFFINITY PREDICTED BY RF-SCORE:    0.00 PKD
ROOT
HETATM    1  C   UNK     1     -12.310  12.540  64.872  1.00  0.00    -0.470 C  
HETATM    2  N   UNK     1     -11.542  12.846  66.058  1.00  0.00    -0.354 NA 
HETATM    3  H   UNK     1     -11.582  12.189  66.837  1.00  0.00     0.000 HD 
HETATM    4  C   UNK     1     -10.773  13.954  66.194  1.00  0.00    -0.283 C  
HETATM    5  N   UNK     1     -10.016  13.884  67.319  1.00  0.00    -0.240 NA 
HETATM    6  N   UNK     1     -10.745  14.962  65.399  1.00  0.00    -0.349 NA 
HETATM    7  H   UNK     1      -9.955  13.012  67.846  1.00  0.00     0.000 HD 
HETATM    8  H2  UNK     1     -11.360  14.926  64.586  1.00  0.00     0.000 HD 
HETATM    9  H1  UNK     1     -10.167  15.797  65.501  1.00  0.00     0.000 HD 
ENDROOT
BRANCH   5  10
HETATM   10  C   UNK     1      -9.290  15.067  67.769  1.00  0.00    -0.186 C  
BRANCH  10  11
HETATM   11  C   UNK     1     -10.222  15.968  68.575  1.00  0.00    -0.236 C  
BRANCH  11  12
HETATM   12  C   UNK     1     -10.682  15.289  69.873  1.00  0.00    -0.300 C  
BRANCH  12  13
HETATM   13  C   UNK     1     -12.154  14.858  69.865  1.00  0.00    -0.332 C  
HETATM   14  C   UNK     1     -12.261  13.329  69.994  1.00  0.00    -0.275 C  
HETATM   15  N   UNK     1     -12.912  15.485  70.982  1.00  0.00    -0.483 NA 
HETATM   16  O   UNK     1     -12.082  12.530  69.091  1.00  0.00    -0.247 OA 
HETATM   17  O   UNK     1     -12.545  12.968  71.275  1.00  0.00    -0.360 OA 
HETATM   18  H1  UNK     1     -13.891  15.198  70.976  1.00  0.00     0.000 HD 
HETATM   19  H2  UNK     1     -12.820  16.501  70.972  1.00  0.00     0.000 HD 
ENDBRANCH  12  13
ENDBRANCH  11  12
ENDBRANCH  10  11
ENDBRANCH   5  10
TORSDOF 4
ENDMDL
MODEL      138
REMARK 921   NORMALIZED FREE ENERGY PREDICTED BY IDOCK:   -3.53 KCAL/MOL
REMARK 922        TOTAL FREE ENERGY PREDICTED BY IDOCK:   -4.79 KCAL/MOL
REMARK 923 INTER-LIGAND FREE ENERGY PREDICTED BY IDOCK:   -4.62 KCAL/MOL
REMARK 924 INTRA-LIGAND FREE ENERGY PREDICTED BY IDOCK:   -0.17 KCAL/MOL
REMARK 927      BINDING AFFINITY PREDICTED BY RF-SCORE:    0.00 PKD
ROOT
HETATM    1  C   UNK     1      -7.315  10.555  67.290  1.00  0.00    -0.091 C  
HETATM    2  N   UNK     1      -8.479  11.076  67.969  1.00  0.00    -0.125 NA 
HETATM    3  H   UNK     1      -8.993  10.451  68.590  1.00  0.00     0.000 HD 
HETATM    4  C   UNK     1      -8.928  12.348  67.828  1.00  0.00    -0.182 C  
HETATM    5  N   UNK     1      -9.910  12.618  68.727  1.00  0.00    -0.421 NA 
HETATM    6  N   UNK     1      -8.519  13.208  66.967  1.00  0.00    -0.350 NA 
HETATM    7  H   UNK     1     -10.106  11.966  69.487  1.00  0.00     0.000 HD 
HETATM    8  H2  UNK     1      -7.785  12.906  66.326  1.00  0.00     0.000 HD 
HETATM    9  H1  UNK     1      -8.857  14.165  66.861  1.00  0.00     0.000 HD 
ENDROOT
BRANCH   5  10
HETATM   10  C   UNK     1     -10.682  13.850  68.597  1.00  0.00    -0.260 C  
BRANCH  10  11
HETATM   11  C   UNK     1     -12.127  13.599  69.019  1.00  0.00    -0.348 C  
BRANCH  11  12
HETATM   12  C   UNK     1     -12.264  13.517  70.547  1.00  0.00    -0.433 C  
BRANCH  12  13
HETATM   13  C   UNK     1     -13.163  14.603  71.152  1.00  0.00    -0.372 C  
HETATM   14  C   UNK     1     -12.711  14.929  72.586  1.00  0.00    -0.379 C  
HETATM   15  N   UNK     1     -13.127  15.853  70.344  1.00  0.00    -0.704 NA 
HETATM   16  O   UNK     1     -12.956  14.258  73.572  1.00  0.00    -0.494 OA 
HETATM   17  O   UNK     1     -11.954  16.060  72.611  1.00  0.00    -0.463 OA 
HETATM   18  H1  UNK     1     -13.725  16.574  70.747  1.00  0.00     0.000 HD 
HETATM   19  H2  UNK     1     -13.362  15.673  69.368  1.00  0.00     0.000 HD 
ENDBRANCH  12  13
ENDBRANCH  11  12
ENDBRANCH  10  11
ENDBRANCH   5  10
TORSDOF 4
ENDMDL
MODEL      139
REMARK 921   NORMALIZED FREE ENERGY PREDICTED BY IDOCK:   -3.52 KCAL/MOL
REMARK 922        TOTAL FREE ENERGY PREDICTED BY IDOCK:   -4.78 KCAL/MOL
REMARK 923 INTER-LIGAND FREE ENERGY PREDICTED BY IDOCK:   -4.57 KCAL/MOL
REMARK 924 INTRA-LIGAND FREE ENERGY PREDICTED BY IDOCK:   -0.21 KCAL/MOL
REMARK 927      BINDING AFFINITY PREDICTED BY RF-SCORE:    0.00 PKD
ROOT
HETATM    1  C   UNK     1     -10.601   5.251  72.828  1.00  0.00    -0.230 C  
HETATM    2  N   UNK     1     -11.102   6.567  73.154  1.00  0.00    -0.446 NA 
HETATM    3  H   UNK     1     -10.658   7.073  73.919  1.00  0.00     0.000 HD 
HETATM    4  C   UNK     1     -12.128   7.167  72.502  1.00  0.00    -0.007 C  
HETATM    5  N   UNK     1     -12.253   8.464  72.883  1.00  0.00    -0.561 NA 
HETATM    6  N   UNK     1     -12.910   6.616  71.644  1.00  0.00    -0.282 NA 
HETATM    7  H   UNK     1     -11.530   8.906  73.452  1.00  0.00     0.000 HD 
HETATM    8  H2  UNK     1     -12.742   5.633  71.432  1.00  0.00     0.000 HD 
HETATM    9  H1  UNK     1     -13.682   7.067  71.153  1.00  0.00     0.000 HD 
ENDROOT
BRANCH   5  10
HETATM   10  C   UNK     1     -13.430   9.222  72.472  1.00  0.00    -0.404 C  
BRANCH  10  11
HETATM   11  C   UNK     1     -12.999  10.555  71.866  1.00  0.00    -0.553 C  
BRANCH  11  12
HETATM   12  C   UNK     1     -12.184  10.353  70.579  1.00  0.00    -0.412 C  
BRANCH  12  13
HETATM   13  C   UNK     1     -12.528  11.345  69.461  1.00  0.00    -0.035 C  
HETATM   14  C   UNK     1     -11.812  12.685  69.699  1.00  0.00    -0.311 C  
HETATM   15  N   UNK     1     -12.128  10.821  68.126  1.00  0.00    -0.759 NA 
HETATM   16  O   UNK     1     -12.165  13.543  70.489  1.00  0.00    -0.345 OA 
HETATM   17  O   UNK     1     -10.689  12.779  68.935  1.00  0.00    -0.230 OA 
HETATM   18  H1  UNK     1     -12.357  11.481  67.382  1.00  0.00     0.000 HD 
HETATM   19  H2  UNK     1     -12.534   9.902  67.949  1.00  0.00     0.000 HD 
ENDBRANCH  12  13
ENDBRANCH  11  12
ENDBRANCH  10  11
ENDBRANCH   5  10
TORSDOF 4
ENDMDL
MODEL      140
REMARK 921   NORMALIZED FREE ENERGY PREDICTED BY IDOCK:   -3.51 KCAL/MOL
REMARK 922        TOTAL FREE ENERGY PREDICTED BY IDOCK:   -4.77 KCAL/MOL
REMARK 923 INTER-LIGAND FREE ENERGY PREDICTED BY IDOCK:   -4.14 KCAL/MOL
REMARK 924 INTRA-LIGAND FREE ENERGY PREDICTED BY IDOCK:   -0.63 KCAL/MOL
REMARK 927      BINDING AFFINITY PREDICTED BY RF-SCORE:    0.00 PKD
ROOT
HETATM    1  C   UNK     1     -10.620  17.310  68.270  1.00  0.00    -0.383 C  
HETATM    2  N   UNK     1     -11.487  16.182  68.524  1.00  0.00    -0.369 NA 
HETATM    3  H   UNK     1     -12.475  16.273  68.289  1.00  0.00     0.000 HD 
HETATM    4  C   UNK     1     -11.062  15.009  69.056  1.00  0.00    -0.262 C  
HETATM    5  N   UNK     1     -12.039  14.067  68.997  1.00  0.00    -0.434 NA 
HETATM    6  N   UNK     1      -9.907  14.780  69.569  1.00  0.00    -0.425 NA 
HETATM    7  H   UNK     1     -12.886  14.238  68.455  1.00  0.00     0.000 HD 
HETATM    8  H2  UNK     1      -9.245  15.556  69.578  1.00  0.00     0.000 HD 
HETATM    9  H1  UNK     1      -9.587  13.899  69.970  1.00  0.00     0.000 HD 
ENDROOT
BRANCH   5  10
HETATM   10  C   UNK     1     -11.867  12.809  69.717  1.00  0.00    -0.310 C  
BRANCH  10  11
HETATM   11  C   UNK     1     -11.544  11.692  68.729  1.00  0.00    -0.374 C  
BRANCH  11  12
HETATM   12  C   UNK     1     -11.865  12.104  67.285  1.00  0.00    -0.293 C  
BRANCH  12  13
HETATM   13  C   UNK     1     -10.687  11.946  66.314  1.00  0.00    -0.271 C  
HETATM   14  C   UNK     1      -9.931  13.279  66.175  1.00  0.00    -0.293 C  
HETATM   15  N   UNK     1      -9.732  10.904  66.781  1.00  0.00    -0.186 NA 
HETATM   16  O   UNK     1     -10.290  14.225  65.496  1.00  0.00    -0.317 OA 
HETATM   17  O   UNK     1      -8.814  13.288  66.952  1.00  0.00    -0.220 OA 
HETATM   18  H1  UNK     1      -8.949  10.800  66.136  1.00  0.00     0.000 HD 
HETATM   19  H2  UNK     1     -10.202  10.014  66.946  1.00  0.00     0.000 HD 
ENDBRANCH  12  13
ENDBRANCH  11  12
ENDBRANCH  10  11
ENDBRANCH   5  10
TORSDOF 4
ENDMDL
MODEL      141
REMARK 921   NORMALIZED FREE ENERGY PREDICTED BY IDOCK:   -3.50 KCAL/MOL
REMARK 922        TOTAL FREE ENERGY PREDICTED BY IDOCK:   -4.76 KCAL/MOL
REMARK 923 INTER-LIGAND FREE ENERGY PREDICTED BY IDOCK:   -4.47 KCAL/MOL
REMARK 924 INTRA-LIGAND FREE ENERGY PREDICTED BY IDOCK:   -0.29 KCAL/MOL
REMARK 927      BINDING AFFINITY PREDICTED BY RF-SCORE:    0.00 PKD
ROOT
HETATM    1  C   UNK     1     -13.740  14.122  72.391  1.00  0.00    -0.544 C  
HETATM    2  N   UNK     1     -12.412  14.394  71.889  1.00  0.00    -0.329 NA 
HETATM    3  H   UNK     1     -11.647  14.450  72.561  1.00  0.00     0.000 HD 
HETATM    4  C   UNK     1     -12.124  14.579  70.577  1.00  0.00    -0.325 C  
HETATM    5  N   UNK     1     -10.782  14.617  70.376  1.00  0.00    -0.473 NA 
HETATM    6  N   UNK     1     -12.974  14.717  69.624  1.00  0.00    -0.378 NA 
HETATM    7  H   UNK     1     -10.141  14.359  71.126  1.00  0.00     0.000 HD 
HETATM    8  H2  UNK     1     -13.962  14.685  69.879  1.00  0.00     0.000 HD 
HETATM    9  H1  UNK     1     -12.758  14.857  68.637  1.00  0.00     0.000 HD 
ENDROOT
BRANCH   5  10
HETATM   10  C   UNK     1     -10.264  15.031  69.076  1.00  0.00    -0.242 C  
BRANCH  10  11
HETATM   11  C   UNK     1      -9.759  13.811  68.310  1.00  0.00    -0.231 C  
BRANCH  11  12
HETATM   12  C   UNK     1     -10.814  13.286  67.325  1.00  0.00    -0.275 C  
BRANCH  12  13
HETATM   13  C   UNK     1     -11.697  14.381  66.714  1.00  0.00    -0.397 C  
HETATM   14  C   UNK     1     -11.039  14.948  65.445  1.00  0.00    -0.364 C  
HETATM   15  N   UNK     1     -13.045  13.859  66.359  1.00  0.00    -0.215 NA 
HETATM   16  O   UNK     1     -10.126  15.755  65.424  1.00  0.00    -0.348 OA 
HETATM   17  O   UNK     1     -11.584  14.397  64.326  1.00  0.00    -0.347 OA 
HETATM   18  H1  UNK     1     -13.632  14.587  65.953  1.00  0.00     0.000 HD 
HETATM   19  H2  UNK     1     -13.497  13.418  67.160  1.00  0.00     0.000 HD 
ENDBRANCH  12  13
ENDBRANCH  11  12
ENDBRANCH  10  11
ENDBRANCH   5  10
TORSDOF 4
ENDMDL
MODEL      142
REMARK 921   NORMALIZED FREE ENERGY PREDICTED BY IDOCK:   -3.50 KCAL/MOL
REMARK 922        TOTAL FREE ENERGY PREDICTED BY IDOCK:   -4.76 KCAL/MOL
REMARK 923 INTER-LIGAND FREE ENERGY PREDICTED BY IDOCK:   -4.51 KCAL/MOL
REMARK 924 INTRA-LIGAND FREE ENERGY PREDICTED BY IDOCK:   -0.24 KCAL/MOL
REMARK 927      BINDING AFFINITY PREDICTED BY RF-SCORE:    0.00 PKD
ROOT
HETATM    1  C   UNK     1      -8.467   9.557  70.404  1.00  0.00    -0.201 C  
HETATM    2  N   UNK     1      -9.109  10.328  69.364  1.00  0.00    -0.264 NA 
HETATM    3  H   UNK     1     -10.026  10.024  69.038  1.00  0.00     0.000 HD 
HETATM    4  C   UNK     1      -8.563  11.433  68.797  1.00  0.00    -0.083 C  
HETATM    5  N   UNK     1      -9.464  12.064  68.000  1.00  0.00    -0.193 NA 
HETATM    6  N   UNK     1      -7.360  11.852  68.954  1.00  0.00    -0.199 NA 
HETATM    7  H   UNK     1     -10.446  11.789  68.014  1.00  0.00     0.000 HD 
HETATM    8  H2  UNK     1      -6.755  11.302  69.565  1.00  0.00     0.000 HD 
HETATM    9  H1  UNK     1      -6.948  12.683  68.528  1.00  0.00     0.000 HD 
ENDROOT
BRANCH   5  10
HETATM   10  C   UNK     1      -9.014  13.140  67.123  1.00  0.00    -0.228 C  
BRANCH  10  11
HETATM   11  C   UNK     1      -9.998  13.310  65.970  1.00  0.00    -0.297 C  
BRANCH  11  12
HETATM   12  C   UNK     1     -10.687  11.984  65.614  1.00  0.00    -0.313 C  
BRANCH  12  13
HETATM   13  C   UNK     1     -11.000  11.824  64.121  1.00  0.00    -0.374 C  
HETATM   14  C   UNK     1     -12.350  12.482  63.788  1.00  0.00    -0.502 C  
HETATM   15  N   UNK     1      -9.945  12.444  63.273  1.00  0.00    -0.565 NA 
HETATM   16  O   UNK     1     -13.445  11.997  64.011  1.00  0.00    -0.655 OA 
HETATM   17  O   UNK     1     -12.168  13.715  63.241  1.00  0.00    -0.637 OA 
HETATM   18  H1  UNK     1     -10.154  12.338  62.281  1.00  0.00     0.000 HD 
HETATM   19  H2  UNK     1      -9.020  12.080  63.502  1.00  0.00     0.000 HD 
ENDBRANCH  12  13
ENDBRANCH  11  12
ENDBRANCH  10  11
ENDBRANCH   5  10
TORSDOF 4
ENDMDL
MODEL      143
REMARK 921   NORMALIZED FREE ENERGY PREDICTED BY IDOCK:   -3.49 KCAL/MOL
REMARK 922        TOTAL FREE ENERGY PREDICTED BY IDOCK:   -4.75 KCAL/MOL
REMARK 923 INTER-LIGAND FREE ENERGY PREDICTED BY IDOCK:   -4.53 KCAL/MOL
REMARK 924 INTRA-LIGAND FREE ENERGY PREDICTED BY IDOCK:   -0.22 KCAL/MOL
REMARK 927      BINDING AFFINITY PREDICTED BY RF-SCORE:    0.00 PKD
ROOT
HETATM    1  C   UNK     1      -7.992   9.650  69.895  1.00  0.00    -0.167 C  
HETATM    2  N   UNK     1      -9.207  10.433  69.896  1.00  0.00    -0.396 NA 
HETATM    3  H   UNK     1      -9.690  10.569  70.784  1.00  0.00     0.000 HD 
HETATM    4  C   UNK     1      -9.743  10.998  68.785  1.00  0.00    -0.191 C  
HETATM    5  N   UNK     1     -10.763  11.834  69.110  1.00  0.00    -0.382 NA 
HETATM    6  N   UNK     1      -9.376  10.787  67.573  1.00  0.00    -0.147 NA 
HETATM    7  H   UNK     1     -10.930  12.088  70.083  1.00  0.00     0.000 HD 
HETATM    8  H2  UNK     1      -8.606  10.132  67.431  1.00  0.00     0.000 HD 
HETATM    9  H1  UNK     1      -9.778  11.212  66.737  1.00  0.00     0.000 HD 
ENDROOT
BRANCH   5  10
HETATM   10  C   UNK     1     -11.617  12.366  68.053  1.00  0.00    -0.347 C  
BRANCH  10  11
HETATM   11  C   UNK     1     -11.884  13.847  68.303  1.00  0.00    -0.412 C  
BRANCH  11  12
HETATM   12  C   UNK     1     -11.624  14.229  69.768  1.00  0.00    -0.350 C  
BRANCH  12  13
HETATM   13  C   UNK     1     -12.089  15.644  70.137  1.00  0.00    -0.377 C  
HETATM   14  C   UNK     1     -12.831  15.625  71.484  1.00  0.00    -0.471 C  
HETATM   15  N   UNK     1     -10.940  16.586  70.238  1.00  0.00    -0.371 NA 
HETATM   16  O   UNK     1     -13.983  15.266  71.650  1.00  0.00    -0.456 OA 
HETATM   17  O   UNK     1     -12.013  16.028  72.495  1.00  0.00    -0.464 OA 
HETATM   18  H1  UNK     1     -11.250  17.526  70.483  1.00  0.00     0.000 HD 
HETATM   19  H2  UNK     1     -10.382  16.586  69.384  1.00  0.00     0.000 HD 
ENDBRANCH  12  13
ENDBRANCH  11  12
ENDBRANCH  10  11
ENDBRANCH   5  10
TORSDOF 4
ENDMDL
MODEL      144
REMARK 921   NORMALIZED FREE ENERGY PREDICTED BY IDOCK:   -3.49 KCAL/MOL
REMARK 922        TOTAL FREE ENERGY PREDICTED BY IDOCK:   -4.74 KCAL/MOL
REMARK 923 INTER-LIGAND FREE ENERGY PREDICTED BY IDOCK:   -4.63 KCAL/MOL
REMARK 924 INTRA-LIGAND FREE ENERGY PREDICTED BY IDOCK:   -0.11 KCAL/MOL
REMARK 927      BINDING AFFINITY PREDICTED BY RF-SCORE:    0.00 PKD
ROOT
HETATM    1  C   UNK     1      -9.522  10.634  62.555  1.00  0.00    -0.254 C  
HETATM    2  N   UNK     1     -10.546  10.893  63.542  1.00  0.00    -0.549 NA 
HETATM    3  H   UNK     1     -11.507  10.637  63.315  1.00  0.00     0.000 HD 
HETATM    4  C   UNK     1     -10.303  11.456  64.751  1.00  0.00    -0.294 C  
HETATM    5  N   UNK     1     -11.405  11.397  65.543  1.00  0.00    -0.083 NA 
HETATM    6  N   UNK     1      -9.202  11.996  65.131  1.00  0.00    -0.418 NA 
HETATM    7  H   UNK     1     -12.209  10.835  65.266  1.00  0.00     0.000 HD 
HETATM    8  H2  UNK     1      -8.435  12.002  64.458  1.00  0.00     0.000 HD 
HETATM    9  H1  UNK     1      -9.019  12.421  66.040  1.00  0.00     0.000 HD 
ENDROOT
BRANCH   5  10
HETATM   10  C   UNK     1     -11.427  12.145  66.797  1.00  0.00    -0.356 C  
BRANCH  10  11
HETATM   11  C   UNK     1     -11.070  11.218  67.955  1.00  0.00    -0.325 C  
BRANCH  11  12
HETATM   12  C   UNK     1     -11.974  11.460  69.173  1.00  0.00    -0.395 C  
BRANCH  12  13
HETATM   13  C   UNK     1     -11.627  10.594  70.390  1.00  0.00    -0.351 C  
HETATM   14  C   UNK     1     -12.819  10.540  71.361  1.00  0.00    -0.447 C  
HETATM   15  N   UNK     1     -11.277   9.204  69.988  1.00  0.00    -0.383 NA 
HETATM   16  O   UNK     1     -13.128  11.418  72.147  1.00  0.00    -0.462 OA 
HETATM   17  O   UNK     1     -13.524   9.387  71.202  1.00  0.00    -0.314 OA 
HETATM   18  H1  UNK     1     -11.046   8.628  70.797  1.00  0.00     0.000 HD 
HETATM   19  H2  UNK     1     -10.527   9.193  69.296  1.00  0.00     0.000 HD 
ENDBRANCH  12  13
ENDBRANCH  11  12
ENDBRANCH  10  11
ENDBRANCH   5  10
TORSDOF 4
ENDMDL
MODEL      145
REMARK 921   NORMALIZED FREE ENERGY PREDICTED BY IDOCK:   -3.48 KCAL/MOL
REMARK 922        TOTAL FREE ENERGY PREDICTED BY IDOCK:   -4.73 KCAL/MOL
REMARK 923 INTER-LIGAND FREE ENERGY PREDICTED BY IDOCK:   -4.51 KCAL/MOL
REMARK 924 INTRA-LIGAND FREE ENERGY PREDICTED BY IDOCK:   -0.22 KCAL/MOL
REMARK 927      BINDING AFFINITY PREDICTED BY RF-SCORE:    0.00 PKD
ROOT
HETATM    1  C   UNK     1      -7.870  17.620  66.096  1.00  0.00    -0.234 C  
HETATM    2  N   UNK     1      -9.219  17.110  66.004  1.00  0.00    -0.508 NA 
HETATM    3  H   UNK     1      -9.881  17.608  65.408  1.00  0.00     0.000 HD 
HETATM    4  C   UNK     1      -9.657  16.009  66.663  1.00  0.00    -0.239 C  
HETATM    5  N   UNK     1     -10.896  15.650  66.239  1.00  0.00    -0.297 NA 
HETATM    6  N   UNK     1      -9.024  15.370  67.580  1.00  0.00    -0.180 NA 
HETATM    7  H   UNK     1     -11.305  16.088  65.413  1.00  0.00     0.000 HD 
HETATM    8  H2  UNK     1      -8.103  15.725  67.837  1.00  0.00     0.000 HD 
HETATM    9  H1  UNK     1      -9.352  14.542  68.076  1.00  0.00     0.000 HD 
ENDROOT
BRANCH   5  10
HETATM   10  C   UNK     1     -11.639  14.632  66.975  1.00  0.00    -0.371 C  
BRANCH  10  11
HETATM   11  C   UNK     1     -12.415  13.754  65.997  1.00  0.00    -0.491 C  
BRANCH  11  12
HETATM   12  C   UNK     1     -11.633  12.484  65.633  1.00  0.00    -0.435 C  
BRANCH  12  13
HETATM   13  C   UNK     1     -10.699  12.651  64.427  1.00  0.00    -0.359 C  
HETATM   14  C   UNK     1      -9.856  11.380  64.228  1.00  0.00    -0.261 C  
HETATM   15  N   UNK     1     -11.464  12.916  63.178  1.00  0.00    -0.771 NA 
HETATM   16  O   UNK     1      -8.869  11.079  64.877  1.00  0.00    -0.159 OA 
HETATM   17  O   UNK     1     -10.381  10.596  63.247  1.00  0.00    -0.210 OA 
HETATM   18  H1  UNK     1     -10.843  13.026  62.377  1.00  0.00     0.000 HD 
HETATM   19  H2  UNK     1     -12.085  13.718  63.284  1.00  0.00     0.000 HD 
ENDBRANCH  12  13
ENDBRANCH  11  12
ENDBRANCH  10  11
ENDBRANCH   5  10
TORSDOF 4
ENDMDL
MODEL      146
REMARK 921   NORMALIZED FREE ENERGY PREDICTED BY IDOCK:   -3.45 KCAL/MOL
REMARK 922        TOTAL FREE ENERGY PREDICTED BY IDOCK:   -4.70 KCAL/MOL
REMARK 923 INTER-LIGAND FREE ENERGY PREDICTED BY IDOCK:   -4.05 KCAL/MOL
REMARK 924 INTRA-LIGAND FREE ENERGY PREDICTED BY IDOCK:   -0.64 KCAL/MOL
REMARK 927      BINDING AFFINITY PREDICTED BY RF-SCORE:    0.00 PKD
ROOT
HETATM    1  C   UNK     1     -10.950  15.967  64.997  1.00  0.00    -0.412 C  
HETATM    2  N   UNK     1     -10.525  16.587  66.231  1.00  0.00    -0.303 NA 
HETATM    3  H   UNK     1     -11.152  17.259  66.673  1.00  0.00     0.000 HD 
HETATM    4  C   UNK     1      -9.339  16.327  66.837  1.00  0.00    -0.224 C  
HETATM    5  N   UNK     1      -9.291  16.893  68.071  1.00  0.00    -0.234 NA 
HETATM    6  N   UNK     1      -8.363  15.655  66.342  1.00  0.00    -0.356 NA 
HETATM    7  H   UNK     1     -10.132  17.292  68.488  1.00  0.00     0.000 HD 
HETATM    8  H2  UNK     1      -8.492  15.279  65.402  1.00  0.00     0.000 HD 
HETATM    9  H1  UNK     1      -7.471  15.459  66.796  1.00  0.00     0.000 HD 
ENDROOT
BRANCH   5  10
HETATM   10  C   UNK     1      -8.024  16.925  68.795  1.00  0.00    -0.254 C  
BRANCH  10  11
HETATM   11  C   UNK     1      -7.313  18.249  68.530  1.00  0.00    -0.297 C  
BRANCH  11  12
HETATM   12  C   UNK     1      -8.294  19.431  68.546  1.00  0.00    -0.399 C  
BRANCH  12  13
HETATM   13  C   UNK     1      -8.463  20.121  67.186  1.00  0.00    -0.342 C  
HETATM   14  C   UNK     1      -7.284  19.770  66.262  1.00  0.00    -0.265 C  
HETATM   15  N   UNK     1      -9.729  19.710  66.520  1.00  0.00    -0.369 NA 
HETATM   16  O   UNK     1      -6.174  20.271  66.314  1.00  0.00    -0.180 OA 
HETATM   17  O   UNK     1      -7.626  18.783  65.391  1.00  0.00    -0.419 OA 
HETATM   18  H1  UNK     1      -9.841  20.168  65.616  1.00  0.00     0.000 HD 
HETATM   19  H2  UNK     1     -10.536  19.869  67.123  1.00  0.00     0.000 HD 
ENDBRANCH  12  13
ENDBRANCH  11  12
ENDBRANCH  10  11
ENDBRANCH   5  10
TORSDOF 4
ENDMDL
MODEL      147
REMARK 921   NORMALIZED FREE ENERGY PREDICTED BY IDOCK:   -3.45 KCAL/MOL
REMARK 922        TOTAL FREE ENERGY PREDICTED BY IDOCK:   -4.69 KCAL/MOL
REMARK 923 INTER-LIGAND FREE ENERGY PREDICTED BY IDOCK:   -4.10 KCAL/MOL
REMARK 924 INTRA-LIGAND FREE ENERGY PREDICTED BY IDOCK:   -0.59 KCAL/MOL
REMARK 927      BINDING AFFINITY PREDICTED BY RF-SCORE:    0.00 PKD
ROOT
HETATM    1  C   UNK     1     -11.043   5.879  70.373  1.00  0.00    -0.283 C  
HETATM    2  N   UNK     1     -11.337   6.704  69.223  1.00  0.00    -0.574 NA 
HETATM    3  H   UNK     1     -12.315   6.843  68.971  1.00  0.00     0.000 HD 
HETATM    4  C   UNK     1     -10.389   7.303  68.461  1.00  0.00    -0.189 C  
HETATM    5  N   UNK     1     -10.951   8.169  67.579  1.00  0.00    -0.493 NA 
HETATM    6  N   UNK     1      -9.123   7.098  68.523  1.00  0.00    -0.133 NA 
HETATM    7  H   UNK     1     -11.938   8.415  67.657  1.00  0.00     0.000 HD 
HETATM    8  H2  UNK     1      -8.798   6.418  69.211  1.00  0.00     0.000 HD 
HETATM    9  H1  UNK     1      -8.409   7.548  67.950  1.00  0.00     0.000 HD 
ENDROOT
BRANCH   5  10
HETATM   10  C   UNK     1     -10.131   8.746  66.519  1.00  0.00    -0.279 C  
BRANCH  10  11
HETATM   11  C   UNK     1      -9.948  10.241  66.766  1.00  0.00    -0.261 C  
BRANCH  11  12
HETATM   12  C   UNK     1     -11.132  10.835  67.543  1.00  0.00    -0.374 C  
BRANCH  12  13
HETATM   13  C   UNK     1     -10.757  11.388  68.924  1.00  0.00    -0.210 C  
HETATM   14  C   UNK     1     -11.537  10.645  70.023  1.00  0.00    -0.325 C  
HETATM   15  N   UNK     1      -9.300  11.242  69.193  1.00  0.00    -0.407 NA 
HETATM   16  O   UNK     1     -12.701  10.848  70.321  1.00  0.00    -0.298 OA 
HETATM   17  O   UNK     1     -10.766   9.687  70.604  1.00  0.00    -0.276 OA 
HETATM   18  H1  UNK     1      -9.052  11.609  70.111  1.00  0.00     0.000 HD 
HETATM   19  H2  UNK     1      -8.741  11.669  68.455  1.00  0.00     0.000 HD 
ENDBRANCH  12  13
ENDBRANCH  11  12
ENDBRANCH  10  11
ENDBRANCH   5  10
TORSDOF 4
ENDMDL
MODEL      148
REMARK 921   NORMALIZED FREE ENERGY PREDICTED BY IDOCK:   -3.43 KCAL/MOL
REMARK 922        TOTAL FREE ENERGY PREDICTED BY IDOCK:   -4.67 KCAL/MOL
REMARK 923 INTER-LIGAND FREE ENERGY PREDICTED BY IDOCK:   -3.86 KCAL/MOL
REMARK 924 INTRA-LIGAND FREE ENERGY PREDICTED BY IDOCK:   -0.82 KCAL/MOL
REMARK 927      BINDING AFFINITY PREDICTED BY RF-SCORE:    0.00 PKD
ROOT
HETATM    1  C   UNK     1      -7.144  10.041  67.530  1.00  0.00    -0.087 C  
HETATM    2  N   UNK     1      -8.244  10.908  67.888  1.00  0.00    -0.112 NA 
HETATM    3  H   UNK     1      -9.097  10.479  68.246  1.00  0.00     0.000 HD 
HETATM    4  C   UNK     1      -8.208  12.259  67.775  1.00  0.00    -0.161 C  
HETATM    5  N   UNK     1      -9.293  12.824  68.365  1.00  0.00    -0.324 NA 
HETATM    6  N   UNK     1      -7.298  12.949  67.187  1.00  0.00    -0.359 NA 
HETATM    7  H   UNK     1      -9.915  12.261  68.946  1.00  0.00     0.000 HD 
HETATM    8  H2  UNK     1      -6.528  12.432  66.764  1.00  0.00     0.000 HD 
HETATM    9  H1  UNK     1      -7.271  13.966  67.102  1.00  0.00     0.000 HD 
ENDROOT
BRANCH   5  10
HETATM   10  C   UNK     1      -9.562  14.244  68.161  1.00  0.00    -0.218 C  
BRANCH  10  11
HETATM   11  C   UNK     1     -11.041  14.449  67.849  1.00  0.00    -0.288 C  
BRANCH  11  12
HETATM   12  C   UNK     1     -11.317  14.365  66.340  1.00  0.00    -0.351 C  
BRANCH  12  13
HETATM   13  C   UNK     1     -11.918  13.028  65.888  1.00  0.00    -0.435 C  
HETATM   14  C   UNK     1     -11.007  12.362  64.842  1.00  0.00    -0.302 C  
HETATM   15  N   UNK     1     -12.091  12.094  67.034  1.00  0.00    -0.546 NA 
HETATM   16  O   UNK     1     -10.946  12.667  63.664  1.00  0.00    -0.426 OA 
HETATM   17  O   UNK     1     -10.232  11.401  65.414  1.00  0.00    -0.247 OA 
HETATM   18  H1  UNK     1     -12.490  11.205  66.733  1.00  0.00     0.000 HD 
HETATM   19  H2  UNK     1     -12.641  12.517  67.781  1.00  0.00     0.000 HD 
ENDBRANCH  12  13
ENDBRANCH  11  12
ENDBRANCH  10  11
ENDBRANCH   5  10
TORSDOF 4
ENDMDL
MODEL      149
REMARK 921   NORMALIZED FREE ENERGY PREDICTED BY IDOCK:   -3.42 KCAL/MOL
REMARK 922        TOTAL FREE ENERGY PREDICTED BY IDOCK:   -4.66 KCAL/MOL
REMARK 923 INTER-LIGAND FREE ENERGY PREDICTED BY IDOCK:   -4.24 KCAL/MOL
REMARK 924 INTRA-LIGAND FREE ENERGY PREDICTED BY IDOCK:   -0.42 KCAL/MOL
REMARK 927      BINDING AFFINITY PREDICTED BY RF-SCORE:    0.00 PKD
ROOT
HETATM    1  C   UNK     1     -12.638  12.136  63.447  1.00  0.00    -0.463 C  
HETATM    2  N   UNK     1     -12.789  12.693  64.772  1.00  0.00    -0.830 NA 
HETATM    3  H   UNK     1     -13.543  12.338  65.359  1.00  0.00     0.000 HD 
HETATM    4  C   UNK     1     -11.985  13.660  65.280  1.00  0.00    -0.376 C  
HETATM    5  N   UNK     1     -12.229  13.847  66.603  1.00  0.00    -0.440 NA 
HETATM    6  N   UNK     1     -11.110  14.340  64.631  1.00  0.00    -0.499 NA 
HETATM    7  H   UNK     1     -12.821  13.194  67.115  1.00  0.00     0.000 HD 
HETATM    8  H2  UNK     1     -11.010  14.133  63.637  1.00  0.00     0.000 HD 
HETATM    9  H1  UNK     1     -10.506  15.068  65.012  1.00  0.00     0.000 HD 
ENDROOT
BRANCH   5  10
HETATM   10  C   UNK     1     -11.634  14.992  67.286  1.00  0.00    -0.273 C  
BRANCH  10  11
HETATM   11  C   UNK     1     -10.635  14.505  68.332  1.00  0.00    -0.244 C  
BRANCH  11  12
HETATM   12  C   UNK     1      -9.190  14.834  67.930  1.00  0.00    -0.191 C  
BRANCH  12  13
HETATM   13  C   UNK     1      -8.449  13.671  67.258  1.00  0.00    -0.194 C  
HETATM   14  C   UNK     1      -6.970  13.668  67.681  1.00  0.00    -0.172 C  
HETATM   15  N   UNK     1      -9.052  12.359  67.620  1.00  0.00    -0.178 NA 
HETATM   16  O   UNK     1      -6.107  14.401  67.232  1.00  0.00    -0.300 OA 
HETATM   17  O   UNK     1      -6.748  12.756  68.667  1.00  0.00    -0.076 OA 
HETATM   18  H1  UNK     1      -8.559  11.586  67.173  1.00  0.00     0.000 HD 
HETATM   19  H2  UNK     1     -10.050  12.336  67.412  1.00  0.00     0.000 HD 
ENDBRANCH  12  13
ENDBRANCH  11  12
ENDBRANCH  10  11
ENDBRANCH   5  10
TORSDOF 4
ENDMDL
MODEL      150
REMARK 921   NORMALIZED FREE ENERGY PREDICTED BY IDOCK:   -3.42 KCAL/MOL
REMARK 922        TOTAL FREE ENERGY PREDICTED BY IDOCK:   -4.66 KCAL/MOL
REMARK 923 INTER-LIGAND FREE ENERGY PREDICTED BY IDOCK:   -4.40 KCAL/MOL
REMARK 924 INTRA-LIGAND FREE ENERGY PREDICTED BY IDOCK:   -0.25 KCAL/MOL
REMARK 927      BINDING AFFINITY PREDICTED BY RF-SCORE:    0.00 PKD
ROOT
HETATM    1  C   UNK     1     -11.249   5.762  72.017  1.00  0.00    -0.247 C  
HETATM    2  N   UNK     1     -11.254   6.755  70.966  1.00  0.00    -0.274 NA 
HETATM    3  H   UNK     1     -11.307   6.432  70.001  1.00  0.00     0.000 HD 
HETATM    4  C   UNK     1     -11.193   8.091  71.191  1.00  0.00    -0.261 C  
HETATM    5  N   UNK     1     -11.415   8.786  70.045  1.00  0.00    -0.455 NA 
HETATM    6  N   UNK     1     -10.947   8.663  72.314  1.00  0.00    -0.357 NA 
HETATM    7  H   UNK     1     -11.750   8.307  69.209  1.00  0.00     0.000 HD 
HETATM    8  H2  UNK     1     -10.782   8.054  73.115  1.00  0.00     0.000 HD 
HETATM    9  H1  UNK     1     -10.901   9.668  72.483  1.00  0.00     0.000 HD 
ENDROOT
BRANCH   5  10
HETATM   10  C   UNK     1     -11.171  10.224  70.021  1.00  0.00    -0.311 C  
BRANCH  10  11
HETATM   11  C   UNK     1     -10.046  10.539  69.039  1.00  0.00    -0.230 C  
BRANCH  11  12
HETATM   12  C   UNK     1     -10.227  11.922  68.396  1.00  0.00    -0.205 C  
BRANCH  12  13
HETATM   13  C   UNK     1     -11.682  12.266  68.054  1.00  0.00    -0.356 C  
HETATM   14  C   UNK     1     -11.990  13.722  68.444  1.00  0.00    -0.360 C  
HETATM   15  N   UNK     1     -11.956  12.094  66.601  1.00  0.00    -0.629 NA 
HETATM   16  O   UNK     1     -12.223  14.115  69.574  1.00  0.00    -0.326 OA 
HETATM   17  O   UNK     1     -11.928  14.540  67.359  1.00  0.00    -0.394 OA 
HETATM   18  H1  UNK     1     -12.923  12.322  66.374  1.00  0.00     0.000 HD 
HETATM   19  H2  UNK     1     -11.709  11.157  66.283  1.00  0.00     0.000 HD 
ENDBRANCH  12  13
ENDBRANCH  11  12
ENDBRANCH  10  11
ENDBRANCH   5  10
TORSDOF 4
ENDMDL
MODEL      151
REMARK 921   NORMALIZED FREE ENERGY PREDICTED BY IDOCK:   -3.42 KCAL/MOL
REMARK 922        TOTAL FREE ENERGY PREDICTED BY IDOCK:   -4.66 KCAL/MOL
REMARK 923 INTER-LIGAND FREE ENERGY PREDICTED BY IDOCK:   -4.38 KCAL/MOL
REMARK 924 INTRA-LIGAND FREE ENERGY PREDICTED BY IDOCK:   -0.28 KCAL/MOL
REMARK 927      BINDING AFFINITY PREDICTED BY RF-SCORE:    0.00 PKD
ROOT
HETATM    1  C   UNK     1     -11.833   8.087  72.573  1.00  0.00    -0.361 C  
HETATM    2  N   UNK     1     -11.247   9.181  71.832  1.00  0.00    -0.370 NA 
HETATM    3  H   UNK     1     -10.286   9.446  72.047  1.00  0.00     0.000 HD 
HETATM    4  C   UNK     1     -11.902   9.876  70.869  1.00  0.00    -0.356 C  
HETATM    5  N   UNK     1     -11.053  10.706  70.209  1.00  0.00    -0.425 NA 
HETATM    6  N   UNK     1     -13.154   9.800  70.594  1.00  0.00    -0.586 NA 
HETATM    7  H   UNK     1     -10.046  10.634  70.353  1.00  0.00     0.000 HD 
HETATM    8  H2  UNK     1     -13.711   9.155  71.155  1.00  0.00     0.000 HD 
HETATM    9  H1  UNK     1     -13.647  10.323  69.870  1.00  0.00     0.000 HD 
ENDROOT
BRANCH   5  10
HETATM   10  C   UNK     1     -11.596  11.703  69.291  1.00  0.00    -0.320 C  
BRANCH  10  11
HETATM   11  C   UNK     1     -11.201  11.353  67.859  1.00  0.00    -0.352 C  
BRANCH  11  12
HETATM   12  C   UNK     1     -10.974  12.613  67.011  1.00  0.00    -0.300 C  
BRANCH  12  13
HETATM   13  C   UNK     1     -11.249  13.926  67.757  1.00  0.00    -0.293 C  
HETATM   14  C   UNK     1      -9.937  14.697  67.977  1.00  0.00    -0.220 C  
HETATM   15  N   UNK     1     -12.192  14.794  67.001  1.00  0.00    -0.403 NA 
HETATM   16  O   UNK     1      -9.108  14.450  68.836  1.00  0.00    -0.161 OA 
HETATM   17  O   UNK     1      -9.791  15.683  67.050  1.00  0.00    -0.228 OA 
HETATM   18  H1  UNK     1     -12.375  15.666  67.497  1.00  0.00     0.000 HD 
HETATM   19  H2  UNK     1     -13.057  14.302  66.780  1.00  0.00     0.000 HD 
ENDBRANCH  12  13
ENDBRANCH  11  12
ENDBRANCH  10  11
ENDBRANCH   5  10
TORSDOF 4
ENDMDL
MODEL      152
REMARK 921   NORMALIZED FREE ENERGY PREDICTED BY IDOCK:   -3.41 KCAL/MOL
REMARK 922        TOTAL FREE ENERGY PREDICTED BY IDOCK:   -4.65 KCAL/MOL
REMARK 923 INTER-LIGAND FREE ENERGY PREDICTED BY IDOCK:   -4.21 KCAL/MOL
REMARK 924 INTRA-LIGAND FREE ENERGY PREDICTED BY IDOCK:   -0.43 KCAL/MOL
REMARK 927      BINDING AFFINITY PREDICTED BY RF-SCORE:    0.00 PKD
ROOT
HETATM    1  C   UNK     1     -13.429  14.763  71.868  1.00  0.00    -0.371 C  
HETATM    2  N   UNK     1     -12.730  13.760  71.096  1.00  0.00    -0.354 NA 
HETATM    3  H   UNK     1     -12.178  14.068  70.296  1.00  0.00     0.000 HD 
HETATM    4  C   UNK     1     -12.766  12.433  71.375  1.00  0.00    -0.243 C  
HETATM    5  N   UNK     1     -11.866  11.754  70.617  1.00  0.00    -0.469 NA 
HETATM    6  N   UNK     1     -13.539  11.854  72.222  1.00  0.00    -0.492 NA 
HETATM    7  H   UNK     1     -11.172  12.259  70.065  1.00  0.00     0.000 HD 
HETATM    8  H2  UNK     1     -14.189  12.450  72.735  1.00  0.00     0.000 HD 
HETATM    9  H1  UNK     1     -13.566  10.856  72.431  1.00  0.00     0.000 HD 
ENDROOT
BRANCH   5  10
HETATM   10  C   UNK     1     -11.901  10.295  70.598  1.00  0.00    -0.347 C  
BRANCH  10  11
HETATM   11  C   UNK     1     -10.481   9.748  70.493  1.00  0.00    -0.366 C  
BRANCH  11  12
HETATM   12  C   UNK     1      -9.933   9.869  69.063  1.00  0.00    -0.193 C  
BRANCH  12  13
HETATM   13  C   UNK     1     -10.995   9.691  67.970  1.00  0.00    -0.140 C  
HETATM   14  C   UNK     1     -11.054  10.942  67.078  1.00  0.00    -0.202 C  
HETATM   15  N   UNK     1     -10.702   8.508  67.114  1.00  0.00    -0.411 NA 
HETATM   16  O   UNK     1     -11.610  11.988  67.366  1.00  0.00    -0.371 OA 
HETATM   17  O   UNK     1     -10.362  10.749  65.922  1.00  0.00    -0.254 OA 
HETATM   18  H1  UNK     1     -11.408   8.390  66.388  1.00  0.00     0.000 HD 
HETATM   19  H2  UNK     1     -10.594   7.661  67.672  1.00  0.00     0.000 HD 
ENDBRANCH  12  13
ENDBRANCH  11  12
ENDBRANCH  10  11
ENDBRANCH   5  10
TORSDOF 4
ENDMDL
MODEL      153
REMARK 921   NORMALIZED FREE ENERGY PREDICTED BY IDOCK:   -3.41 KCAL/MOL
REMARK 922        TOTAL FREE ENERGY PREDICTED BY IDOCK:   -4.65 KCAL/MOL
REMARK 923 INTER-LIGAND FREE ENERGY PREDICTED BY IDOCK:   -4.45 KCAL/MOL
REMARK 924 INTRA-LIGAND FREE ENERGY PREDICTED BY IDOCK:   -0.20 KCAL/MOL
REMARK 927      BINDING AFFINITY PREDICTED BY RF-SCORE:    0.00 PKD
ROOT
HETATM    1  C   UNK     1      -6.832  19.773  69.335  1.00  0.00    -0.329 C  
HETATM    2  N   UNK     1      -7.363  18.899  68.314  1.00  0.00    -0.269 NA 
HETATM    3  H   UNK     1      -6.703  18.401  67.718  1.00  0.00     0.000 HD 
HETATM    4  C   UNK     1      -8.688  18.704  68.102  1.00  0.00    -0.311 C  
HETATM    5  N   UNK     1      -8.895  17.690  67.222  1.00  0.00    -0.233 NA 
HETATM    6  N   UNK     1      -9.650  19.373  68.630  1.00  0.00    -0.404 NA 
HETATM    7  H   UNK     1      -8.121  17.090  66.938  1.00  0.00     0.000 HD 
HETATM    8  H2  UNK     1      -9.392  20.123  69.271  1.00  0.00     0.000 HD 
HETATM    9  H1  UNK     1     -10.647  19.226  68.471  1.00  0.00     0.000 HD 
ENDROOT
BRANCH   5  10
HETATM   10  C   UNK     1     -10.234  17.468  66.686  1.00  0.00    -0.332 C  
BRANCH  10  11
HETATM   11  C   UNK     1     -10.652  16.021  66.931  1.00  0.00    -0.300 C  
BRANCH  11  12
HETATM   12  C   UNK     1      -9.757  15.036  66.164  1.00  0.00    -0.334 C  
BRANCH  12  13
HETATM   13  C   UNK     1     -10.397  13.662  65.931  1.00  0.00    -0.301 C  
HETATM   14  C   UNK     1     -11.005  13.592  64.520  1.00  0.00    -0.394 C  
HETATM   15  N   UNK     1      -9.401  12.565  66.076  1.00  0.00    -0.416 NA 
HETATM   16  O   UNK     1     -12.070  14.080  64.186  1.00  0.00    -0.463 OA 
HETATM   17  O   UNK     1     -10.172  12.940  63.663  1.00  0.00    -0.361 OA 
HETATM   18  H1  UNK     1      -9.827  11.651  65.920  1.00  0.00     0.000 HD 
HETATM   19  H2  UNK     1      -8.927  12.608  66.978  1.00  0.00     0.000 HD 
ENDBRANCH  12  13
ENDBRANCH  11  12
ENDBRANCH  10  11
ENDBRANCH   5  10
TORSDOF 4
ENDMDL
MODEL      154
REMARK 921   NORMALIZED FREE ENERGY PREDICTED BY IDOCK:   -3.40 KCAL/MOL
REMARK 922        TOTAL FREE ENERGY PREDICTED BY IDOCK:   -4.64 KCAL/MOL
REMARK 923 INTER-LIGAND FREE ENERGY PREDICTED BY IDOCK:   -4.28 KCAL/MOL
REMARK 924 INTRA-LIGAND FREE ENERGY PREDICTED BY IDOCK:   -0.35 KCAL/MOL
REMARK 927      BINDING AFFINITY PREDICTED BY RF-SCORE:    0.00 PKD
ROOT
HETATM    1  C   UNK     1     -13.615  10.216  71.852  1.00  0.00    -0.237 C  
HETATM    2  N   UNK     1     -12.564   9.276  72.170  1.00  0.00    -0.379 NA 
HETATM    3  H   UNK     1     -11.731   9.629  72.642  1.00  0.00     0.000 HD 
HETATM    4  C   UNK     1     -12.620   7.953  71.877  1.00  0.00    -0.319 C  
HETATM    5  N   UNK     1     -11.595   7.282  72.463  1.00  0.00    -0.425 NA 
HETATM    6  N   UNK     1     -13.497   7.375  71.138  1.00  0.00    -0.601 NA 
HETATM    7  H   UNK     1     -11.007   7.745  73.157  1.00  0.00     0.000 HD 
HETATM    8  H2  UNK     1     -14.222   7.967  70.733  1.00  0.00     0.000 HD 
HETATM    9  H1  UNK     1     -13.540   6.380  70.917  1.00  0.00     0.000 HD 
ENDROOT
BRANCH   5  10
HETATM   10  C   UNK     1     -11.343   5.894  72.093  1.00  0.00    -0.288 C  
BRANCH  10  11
HETATM   11  C   UNK     1     -10.102   5.814  71.208  1.00  0.00    -0.253 C  
BRANCH  11  12
HETATM   12  C   UNK     1     -10.463   5.460  69.758  1.00  0.00    -0.378 C  
BRANCH  12  13
HETATM   13  C   UNK     1     -11.036   6.633  68.953  1.00  0.00    -0.267 C  
HETATM   14  C   UNK     1     -10.116   7.860  69.073  1.00  0.00    -0.200 C  
HETATM   15  N   UNK     1     -11.182   6.286  67.512  1.00  0.00    -0.614 NA 
HETATM   16  O   UNK     1     -10.068   8.614  70.029  1.00  0.00    -0.182 OA 
HETATM   17  O   UNK     1      -9.316   7.977  67.978  1.00  0.00    -0.138 OA 
HETATM   18  H1  UNK     1     -11.562   7.066  66.977  1.00  0.00     0.000 HD 
HETATM   19  H2  UNK     1     -11.737   5.440  67.387  1.00  0.00     0.000 HD 
ENDBRANCH  12  13
ENDBRANCH  11  12
ENDBRANCH  10  11
ENDBRANCH   5  10
TORSDOF 4
ENDMDL
MODEL      155
REMARK 921   NORMALIZED FREE ENERGY PREDICTED BY IDOCK:   -3.39 KCAL/MOL
REMARK 922        TOTAL FREE ENERGY PREDICTED BY IDOCK:   -4.62 KCAL/MOL
REMARK 923 INTER-LIGAND FREE ENERGY PREDICTED BY IDOCK:   -4.29 KCAL/MOL
REMARK 924 INTRA-LIGAND FREE ENERGY PREDICTED BY IDOCK:   -0.34 KCAL/MOL
REMARK 927      BINDING AFFINITY PREDICTED BY RF-SCORE:    0.00 PKD
ROOT
HETATM    1  C   UNK     1     -12.500  11.225  70.110  1.00  0.00    -0.221 C  
HETATM    2  N   UNK     1     -11.194  11.754  69.787  1.00  0.00    -0.477 NA 
HETATM    3  H   UNK     1     -10.380  11.166  69.966  1.00  0.00     0.000 HD 
HETATM    4  C   UNK     1     -10.988  12.986  69.259  1.00  0.00    -0.067 C  
HETATM    5  N   UNK     1      -9.694  13.139  68.874  1.00  0.00    -0.407 NA 
HETATM    6  N   UNK     1     -11.865  13.916  69.134  1.00  0.00    -0.337 NA 
HETATM    7  H   UNK     1      -9.065  12.336  68.853  1.00  0.00     0.000 HD 
HETATM    8  H2  UNK     1     -12.808  13.708  69.464  1.00  0.00     0.000 HD 
HETATM    9  H1  UNK     1     -11.710  14.843  68.737  1.00  0.00     0.000 HD 
ENDROOT
BRANCH   5  10
HETATM   10  C   UNK     1      -9.212  14.462  68.492  1.00  0.00    -0.198 C  
BRANCH  10  11
HETATM   11  C   UNK     1      -8.352  14.353  67.236  1.00  0.00    -0.228 C  
BRANCH  11  12
HETATM   12  C   UNK     1      -8.829  15.317  66.139  1.00  0.00    -0.166 C  
BRANCH  12  13
HETATM   13  C   UNK     1     -10.339  15.587  66.159  1.00  0.00    -0.315 C  
HETATM   14  C   UNK     1     -10.618  17.067  65.847  1.00  0.00    -0.216 C  
HETATM   15  N   UNK     1     -11.056  14.746  65.163  1.00  0.00    -0.362 NA 
HETATM   16  O   UNK     1     -10.501  17.989  66.635  1.00  0.00    -0.357 OA 
HETATM   17  O   UNK     1     -10.978  17.230  64.544  1.00  0.00    -0.937 OA 
HETATM   18  H1  UNK     1     -12.060  14.926  65.176  1.00  0.00     0.000 HD 
HETATM   19  H2  UNK     1     -10.852  13.755  65.294  1.00  0.00     0.000 HD 
ENDBRANCH  12  13
ENDBRANCH  11  12
ENDBRANCH  10  11
ENDBRANCH   5  10
TORSDOF 4
ENDMDL
MODEL      156
REMARK 921   NORMALIZED FREE ENERGY PREDICTED BY IDOCK:   -3.38 KCAL/MOL
REMARK 922        TOTAL FREE ENERGY PREDICTED BY IDOCK:   -4.61 KCAL/MOL
REMARK 923 INTER-LIGAND FREE ENERGY PREDICTED BY IDOCK:   -4.49 KCAL/MOL
REMARK 924 INTRA-LIGAND FREE ENERGY PREDICTED BY IDOCK:   -0.13 KCAL/MOL
REMARK 927      BINDING AFFINITY PREDICTED BY RF-SCORE:    0.00 PKD
ROOT
HETATM    1  C   UNK     1     -10.646  19.867  66.122  1.00  0.00    -0.420 C  
HETATM    2  N   UNK     1     -10.643  18.979  67.263  1.00  0.00    -0.450 NA 
HETATM    3  H   UNK     1     -10.860  19.373  68.178  1.00  0.00     0.000 HD 
HETATM    4  C   UNK     1     -10.368  17.653  67.186  1.00  0.00    -0.343 C  
HETATM    5  N   UNK     1     -10.632  17.034  68.366  1.00  0.00    -0.361 NA 
HETATM    6  N   UNK     1      -9.907  17.030  66.163  1.00  0.00    -0.395 NA 
HETATM    7  H   UNK     1     -11.132  17.528  69.106  1.00  0.00     0.000 HD 
HETATM    8  H2  UNK     1      -9.730  17.585  65.326  1.00  0.00     0.000 HD 
HETATM    9  H1  UNK     1      -9.700  16.033  66.105  1.00  0.00     0.000 HD 
ENDROOT
BRANCH   5  10
HETATM   10  C   UNK     1     -10.195  15.657  68.567  1.00  0.00    -0.211 C  
BRANCH  10  11
HETATM   11  C   UNK     1     -11.342  14.701  68.253  1.00  0.00    -0.317 C  
BRANCH  11  12
HETATM   12  C   UNK     1     -10.864  13.243  68.193  1.00  0.00    -0.270 C  
BRANCH  12  13
HETATM   13  C   UNK     1     -11.715  12.343  67.288  1.00  0.00    -0.349 C  
HETATM   14  C   UNK     1     -10.875  11.832  66.105  1.00  0.00    -0.291 C  
HETATM   15  N   UNK     1     -12.252  11.172  68.034  1.00  0.00    -0.567 NA 
HETATM   16  O   UNK     1     -10.597  12.474  65.108  1.00  0.00    -0.278 OA 
HETATM   17  O   UNK     1     -10.437  10.564  66.333  1.00  0.00    -0.235 OA 
HETATM   18  H1  UNK     1     -12.817  10.574  67.432  1.00  0.00     0.000 HD 
HETATM   19  H2  UNK     1     -12.768  11.462  68.864  1.00  0.00     0.000 HD 
ENDBRANCH  12  13
ENDBRANCH  11  12
ENDBRANCH  10  11
ENDBRANCH   5  10
TORSDOF 4
ENDMDL
MODEL      157
REMARK 921   NORMALIZED FREE ENERGY PREDICTED BY IDOCK:   -3.38 KCAL/MOL
REMARK 922        TOTAL FREE ENERGY PREDICTED BY IDOCK:   -4.61 KCAL/MOL
REMARK 923 INTER-LIGAND FREE ENERGY PREDICTED BY IDOCK:   -4.12 KCAL/MOL
REMARK 924 INTRA-LIGAND FREE ENERGY PREDICTED BY IDOCK:   -0.49 KCAL/MOL
REMARK 927      BINDING AFFINITY PREDICTED BY RF-SCORE:    0.00 PKD
ROOT
HETATM    1  C   UNK     1      -7.891  11.609  67.742  1.00  0.00    -0.129 C  
HETATM    2  N   UNK     1      -8.929  12.143  68.594  1.00  0.00    -0.378 NA 
HETATM    3  H   UNK     1      -8.935  11.865  69.575  1.00  0.00     0.000 HD 
HETATM    4  C   UNK     1      -9.896  12.992  68.165  1.00  0.00    -0.228 C  
HETATM    5  N   UNK     1     -10.609  13.484  69.211  1.00  0.00    -0.441 NA 
HETATM    6  N   UNK     1     -10.148  13.304  66.945  1.00  0.00    -0.246 NA 
HETATM    7  H   UNK     1     -10.291  13.331  70.168  1.00  0.00     0.000 HD 
HETATM    8  H2  UNK     1      -9.563  12.872  66.229  1.00  0.00     0.000 HD 
HETATM    9  H1  UNK     1     -10.875  13.942  66.621  1.00  0.00     0.000 HD 
ENDROOT
BRANCH   5  10
HETATM   10  C   UNK     1     -11.834  14.234  68.954  1.00  0.00    -0.336 C  
BRANCH  10  11
HETATM   11  C   UNK     1     -11.771  15.582  69.667  1.00  0.00    -0.371 C  
BRANCH  11  12
HETATM   12  C   UNK     1     -10.511  16.369  69.279  1.00  0.00    -0.303 C  
BRANCH  12  13
HETATM   13  C   UNK     1     -10.691  17.269  68.050  1.00  0.00    -0.367 C  
HETATM   14  C   UNK     1      -9.774  18.500  68.154  1.00  0.00    -0.339 C  
HETATM   15  N   UNK     1     -10.372  16.542  66.791  1.00  0.00    -0.297 NA 
HETATM   16  O   UNK     1      -9.991  19.486  68.837  1.00  0.00    -0.439 OA 
HETATM   17  O   UNK     1      -8.647  18.331  67.409  1.00  0.00    -0.246 OA 
HETATM   18  H1  UNK     1     -10.492  17.141  65.974  1.00  0.00     0.000 HD 
HETATM   19  H2  UNK     1     -10.916  15.684  66.708  1.00  0.00     0.000 HD 
ENDBRANCH  12  13
ENDBRANCH  11  12
ENDBRANCH  10  11
ENDBRANCH   5  10
TORSDOF 4
ENDMDL
MODEL      158
REMARK 921   NORMALIZED FREE ENERGY PREDICTED BY IDOCK:   -3.38 KCAL/MOL
REMARK 922        TOTAL FREE ENERGY PREDICTED BY IDOCK:   -4.60 KCAL/MOL
REMARK 923 INTER-LIGAND FREE ENERGY PREDICTED BY IDOCK:   -4.41 KCAL/MOL
REMARK 924 INTRA-LIGAND FREE ENERGY PREDICTED BY IDOCK:   -0.20 KCAL/MOL
REMARK 927      BINDING AFFINITY PREDICTED BY RF-SCORE:    0.00 PKD
ROOT
HETATM    1  C   UNK     1     -10.935   3.129  63.559  1.00  0.00    -0.106 C  
HETATM    2  N   UNK     1     -11.173   4.314  64.352  1.00  0.00    -0.728 NA 
HETATM    3  H   UNK     1     -11.718   5.068  63.936  1.00  0.00     0.000 HD 
HETATM    4  C   UNK     1     -10.714   4.480  65.617  1.00  0.00    -0.118 C  
HETATM    5  N   UNK     1     -11.251   5.590  66.187  1.00  0.00    -0.761 NA 
HETATM    6  N   UNK     1      -9.874   3.723  66.227  1.00  0.00    -0.399 NA 
HETATM    7  H   UNK     1     -12.020   6.081  65.731  1.00  0.00     0.000 HD 
HETATM    8  H2  UNK     1      -9.518   2.919  65.710  1.00  0.00     0.000 HD 
HETATM    9  H1  UNK     1      -9.528   3.847  67.179  1.00  0.00     0.000 HD 
ENDROOT
BRANCH   5  10
HETATM   10  C   UNK     1     -10.719   6.072  67.457  1.00  0.00    -0.301 C  
BRANCH  10  11
HETATM   11  C   UNK     1      -9.886   7.329  67.221  1.00  0.00    -0.224 C  
BRANCH  11  12
HETATM   12  C   UNK     1     -10.770   8.580  67.107  1.00  0.00    -0.209 C  
BRANCH  12  13
HETATM   13  C   UNK     1     -10.261   9.781  67.915  1.00  0.00    -0.194 C  
HETATM   14  C   UNK     1     -11.411  10.767  68.182  1.00  0.00    -0.308 C  
HETATM   15  N   UNK     1      -9.685   9.354  69.220  1.00  0.00    -0.166 NA 
HETATM   16  O   UNK     1     -11.853  11.569  67.379  1.00  0.00    -0.607 OA 
HETATM   17  O   UNK     1     -11.911  10.602  69.437  1.00  0.00    -0.284 OA 
HETATM   18  H1  UNK     1      -9.347  10.152  69.757  1.00  0.00     0.000 HD 
HETATM   19  H2  UNK     1      -8.957   8.652  69.095  1.00  0.00     0.000 HD 
ENDBRANCH  12  13
ENDBRANCH  11  12
ENDBRANCH  10  11
ENDBRANCH   5  10
TORSDOF 4
ENDMDL
MODEL      159
REMARK 921   NORMALIZED FREE ENERGY PREDICTED BY IDOCK:   -3.37 KCAL/MOL
REMARK 922        TOTAL FREE ENERGY PREDICTED BY IDOCK:   -4.60 KCAL/MOL
REMARK 923 INTER-LIGAND FREE ENERGY PREDICTED BY IDOCK:   -3.94 KCAL/MOL
REMARK 924 INTRA-LIGAND FREE ENERGY PREDICTED BY IDOCK:   -0.66 KCAL/MOL
REMARK 927      BINDING AFFINITY PREDICTED BY RF-SCORE:    0.00 PKD
ROOT
HETATM    1  C   UNK     1     -12.830  11.139  71.343  1.00  0.00    -0.439 C  
HETATM    2  N   UNK     1     -12.018  10.125  70.710  1.00  0.00    -0.322 NA 
HETATM    3  H   UNK     1     -12.206   9.149  70.937  1.00  0.00     0.000 HD 
HETATM    4  C   UNK     1     -11.021  10.396  69.831  1.00  0.00    -0.305 C  
HETATM    5  N   UNK     1     -10.566   9.257  69.248  1.00  0.00    -0.224 NA 
HETATM    6  N   UNK     1     -10.535  11.555  69.567  1.00  0.00    -0.439 NA 
HETATM    7  H   UNK     1     -11.070   8.378  69.371  1.00  0.00     0.000 HD 
HETATM    8  H2  UNK     1     -10.937  12.348  70.066  1.00  0.00     0.000 HD 
HETATM    9  H1  UNK     1      -9.785  11.759  68.906  1.00  0.00     0.000 HD 
ENDROOT
BRANCH   5  10
HETATM   10  C   UNK     1      -9.349   9.301  68.444  1.00  0.00    -0.138 C  
BRANCH  10  11
HETATM   11  C   UNK     1      -9.451   8.295  67.301  1.00  0.00    -0.193 C  
BRANCH  11  12
HETATM   12  C   UNK     1      -9.117   6.871  67.769  1.00  0.00    -0.118 C  
BRANCH  12  13
HETATM   13  C   UNK     1     -10.333   5.940  67.853  1.00  0.00    -0.211 C  
HETATM   14  C   UNK     1     -10.570   5.504  69.309  1.00  0.00    -0.255 C  
HETATM   15  N   UNK     1     -11.565   6.606  67.347  1.00  0.00    -0.643 NA 
HETATM   16  O   UNK     1      -9.942   4.642  69.898  1.00  0.00    -0.213 OA 
HETATM   17  O   UNK     1     -11.558   6.243  69.883  1.00  0.00    -0.435 OA 
HETATM   18  H1  UNK     1     -12.373   5.987  67.403  1.00  0.00     0.000 HD 
HETATM   19  H2  UNK     1     -11.434   6.966  66.402  1.00  0.00     0.000 HD 
ENDBRANCH  12  13
ENDBRANCH  11  12
ENDBRANCH  10  11
ENDBRANCH   5  10
TORSDOF 4
ENDMDL
MODEL      160
REMARK 921   NORMALIZED FREE ENERGY PREDICTED BY IDOCK:   -3.36 KCAL/MOL
REMARK 922        TOTAL FREE ENERGY PREDICTED BY IDOCK:   -4.58 KCAL/MOL
REMARK 923 INTER-LIGAND FREE ENERGY PREDICTED BY IDOCK:   -3.89 KCAL/MOL
REMARK 924 INTRA-LIGAND FREE ENERGY PREDICTED BY IDOCK:   -0.68 KCAL/MOL
REMARK 927      BINDING AFFINITY PREDICTED BY RF-SCORE:    0.00 PKD
ROOT
HETATM    1  C   UNK     1     -11.356  16.335  64.778  1.00  0.00    -0.210 C  
HETATM    2  N   UNK     1     -10.782  15.448  65.765  1.00  0.00    -0.335 NA 
HETATM    3  H   UNK     1      -9.838  15.645  66.097  1.00  0.00     0.000 HD 
HETATM    4  C   UNK     1     -11.426  14.369  66.275  1.00  0.00    -0.359 C  
HETATM    5  N   UNK     1     -10.735  13.840  67.318  1.00  0.00    -0.281 NA 
HETATM    6  N   UNK     1     -12.533  13.873  65.851  1.00  0.00    -0.481 NA 
HETATM    7  H   UNK     1      -9.943  14.342  67.718  1.00  0.00     0.000 HD 
HETATM    8  H2  UNK     1     -12.970  14.336  65.054  1.00  0.00     0.000 HD 
HETATM    9  H1  UNK     1     -13.018  13.062  66.234  1.00  0.00     0.000 HD 
ENDROOT
BRANCH   5  10
HETATM   10  C   UNK     1     -11.137  12.547  67.861  1.00  0.00    -0.245 C  
BRANCH  10  11
HETATM   11  C   UNK     1     -10.059  11.507  67.567  1.00  0.00    -0.203 C  
BRANCH  11  12
HETATM   12  C   UNK     1     -10.504  10.525  66.473  1.00  0.00    -0.276 C  
BRANCH  12  13
HETATM   13  C   UNK     1      -9.690  10.624  65.176  1.00  0.00    -0.271 C  
HETATM   14  C   UNK     1     -10.395  11.555  64.176  1.00  0.00    -0.334 C  
HETATM   15  N   UNK     1      -8.320  11.147  65.432  1.00  0.00    -0.377 NA 
HETATM   16  O   UNK     1     -11.351  11.253  63.484  1.00  0.00    -0.314 OA 
HETATM   17  O   UNK     1      -9.835  12.795  64.188  1.00  0.00    -0.208 OA 
HETATM   18  H1  UNK     1      -7.779  11.213  64.570  1.00  0.00     0.000 HD 
HETATM   19  H2  UNK     1      -7.834  10.593  66.137  1.00  0.00     0.000 HD 
ENDBRANCH  12  13
ENDBRANCH  11  12
ENDBRANCH  10  11
ENDBRANCH   5  10
TORSDOF 4
ENDMDL
MODEL      161
REMARK 921   NORMALIZED FREE ENERGY PREDICTED BY IDOCK:   -3.35 KCAL/MOL
REMARK 922        TOTAL FREE ENERGY PREDICTED BY IDOCK:   -4.57 KCAL/MOL
REMARK 923 INTER-LIGAND FREE ENERGY PREDICTED BY IDOCK:   -3.88 KCAL/MOL
REMARK 924 INTRA-LIGAND FREE ENERGY PREDICTED BY IDOCK:   -0.70 KCAL/MOL
REMARK 927      BINDING AFFINITY PREDICTED BY RF-SCORE:    0.00 PKD
ROOT
HETATM    1  C   UNK     1      -6.426  14.626  70.114  1.00  0.00    -0.166 C  
HETATM    2  N   UNK     1      -7.107  15.334  69.054  1.00  0.00    -0.130 NA 
HETATM    3  H   UNK     1      -6.557  15.959  68.464  1.00  0.00     0.000 HD 
HETATM    4  C   UNK     1      -8.433  15.217  68.798  1.00  0.00    -0.180 C  
HETATM    5  N   UNK     1      -8.759  15.835  67.633  1.00  0.00    -0.169 NA 
HETATM    6  N   UNK     1      -9.301  14.623  69.537  1.00  0.00    -0.410 NA 
HETATM    7  H   UNK     1      -8.028  16.166  67.004  1.00  0.00     0.000 HD 
HETATM    8  H2  UNK     1      -8.959  14.199  70.399  1.00  0.00     0.000 HD 
HETATM    9  H1  UNK     1     -10.299  14.535  69.345  1.00  0.00     0.000 HD 
ENDROOT
BRANCH   5  10
HETATM   10  C   UNK     1     -10.165  16.020  67.290  1.00  0.00    -0.277 C  
BRANCH  10  11
HETATM   11  C   UNK     1     -10.640  17.384  67.783  1.00  0.00    -0.371 C  
BRANCH  11  12
HETATM   12  C   UNK     1     -10.194  18.512  66.841  1.00  0.00    -0.411 C  
BRANCH  12  13
HETATM   13  C   UNK     1      -9.361  19.603  67.525  1.00  0.00    -0.328 C  
HETATM   14  C   UNK     1      -7.860  19.314  67.349  1.00  0.00    -0.255 C  
HETATM   15  N   UNK     1      -9.656  20.949  66.960  1.00  0.00    -0.688 NA 
HETATM   16  O   UNK     1      -7.219  18.502  67.992  1.00  0.00    -0.235 OA 
HETATM   17  O   UNK     1      -7.336  20.061  66.340  1.00  0.00    -0.254 OA 
HETATM   18  H1  UNK     1      -9.102  21.674  67.415  1.00  0.00     0.000 HD 
HETATM   19  H2  UNK     1     -10.653  21.160  67.001  1.00  0.00     0.000 HD 
ENDBRANCH  12  13
ENDBRANCH  11  12
ENDBRANCH  10  11
ENDBRANCH   5  10
TORSDOF 4
ENDMDL
MODEL      162
REMARK 921   NORMALIZED FREE ENERGY PREDICTED BY IDOCK:   -3.34 KCAL/MOL
REMARK 922        TOTAL FREE ENERGY PREDICTED BY IDOCK:   -4.56 KCAL/MOL
REMARK 923 INTER-LIGAND FREE ENERGY PREDICTED BY IDOCK:   -4.26 KCAL/MOL
REMARK 924 INTRA-LIGAND FREE ENERGY PREDICTED BY IDOCK:   -0.30 KCAL/MOL
REMARK 927      BINDING AFFINITY PREDICTED BY RF-SCORE:    0.00 PKD
ROOT
HETATM    1  C   UNK     1     -10.598   6.438  67.726  1.00  0.00    -0.266 C  
HETATM    2  N   UNK     1     -11.111   7.784  67.846  1.00  0.00    -0.438 NA 
HETATM    3  H   UNK     1     -12.072   7.905  68.164  1.00  0.00     0.000 HD 
HETATM    4  C   UNK     1     -10.388   8.896  67.560  1.00  0.00    -0.263 C  
HETATM    5  N   UNK     1     -11.048  10.017  67.950  1.00  0.00    -0.464 NA 
HETATM    6  N   UNK     1      -9.239   8.929  66.987  1.00  0.00    -0.133 NA 
HETATM    7  H   UNK     1     -11.884   9.946  68.530  1.00  0.00     0.000 HD 
HETATM    8  H2  UNK     1      -8.830   8.033  66.720  1.00  0.00     0.000 HD 
HETATM    9  H1  UNK     1      -8.695   9.765  66.771  1.00  0.00     0.000 HD 
ENDROOT
BRANCH   5  10
HETATM   10  C   UNK     1     -10.549  11.323  67.533  1.00  0.00    -0.218 C  
BRANCH  10  11
HETATM   11  C   UNK     1     -11.397  11.853  66.380  1.00  0.00    -0.400 C  
BRANCH  11  12
HETATM   12  C   UNK     1     -11.888  13.283  66.649  1.00  0.00    -0.447 C  
BRANCH  12  13
HETATM   13  C   UNK     1     -11.323  13.906  67.932  1.00  0.00    -0.292 C  
HETATM   14  C   UNK     1     -10.415  15.099  67.588  1.00  0.00    -0.253 C  
HETATM   15  N   UNK     1     -12.410  14.378  68.833  1.00  0.00    -0.576 NA 
HETATM   16  O   UNK     1      -9.267  15.019  67.189  1.00  0.00    -0.200 OA 
HETATM   17  O   UNK     1     -11.079  16.277  67.746  1.00  0.00    -0.310 OA 
HETATM   18  H1  UNK     1     -12.033  14.792  69.686  1.00  0.00     0.000 HD 
HETATM   19  H2  UNK     1     -13.073  13.631  69.041  1.00  0.00     0.000 HD 
ENDBRANCH  12  13
ENDBRANCH  11  12
ENDBRANCH  10  11
ENDBRANCH   5  10
TORSDOF 4
ENDMDL
MODEL      163
REMARK 921   NORMALIZED FREE ENERGY PREDICTED BY IDOCK:   -3.33 KCAL/MOL
REMARK 922        TOTAL FREE ENERGY PREDICTED BY IDOCK:   -4.55 KCAL/MOL
REMARK 923 INTER-LIGAND FREE ENERGY PREDICTED BY IDOCK:   -3.98 KCAL/MOL
REMARK 924 INTRA-LIGAND FREE ENERGY PREDICTED BY IDOCK:   -0.56 KCAL/MOL
REMARK 927      BINDING AFFINITY PREDICTED BY RF-SCORE:    0.00 PKD
ROOT
HETATM    1  C   UNK     1     -11.831  13.470  68.134  1.00  0.00    -0.365 C  
HETATM    2  N   UNK     1     -11.941  12.031  68.053  1.00  0.00    -0.521 NA 
HETATM    3  H   UNK     1     -12.835  11.604  68.297  1.00  0.00     0.000 HD 
HETATM    4  C   UNK     1     -10.926  11.217  67.673  1.00  0.00    -0.269 C  
HETATM    5  N   UNK     1     -11.365   9.944  67.497  1.00  0.00    -0.438 NA 
HETATM    6  N   UNK     1      -9.699  11.558  67.505  1.00  0.00    -0.178 NA 
HETATM    7  H   UNK     1     -12.365   9.739  67.496  1.00  0.00     0.000 HD 
HETATM    8  H2  UNK     1      -9.466  12.537  67.673  1.00  0.00     0.000 HD 
HETATM    9  H1  UNK     1      -8.935  10.946  67.219  1.00  0.00     0.000 HD 
ENDROOT
BRANCH   5  10
HETATM   10  C   UNK     1     -10.395   8.870  67.308  1.00  0.00    -0.280 C  
BRANCH  10  11
HETATM   11  C   UNK     1     -10.441   7.919  68.500  1.00  0.00    -0.202 C  
BRANCH  11  12
HETATM   12  C   UNK     1      -9.244   8.131  69.440  1.00  0.00    -0.155 C  
BRANCH  12  13
HETATM   13  C   UNK     1      -9.416   9.304  70.414  1.00  0.00    -0.246 C  
HETATM   14  C   UNK     1      -9.440   8.791  71.864  1.00  0.00    -0.292 C  
HETATM   15  N   UNK     1      -8.311  10.293  70.276  1.00  0.00    -0.368 NA 
HETATM   16  O   UNK     1     -10.396   8.272  72.412  1.00  0.00    -0.284 OA 
HETATM   17  O   UNK     1      -8.227   8.954  72.458  1.00  0.00    -0.384 OA 
HETATM   18  H1  UNK     1      -8.425  11.072  70.924  1.00  0.00     0.000 HD 
HETATM   19  H2  UNK     1      -8.218  10.617  69.314  1.00  0.00     0.000 HD 
ENDBRANCH  12  13
ENDBRANCH  11  12
ENDBRANCH  10  11
ENDBRANCH   5  10
TORSDOF 4
ENDMDL
MODEL      164
REMARK 921   NORMALIZED FREE ENERGY PREDICTED BY IDOCK:   -3.32 KCAL/MOL
REMARK 922        TOTAL FREE ENERGY PREDICTED BY IDOCK:   -4.54 KCAL/MOL
REMARK 923 INTER-LIGAND FREE ENERGY PREDICTED BY IDOCK:   -4.30 KCAL/MOL
REMARK 924 INTRA-LIGAND FREE ENERGY PREDICTED BY IDOCK:   -0.24 KCAL/MOL
REMARK 927      BINDING AFFINITY PREDICTED BY RF-SCORE:    0.00 PKD
ROOT
HETATM    1  C   UNK     1     -12.387  12.213  63.450  1.00  0.00    -0.538 C  
HETATM    2  N   UNK     1     -11.496  13.332  63.660  1.00  0.00    -0.625 NA 
HETATM    3  H   UNK     1     -10.721  13.457  63.009  1.00  0.00     0.000 HD 
HETATM    4  C   UNK     1     -11.631  14.225  64.671  1.00  0.00    -0.408 C  
HETATM    5  N   UNK     1     -10.783  15.274  64.508  1.00  0.00    -0.594 NA 
HETATM    6  N   UNK     1     -12.429  14.125  65.673  1.00  0.00    -0.472 NA 
HETATM    7  H   UNK     1     -10.273  15.393  63.633  1.00  0.00     0.000 HD 
HETATM    8  H2  UNK     1     -13.018  13.294  65.711  1.00  0.00     0.000 HD 
HETATM    9  H1  UNK     1     -12.530  14.797  66.434  1.00  0.00     0.000 HD 
ENDROOT
BRANCH   5  10
HETATM   10  C   UNK     1     -10.608  16.230  65.597  1.00  0.00    -0.346 C  
BRANCH  10  11
HETATM   11  C   UNK     1      -9.332  15.904  66.368  1.00  0.00    -0.329 C  
BRANCH  11  12
HETATM   12  C   UNK     1      -9.626  15.053  67.612  1.00  0.00    -0.203 C  
BRANCH  12  13
HETATM   13  C   UNK     1      -8.463  14.987  68.612  1.00  0.00    -0.168 C  
HETATM   14  C   UNK     1      -7.548  13.795  68.284  1.00  0.00    -0.129 C  
HETATM   15  N   UNK     1      -7.651  16.235  68.585  1.00  0.00    -0.176 NA 
HETATM   16  O   UNK     1      -7.778  12.632  68.564  1.00  0.00    -0.132 OA 
HETATM   17  O   UNK     1      -6.448  14.202  67.594  1.00  0.00    -0.175 OA 
HETATM   18  H1  UNK     1      -6.878  16.191  69.249  1.00  0.00     0.000 HD 
HETATM   19  H2  UNK     1      -8.229  17.060  68.738  1.00  0.00     0.000 HD 
ENDBRANCH  12  13
ENDBRANCH  11  12
ENDBRANCH  10  11
ENDBRANCH   5  10
TORSDOF 4
ENDMDL
MODEL      165
REMARK 921   NORMALIZED FREE ENERGY PREDICTED BY IDOCK:   -3.31 KCAL/MOL
REMARK 922        TOTAL FREE ENERGY PREDICTED BY IDOCK:   -4.52 KCAL/MOL
REMARK 923 INTER-LIGAND FREE ENERGY PREDICTED BY IDOCK:   -4.19 KCAL/MOL
REMARK 924 INTRA-LIGAND FREE ENERGY PREDICTED BY IDOCK:   -0.33 KCAL/MOL
REMARK 927      BINDING AFFINITY PREDICTED BY RF-SCORE:    0.00 PKD
ROOT
HETATM    1  C   UNK     1      -6.249  10.468  67.955  1.00  0.00    -0.054 C  
HETATM    2  N   UNK     1      -6.813  10.875  66.688  1.00  0.00    -0.119 NA 
HETATM    3  H   UNK     1      -6.775  11.864  66.442  1.00  0.00     0.000 HD 
HETATM    4  C   UNK     1      -7.390  10.019  65.809  1.00  0.00    -0.117 C  
HETATM    5  N   UNK     1      -7.649  10.639  64.628  1.00  0.00    -0.353 NA 
HETATM    6  N   UNK     1      -7.681   8.788  66.026  1.00  0.00    -0.096 NA 
HETATM    7  H   UNK     1      -7.274  11.569  64.441  1.00  0.00     0.000 HD 
HETATM    8  H2  UNK     1      -7.457   8.417  66.949  1.00  0.00     0.000 HD 
HETATM    9  H1  UNK     1      -8.115   8.144  65.365  1.00  0.00     0.000 HD 
ENDROOT
BRANCH   5  10
HETATM   10  C   UNK     1      -8.470   9.963  63.629  1.00  0.00    -0.181 C  
BRANCH  10  11
HETATM   11  C   UNK     1      -9.921  10.416  63.762  1.00  0.00    -0.230 C  
BRANCH  11  12
HETATM   12  C   UNK     1     -10.117  11.846  63.239  1.00  0.00    -0.427 C  
BRANCH  12  13
HETATM   13  C   UNK     1     -10.754  12.802  64.257  1.00  0.00    -0.394 C  
HETATM   14  C   UNK     1     -12.204  13.119  63.852  1.00  0.00    -0.433 C  
HETATM   15  N   UNK     1     -10.758  12.216  65.625  1.00  0.00    -0.265 NA 
HETATM   16  O   UNK     1     -12.538  13.909  62.988  1.00  0.00    -0.694 OA 
HETATM   17  O   UNK     1     -13.084  12.362  64.564  1.00  0.00    -0.823 OA 
HETATM   18  H1  UNK     1     -11.181  12.851  66.301  1.00  0.00     0.000 HD 
HETATM   19  H2  UNK     1      -9.821  11.934  65.913  1.00  0.00     0.000 HD 
ENDBRANCH  12  13
ENDBRANCH  11  12
ENDBRANCH  10  11
ENDBRANCH   5  10
TORSDOF 4
ENDMDL
MODEL      166
REMARK 921   NORMALIZED FREE ENERGY PREDICTED BY IDOCK:   -3.29 KCAL/MOL
REMARK 922        TOTAL FREE ENERGY PREDICTED BY IDOCK:   -4.50 KCAL/MOL
REMARK 923 INTER-LIGAND FREE ENERGY PREDICTED BY IDOCK:   -4.35 KCAL/MOL
REMARK 924 INTRA-LIGAND FREE ENERGY PREDICTED BY IDOCK:   -0.15 KCAL/MOL
REMARK 927      BINDING AFFINITY PREDICTED BY RF-SCORE:    0.00 PKD
ROOT
HETATM    1  C   UNK     1     -10.741  14.519  64.631  1.00  0.00    -0.310 C  
HETATM    2  N   UNK     1     -10.442  15.882  65.006  1.00  0.00    -0.559 NA 
HETATM    3  H   UNK     1     -10.047  16.499  64.297  1.00  0.00     0.000 HD 
HETATM    4  C   UNK     1     -10.655  16.388  66.246  1.00  0.00    -0.242 C  
HETATM    5  N   UNK     1     -10.472  17.734  66.259  1.00  0.00    -0.343 NA 
HETATM    6  N   UNK     1     -10.974  15.720  67.296  1.00  0.00    -0.297 NA 
HETATM    7  H   UNK     1     -10.365  18.247  65.384  1.00  0.00     0.000 HD 
HETATM    8  H2  UNK     1     -11.076  14.711  67.187  1.00  0.00     0.000 HD 
HETATM    9  H1  UNK     1     -11.134  16.100  68.229  1.00  0.00     0.000 HD 
ENDROOT
BRANCH   5  10
HETATM   10  C   UNK     1     -10.431  18.440  67.536  1.00  0.00    -0.419 C  
BRANCH  10  11
HETATM   11  C   UNK     1      -9.700  19.768  67.366  1.00  0.00    -0.498 C  
BRANCH  11  12
HETATM   12  C   UNK     1      -8.840  19.782  66.093  1.00  0.00    -0.378 C  
BRANCH  12  13
HETATM   13  C   UNK     1      -7.441  19.182  66.278  1.00  0.00    -0.269 C  
HETATM   14  C   UNK     1      -6.435  19.884  65.351  1.00  0.00    -0.264 C  
HETATM   15  N   UNK     1      -6.971  19.320  67.684  1.00  0.00    -0.215 NA 
HETATM   16  O   UNK     1      -6.306  19.669  64.158  1.00  0.00    -0.365 OA 
HETATM   17  O   UNK     1      -5.721  20.823  66.030  1.00  0.00    -0.190 OA 
HETATM   18  H1  UNK     1      -6.040  18.921  67.807  1.00  0.00     0.000 HD 
HETATM   19  H2  UNK     1      -7.639  18.919  68.342  1.00  0.00     0.000 HD 
ENDBRANCH  12  13
ENDBRANCH  11  12
ENDBRANCH  10  11
ENDBRANCH   5  10
TORSDOF 4
ENDMDL
MODEL      167
REMARK 921   NORMALIZED FREE ENERGY PREDICTED BY IDOCK:   -3.29 KCAL/MOL
REMARK 922        TOTAL FREE ENERGY PREDICTED BY IDOCK:   -4.50 KCAL/MOL
REMARK 923 INTER-LIGAND FREE ENERGY PREDICTED BY IDOCK:   -3.86 KCAL/MOL
REMARK 924 INTRA-LIGAND FREE ENERGY PREDICTED BY IDOCK:   -0.64 KCAL/MOL
REMARK 927      BINDING AFFINITY PREDICTED BY RF-SCORE:    0.00 PKD
ROOT
HETATM    1  C   UNK     1     -12.762  10.445  70.940  1.00  0.00    -0.385 C  
HETATM    2  N   UNK     1     -11.727   9.723  70.235  1.00  0.00    -0.398 NA 
HETATM    3  H   UNK     1     -11.780   8.705  70.216  1.00  0.00     0.000 HD 
HETATM    4  C   UNK     1     -10.690  10.320  69.597  1.00  0.00    -0.264 C  
HETATM    5  N   UNK     1      -9.990   9.419  68.860  1.00  0.00    -0.174 NA 
HETATM    6  N   UNK     1     -10.368  11.562  69.665  1.00  0.00    -0.347 NA 
HETATM    7  H   UNK     1     -10.357   8.479  68.713  1.00  0.00     0.000 HD 
HETATM    8  H2  UNK     1     -10.950  12.157  70.256  1.00  0.00     0.000 HD 
HETATM    9  H1  UNK     1      -9.588  12.012  69.186  1.00  0.00     0.000 HD 
ENDROOT
BRANCH   5  10
HETATM   10  C   UNK     1      -8.709   9.809  68.279  1.00  0.00    -0.119 C  
BRANCH  10  11
HETATM   11  C   UNK     1      -8.651   9.369  66.819  1.00  0.00    -0.134 C  
BRANCH  11  12
HETATM   12  C   UNK     1     -10.033   9.439  66.152  1.00  0.00    -0.351 C  
BRANCH  12  13
HETATM   13  C   UNK     1     -10.288  10.739  65.378  1.00  0.00    -0.247 C  
HETATM   14  C   UNK     1     -10.956  11.780  66.293  1.00  0.00    -0.300 C  
HETATM   15  N   UNK     1      -9.022  11.314  64.847  1.00  0.00    -0.381 NA 
HETATM   16  O   UNK     1     -12.136  11.798  66.597  1.00  0.00    -0.527 OA 
HETATM   17  O   UNK     1     -10.042  12.671  66.764  1.00  0.00    -0.230 OA 
HETATM   18  H1  UNK     1      -9.191  12.178  64.333  1.00  0.00     0.000 HD 
HETATM   19  H2  UNK     1      -8.512  10.636  64.281  1.00  0.00     0.000 HD 
ENDBRANCH  12  13
ENDBRANCH  11  12
ENDBRANCH  10  11
ENDBRANCH   5  10
TORSDOF 4
ENDMDL
MODEL      168
REMARK 921   NORMALIZED FREE ENERGY PREDICTED BY IDOCK:   -3.28 KCAL/MOL
REMARK 922        TOTAL FREE ENERGY PREDICTED BY IDOCK:   -4.48 KCAL/MOL
REMARK 923 INTER-LIGAND FREE ENERGY PREDICTED BY IDOCK:   -4.33 KCAL/MOL
REMARK 924 INTRA-LIGAND FREE ENERGY PREDICTED BY IDOCK:   -0.16 KCAL/MOL
REMARK 927      BINDING AFFINITY PREDICTED BY RF-SCORE:    0.00 PKD
ROOT
HETATM    1  C   UNK     1     -12.155  11.098  69.277  1.00  0.00    -0.308 C  
HETATM    2  N   UNK     1     -11.790  11.803  68.070  1.00  0.00    -0.546 NA 
HETATM    3  H   UNK     1     -12.414  11.734  67.266  1.00  0.00     0.000 HD 
HETATM    4  C   UNK     1     -10.666  12.552  67.943  1.00  0.00    -0.217 C  
HETATM    5  N   UNK     1     -10.679  13.254  66.781  1.00  0.00    -0.275 NA 
HETATM    6  N   UNK     1      -9.691  12.607  68.778  1.00  0.00    -0.419 NA 
HETATM    7  H   UNK     1     -11.528  13.300  66.217  1.00  0.00     0.000 HD 
HETATM    8  H2  UNK     1      -9.770  12.032  69.617  1.00  0.00     0.000 HD 
HETATM    9  H1  UNK     1      -8.846  13.169  68.683  1.00  0.00     0.000 HD 
ENDROOT
BRANCH   5  10
HETATM   10  C   UNK     1      -9.469  13.944  66.347  1.00  0.00    -0.250 C  
BRANCH  10  11
HETATM   11  C   UNK     1      -9.725  15.447  66.290  1.00  0.00    -0.325 C  
BRANCH  11  12
HETATM   12  C   UNK     1      -8.413  16.241  66.212  1.00  0.00    -0.369 C  
BRANCH  12  13
HETATM   13  C   UNK     1      -8.524  17.683  66.726  1.00  0.00    -0.251 C  
HETATM   14  C   UNK     1      -7.191  18.423  66.525  1.00  0.00    -0.229 C  
HETATM   15  N   UNK     1      -9.598  18.432  66.018  1.00  0.00    -0.507 NA 
HETATM   16  O   UNK     1      -6.206  18.308  67.233  1.00  0.00    -0.165 OA 
HETATM   17  O   UNK     1      -7.233  19.206  65.412  1.00  0.00    -0.466 OA 
HETATM   18  H1  UNK     1      -9.672  19.390  66.360  1.00  0.00     0.000 HD 
HETATM   19  H2  UNK     1     -10.492  17.945  66.074  1.00  0.00     0.000 HD 
ENDBRANCH  12  13
ENDBRANCH  11  12
ENDBRANCH  10  11
ENDBRANCH   5  10
TORSDOF 4
ENDMDL
MODEL      169
REMARK 921   NORMALIZED FREE ENERGY PREDICTED BY IDOCK:   -3.27 KCAL/MOL
REMARK 922        TOTAL FREE ENERGY PREDICTED BY IDOCK:   -4.47 KCAL/MOL
REMARK 923 INTER-LIGAND FREE ENERGY PREDICTED BY IDOCK:   -4.31 KCAL/MOL
REMARK 924 INTRA-LIGAND FREE ENERGY PREDICTED BY IDOCK:   -0.16 KCAL/MOL
REMARK 927      BINDING AFFINITY PREDICTED BY RF-SCORE:    0.00 PKD
ROOT
HETATM    1  C   UNK     1     -10.512  15.891  65.512  1.00  0.00    -0.404 C  
HETATM    2  N   UNK     1     -10.394  14.837  66.494  1.00  0.00    -0.279 NA 
HETATM    3  H   UNK     1      -9.463  14.609  66.843  1.00  0.00     0.000 HD 
HETATM    4  C   UNK     1     -11.448  14.134  66.977  1.00  0.00    -0.352 C  
HETATM    5  N   UNK     1     -11.071  13.353  68.023  1.00  0.00    -0.246 NA 
HETATM    6  N   UNK     1     -12.651  14.162  66.529  1.00  0.00    -0.519 NA 
HETATM    7  H   UNK     1     -10.149  13.465  68.443  1.00  0.00     0.000 HD 
HETATM    8  H2  UNK     1     -12.832  14.773  65.732  1.00  0.00     0.000 HD 
HETATM    9  H1  UNK     1     -13.444  13.634  66.892  1.00  0.00     0.000 HD 
ENDROOT
BRANCH   5  10
HETATM   10  C   UNK     1     -11.999  12.352  68.540  1.00  0.00    -0.223 C  
BRANCH  10  11
HETATM   11  C   UNK     1     -11.217  11.174  69.115  1.00  0.00    -0.328 C  
BRANCH  11  12
HETATM   12  C   UNK     1     -11.865  10.640  70.402  1.00  0.00    -0.441 C  
BRANCH  12  13
HETATM   13  C   UNK     1     -10.985   9.653  71.179  1.00  0.00    -0.360 C  
HETATM   14  C   UNK     1     -11.591   8.240  71.119  1.00  0.00    -0.279 C  
HETATM   15  N   UNK     1      -9.603   9.603  70.628  1.00  0.00    -0.322 NA 
HETATM   16  O   UNK     1     -12.528   7.845  71.791  1.00  0.00    -0.304 OA 
HETATM   17  O   UNK     1     -10.968   7.483  70.176  1.00  0.00    -0.257 OA 
HETATM   18  H1  UNK     1      -9.019   8.946  71.145  1.00  0.00     0.000 HD 
HETATM   19  H2  UNK     1      -9.182  10.531  70.592  1.00  0.00     0.000 HD 
ENDBRANCH  12  13
ENDBRANCH  11  12
ENDBRANCH  10  11
ENDBRANCH   5  10
TORSDOF 4
ENDMDL
MODEL      170
REMARK 921   NORMALIZED FREE ENERGY PREDICTED BY IDOCK:   -3.27 KCAL/MOL
REMARK 922        TOTAL FREE ENERGY PREDICTED BY IDOCK:   -4.47 KCAL/MOL
REMARK 923 INTER-LIGAND FREE ENERGY PREDICTED BY IDOCK:   -4.30 KCAL/MOL
REMARK 924 INTRA-LIGAND FREE ENERGY PREDICTED BY IDOCK:   -0.18 KCAL/MOL
REMARK 927      BINDING AFFINITY PREDICTED BY RF-SCORE:    0.00 PKD
ROOT
HETATM    1  C   UNK     1      -5.408  13.958  71.412  1.00  0.00    -0.196 C  
HETATM    2  N   UNK     1      -6.554  13.832  70.540  1.00  0.00    -0.390 NA 
HETATM    3  H   UNK     1      -7.199  13.059  70.704  1.00  0.00     0.000 HD 
HETATM    4  C   UNK     1      -6.822  14.682  69.518  1.00  0.00    -0.165 C  
HETATM    5  N   UNK     1      -8.055  14.445  69.000  1.00  0.00    -0.299 NA 
HETATM    6  N   UNK     1      -6.039  15.592  69.060  1.00  0.00    -0.103 NA 
HETATM    7  H   UNK     1      -8.703  13.819  69.479  1.00  0.00     0.000 HD 
HETATM    8  H2  UNK     1      -5.128  15.684  69.509  1.00  0.00     0.000 HD 
HETATM    9  H1  UNK     1      -6.240  16.231  68.291  1.00  0.00     0.000 HD 
ENDROOT
BRANCH   5  10
HETATM   10  C   UNK     1      -8.446  15.094  67.753  1.00  0.00    -0.150 C  
BRANCH  10  11
HETATM   11  C   UNK     1      -9.920  15.486  67.817  1.00  0.00    -0.222 C  
BRANCH  11  12
HETATM   12  C   UNK     1     -10.631  15.228  66.480  1.00  0.00    -0.304 C  
BRANCH  12  13
HETATM   13  C   UNK     1     -12.035  14.628  66.626  1.00  0.00    -0.275 C  
HETATM   14  C   UNK     1     -12.305  13.624  65.491  1.00  0.00    -0.482 C  
HETATM   15  N   UNK     1     -12.196  13.928  67.930  1.00  0.00    -0.483 NA 
HETATM   16  O   UNK     1     -12.612  13.917  64.349  1.00  0.00    -0.647 OA 
HETATM   17  O   UNK     1     -12.114  12.346  65.917  1.00  0.00    -0.580 OA 
HETATM   18  H1  UNK     1     -13.130  13.529  68.026  1.00  0.00     0.000 HD 
HETATM   19  H2  UNK     1     -11.968  14.540  68.713  1.00  0.00     0.000 HD 
ENDBRANCH  12  13
ENDBRANCH  11  12
ENDBRANCH  10  11
ENDBRANCH   5  10
TORSDOF 4
ENDMDL
MODEL      171
REMARK 921   NORMALIZED FREE ENERGY PREDICTED BY IDOCK:   -3.27 KCAL/MOL
REMARK 922        TOTAL FREE ENERGY PREDICTED BY IDOCK:   -4.47 KCAL/MOL
REMARK 923 INTER-LIGAND FREE ENERGY PREDICTED BY IDOCK:   -4.22 KCAL/MOL
REMARK 924 INTRA-LIGAND FREE ENERGY PREDICTED BY IDOCK:   -0.24 KCAL/MOL
REMARK 927      BINDING AFFINITY PREDICTED BY RF-SCORE:    0.00 PKD
ROOT
HETATM    1  C   UNK     1     -11.092   5.985  70.323  1.00  0.00    -0.345 C  
HETATM    2  N   UNK     1     -11.324   6.812  69.161  1.00  0.00    -0.562 NA 
HETATM    3  H   UNK     1     -12.289   7.026  68.909  1.00  0.00     0.000 HD 
HETATM    4  C   UNK     1     -10.334   7.319  68.386  1.00  0.00    -0.185 C  
HETATM    5  N   UNK     1     -10.828   8.214  67.491  1.00  0.00    -0.510 NA 
HETATM    6  N   UNK     1      -9.088   7.013  68.446  1.00  0.00    -0.128 NA 
HETATM    7  H   UNK     1     -11.792   8.540  67.568  1.00  0.00     0.000 HD 
HETATM    8  H2  UNK     1      -8.817   6.321  69.145  1.00  0.00     0.000 HD 
HETATM    9  H1  UNK     1      -8.343   7.395  67.864  1.00  0.00     0.000 HD 
ENDROOT
BRANCH   5  10
HETATM   10  C   UNK     1      -9.969   8.705  66.419  1.00  0.00    -0.260 C  
BRANCH  10  11
HETATM   11  C   UNK     1      -9.634  10.174  66.659  1.00  0.00    -0.230 C  
BRANCH  11  12
HETATM   12  C   UNK     1     -10.903  11.037  66.741  1.00  0.00    -0.307 C  
BRANCH  12  13
HETATM   13  C   UNK     1     -11.013  12.091  65.631  1.00  0.00    -0.297 C  
HETATM   14  C   UNK     1     -10.997  13.504  66.238  1.00  0.00    -0.289 C  
HETATM   15  N   UNK     1      -9.893  11.976  64.658  1.00  0.00    -0.416 NA 
HETATM   16  O   UNK     1     -11.944  14.053  66.773  1.00  0.00    -0.402 OA 
HETATM   17  O   UNK     1      -9.759  14.062  66.138  1.00  0.00    -0.293 OA 
HETATM   18  H1  UNK     1      -9.966  12.677  63.921  1.00  0.00     0.000 HD 
HETATM   19  H2  UNK     1      -9.827  11.034  64.273  1.00  0.00     0.000 HD 
ENDBRANCH  12  13
ENDBRANCH  11  12
ENDBRANCH  10  11
ENDBRANCH   5  10
TORSDOF 4
ENDMDL
MODEL      172
REMARK 921   NORMALIZED FREE ENERGY PREDICTED BY IDOCK:   -3.25 KCAL/MOL
REMARK 922        TOTAL FREE ENERGY PREDICTED BY IDOCK:   -4.45 KCAL/MOL
REMARK 923 INTER-LIGAND FREE ENERGY PREDICTED BY IDOCK:   -4.22 KCAL/MOL
REMARK 924 INTRA-LIGAND FREE ENERGY PREDICTED BY IDOCK:   -0.23 KCAL/MOL
REMARK 927      BINDING AFFINITY PREDICTED BY RF-SCORE:    0.00 PKD
ROOT
HETATM    1  C   UNK     1      -9.734   7.660  72.951  1.00  0.00    -0.226 C  
HETATM    2  N   UNK     1      -9.836   8.766  72.026  1.00  0.00    -0.319 NA 
HETATM    3  H   UNK     1      -8.973   9.196  71.694  1.00  0.00     0.000 HD 
HETATM    4  C   UNK     1     -11.013   9.265  71.574  1.00  0.00    -0.375 C  
HETATM    5  N   UNK     1     -10.808  10.160  70.573  1.00  0.00    -0.355 NA 
HETATM    6  N   UNK     1     -12.183   8.971  72.014  1.00  0.00    -0.369 NA 
HETATM    7  H   UNK     1      -9.884  10.259  70.153  1.00  0.00     0.000 HD 
HETATM    8  H2  UNK     1     -12.233   8.296  72.777  1.00  0.00     0.000 HD 
HETATM    9  H1  UNK     1     -13.069   9.346  71.674  1.00  0.00     0.000 HD 
ENDROOT
BRANCH   5  10
HETATM   10  C   UNK     1     -11.922  10.978  70.103  1.00  0.00    -0.360 C  
BRANCH  10  11
HETATM   11  C   UNK     1     -11.424  12.381  69.767  1.00  0.00    -0.220 C  
BRANCH  11  12
HETATM   12  C   UNK     1     -12.255  13.021  68.645  1.00  0.00    -0.037 C  
BRANCH  12  13
HETATM   13  C   UNK     1     -11.451  13.344  67.379  1.00  0.00    -0.333 C  
HETATM   14  C   UNK     1     -11.638  12.232  66.332  1.00  0.00    -0.383 C  
HETATM   15  N   UNK     1     -11.874  14.639  66.780  1.00  0.00    -0.357 NA 
HETATM   16  O   UNK     1     -11.076  11.151  66.344  1.00  0.00    -0.247 OA 
HETATM   17  O   UNK     1     -12.558  12.595  65.397  1.00  0.00    -0.641 OA 
HETATM   18  H1  UNK     1     -11.340  14.854  65.938  1.00  0.00     0.000 HD 
HETATM   19  H2  UNK     1     -11.824  15.399  67.459  1.00  0.00     0.000 HD 
ENDBRANCH  12  13
ENDBRANCH  11  12
ENDBRANCH  10  11
ENDBRANCH   5  10
TORSDOF 4
ENDMDL
MODEL      173
REMARK 921   NORMALIZED FREE ENERGY PREDICTED BY IDOCK:   -3.24 KCAL/MOL
REMARK 922        TOTAL FREE ENERGY PREDICTED BY IDOCK:   -4.43 KCAL/MOL
REMARK 923 INTER-LIGAND FREE ENERGY PREDICTED BY IDOCK:   -4.25 KCAL/MOL
REMARK 924 INTRA-LIGAND FREE ENERGY PREDICTED BY IDOCK:   -0.18 KCAL/MOL
REMARK 927      BINDING AFFINITY PREDICTED BY RF-SCORE:    0.00 PKD
ROOT
HETATM    1  C   UNK     1      -6.257  19.653  69.839  1.00  0.00    -0.321 C  
HETATM    2  N   UNK     1      -6.472  18.732  68.746  1.00  0.00    -0.243 NA 
HETATM    3  H   UNK     1      -5.843  18.783  67.945  1.00  0.00     0.000 HD 
HETATM    4  C   UNK     1      -7.461  17.805  68.724  1.00  0.00    -0.263 C  
HETATM    5  N   UNK     1      -7.304  16.953  67.678  1.00  0.00    -0.149 NA 
HETATM    6  N   UNK     1      -8.440  17.717  69.551  1.00  0.00     0.510 NA 
HETATM    7  H   UNK     1      -6.443  16.962  67.131  1.00  0.00     0.000 HD 
HETATM    8  H2  UNK     1      -8.477  18.411  70.298  1.00  0.00     0.000 HD 
HETATM    9  H1  UNK     1      -9.184  17.020  69.535  1.00  0.00     0.000 HD 
ENDROOT
BRANCH   5  10
HETATM   10  C   UNK     1      -8.379  16.025  67.341  1.00  0.00    -0.167 C  
BRANCH  10  11
HETATM   11  C   UNK     1      -9.126  16.528  66.109  1.00  0.00    -0.342 C  
BRANCH  11  12
HETATM   12  C   UNK     1     -10.541  15.936  66.026  1.00  0.00    -0.331 C  
BRANCH  12  13
HETATM   13  C   UNK     1     -10.836  15.207  64.709  1.00  0.00    -0.357 C  
HETATM   14  C   UNK     1     -11.422  13.813  64.993  1.00  0.00    -0.332 C  
HETATM   15  N   UNK     1     -11.801  15.968  63.868  1.00  0.00    -1.338 NA 
HETATM   16  O   UNK     1     -10.780  12.833  65.325  1.00  0.00    -0.282 OA 
HETATM   17  O   UNK     1     -12.777  13.820  64.866  1.00  0.00    -0.637 OA 
HETATM   18  H1  UNK     1     -11.997  15.483  62.993  1.00  0.00     0.000 HD 
HETATM   19  H2  UNK     1     -11.481  16.922  63.704  1.00  0.00     0.000 HD 
ENDBRANCH  12  13
ENDBRANCH  11  12
ENDBRANCH  10  11
ENDBRANCH   5  10
TORSDOF 4
ENDMDL
MODEL      174
REMARK 921   NORMALIZED FREE ENERGY PREDICTED BY IDOCK:   -3.23 KCAL/MOL
REMARK 922        TOTAL FREE ENERGY PREDICTED BY IDOCK:   -4.42 KCAL/MOL
REMARK 923 INTER-LIGAND FREE ENERGY PREDICTED BY IDOCK:   -4.02 KCAL/MOL
REMARK 924 INTRA-LIGAND FREE ENERGY PREDICTED BY IDOCK:   -0.40 KCAL/MOL
REMARK 927      BINDING AFFINITY PREDICTED BY RF-SCORE:    0.00 PKD
ROOT
HETATM    1  C   UNK     1     -11.885  15.278  64.405  1.00  0.00    -0.281 C  
HETATM    2  N   UNK     1     -11.722  13.996  65.053  1.00  0.00    -0.347 NA 
HETATM    3  H   UNK     1     -12.243  13.823  65.913  1.00  0.00     0.000 HD 
HETATM    4  C   UNK     1     -10.917  13.010  64.585  1.00  0.00    -0.342 C  
HETATM    5  N   UNK     1     -11.111  11.857  65.276  1.00  0.00    -0.306 NA 
HETATM    6  N   UNK     1     -10.064  13.114  63.631  1.00  0.00    -0.611 NA 
HETATM    7  H   UNK     1     -11.894  11.770  65.924  1.00  0.00     0.000 HD 
HETATM    8  H2  UNK     1      -9.984  14.026  63.181  1.00  0.00     0.000 HD 
HETATM    9  H1  UNK     1      -9.458  12.373  63.278  1.00  0.00     0.000 HD 
ENDROOT
BRANCH   5  10
HETATM   10  C   UNK     1     -10.189  10.742  65.083  1.00  0.00    -0.298 C  
BRANCH  10  11
HETATM   11  C   UNK     1      -9.578  10.342  66.422  1.00  0.00    -0.233 C  
BRANCH  11  12
HETATM   12  C   UNK     1     -10.154   9.012  66.931  1.00  0.00    -0.338 C  
BRANCH  12  13
HETATM   13  C   UNK     1     -11.146   9.164  68.091  1.00  0.00     0.168 C  
HETATM   14  C   UNK     1     -10.425   8.967  69.436  1.00  0.00    -0.222 C  
HETATM   15  N   UNK     1     -11.788  10.508  68.086  1.00  0.00    -0.774 NA 
HETATM   16  O   UNK     1     -10.115   7.893  69.919  1.00  0.00    -0.190 OA 
HETATM   17  O   UNK     1     -10.134  10.166  70.012  1.00  0.00    -0.247 OA 
HETATM   18  H1  UNK     1     -12.447  10.609  68.858  1.00  0.00     0.000 HD 
HETATM   19  H2  UNK     1     -12.228  10.707  67.189  1.00  0.00     0.000 HD 
ENDBRANCH  12  13
ENDBRANCH  11  12
ENDBRANCH  10  11
ENDBRANCH   5  10
TORSDOF 4
ENDMDL
MODEL      175
REMARK 921   NORMALIZED FREE ENERGY PREDICTED BY IDOCK:   -3.22 KCAL/MOL
REMARK 922        TOTAL FREE ENERGY PREDICTED BY IDOCK:   -4.41 KCAL/MOL
REMARK 923 INTER-LIGAND FREE ENERGY PREDICTED BY IDOCK:   -4.24 KCAL/MOL
REMARK 924 INTRA-LIGAND FREE ENERGY PREDICTED BY IDOCK:   -0.17 KCAL/MOL
REMARK 927      BINDING AFFINITY PREDICTED BY RF-SCORE:    0.00 PKD
ROOT
HETATM    1  C   UNK     1     -12.414  11.324  70.155  1.00  0.00    -0.221 C  
HETATM    2  N   UNK     1     -11.458  12.305  69.693  1.00  0.00    -0.453 NA 
HETATM    3  H   UNK     1     -10.522  11.984  69.448  1.00  0.00     0.000 HD 
HETATM    4  C   UNK     1     -11.735  13.626  69.565  1.00  0.00    -0.322 C  
HETATM    5  N   UNK     1     -10.726  14.273  68.926  1.00  0.00    -0.254 NA 
HETATM    6  N   UNK     1     -12.789  14.227  69.988  1.00  0.00    -0.447 NA 
HETATM    7  H   UNK     1      -9.978  13.745  68.477  1.00  0.00     0.000 HD 
HETATM    8  H2  UNK     1     -13.485  13.655  70.466  1.00  0.00     0.000 HD 
HETATM    9  H1  UNK     1     -12.997  15.221  69.892  1.00  0.00     0.000 HD 
ENDROOT
BRANCH   5  10
HETATM   10  C   UNK     1     -10.722  15.732  68.887  1.00  0.00    -0.248 C  
BRANCH  10  11
HETATM   11  C   UNK     1     -10.459  16.208  67.461  1.00  0.00    -0.302 C  
BRANCH  11  12
HETATM   12  C   UNK     1     -10.751  17.708  67.303  1.00  0.00    -0.234 C  
BRANCH  12  13
HETATM   13  C   UNK     1      -9.509  18.557  67.002  1.00  0.00    -0.288 C  
HETATM   14  C   UNK     1      -9.926  19.956  66.519  1.00  0.00    -0.474 C  
HETATM   15  N   UNK     1      -8.646  18.706  68.207  1.00  0.00    -0.312 NA 
HETATM   16  O   UNK     1     -10.312  20.228  65.396  1.00  0.00    -0.272 OA 
HETATM   17  O   UNK     1      -9.849  20.863  67.531  1.00  0.00    -0.414 OA 
HETATM   18  H1  UNK     1      -7.821  19.270  68.007  1.00  0.00     0.000 HD 
HETATM   19  H2  UNK     1      -8.394  17.799  68.599  1.00  0.00     0.000 HD 
ENDBRANCH  12  13
ENDBRANCH  11  12
ENDBRANCH  10  11
ENDBRANCH   5  10
TORSDOF 4
ENDMDL
MODEL      176
REMARK 921   NORMALIZED FREE ENERGY PREDICTED BY IDOCK:   -3.21 KCAL/MOL
REMARK 922        TOTAL FREE ENERGY PREDICTED BY IDOCK:   -4.40 KCAL/MOL
REMARK 923 INTER-LIGAND FREE ENERGY PREDICTED BY IDOCK:   -3.94 KCAL/MOL
REMARK 924 INTRA-LIGAND FREE ENERGY PREDICTED BY IDOCK:   -0.46 KCAL/MOL
REMARK 927      BINDING AFFINITY PREDICTED BY RF-SCORE:    0.00 PKD
ROOT
HETATM    1  C   UNK     1     -13.542   8.985  72.352  1.00  0.00    -0.477 C  
HETATM    2  N   UNK     1     -13.085   8.229  71.208  1.00  0.00    -0.502 NA 
HETATM    3  H   UNK     1     -13.470   8.462  70.293  1.00  0.00     0.000 HD 
HETATM    4  C   UNK     1     -12.175   7.226  71.282  1.00  0.00    -0.354 C  
HETATM    5  N   UNK     1     -11.788   6.831  70.042  1.00  0.00    -0.641 NA 
HETATM    6  N   UNK     1     -11.725   6.685  72.356  1.00  0.00    -0.429 NA 
HETATM    7  H   UNK     1     -12.052   7.376  69.221  1.00  0.00     0.000 HD 
HETATM    8  H2  UNK     1     -12.087   7.044  73.240  1.00  0.00     0.000 HD 
HETATM    9  H1  UNK     1     -11.041   5.930  72.412  1.00  0.00     0.000 HD 
ENDROOT
BRANCH   5  10
HETATM   10  C   UNK     1     -10.989   5.618  69.893  1.00  0.00    -0.239 C  
BRANCH  10  11
HETATM   11  C   UNK     1      -9.751   5.918  69.052  1.00  0.00    -0.170 C  
BRANCH  11  12
HETATM   12  C   UNK     1      -9.253   7.354  69.270  1.00  0.00    -0.147 C  
BRANCH  12  13
HETATM   13  C   UNK     1      -8.323   7.516  70.480  1.00  0.00    -0.131 C  
HETATM   14  C   UNK     1      -8.534   8.892  71.132  1.00  0.00    -0.198 C  
HETATM   15  N   UNK     1      -8.569   6.461  71.501  1.00  0.00    -0.130 NA 
HETATM   16  O   UNK     1      -8.083   9.946  70.718  1.00  0.00    -0.212 OA 
HETATM   17  O   UNK     1      -9.336   8.794  72.227  1.00  0.00    -0.314 OA 
HETATM   18  H1  UNK     1      -7.951   6.568  72.304  1.00  0.00     0.000 HD 
HETATM   19  H2  UNK     1      -8.499   5.527  71.097  1.00  0.00     0.000 HD 
ENDBRANCH  12  13
ENDBRANCH  11  12
ENDBRANCH  10  11
ENDBRANCH   5  10
TORSDOF 4
ENDMDL
MODEL      177
REMARK 921   NORMALIZED FREE ENERGY PREDICTED BY IDOCK:   -3.21 KCAL/MOL
REMARK 922        TOTAL FREE ENERGY PREDICTED BY IDOCK:   -4.39 KCAL/MOL
REMARK 923 INTER-LIGAND FREE ENERGY PREDICTED BY IDOCK:   -3.84 KCAL/MOL
REMARK 924 INTRA-LIGAND FREE ENERGY PREDICTED BY IDOCK:   -0.55 KCAL/MOL
REMARK 927      BINDING AFFINITY PREDICTED BY RF-SCORE:    0.00 PKD
ROOT
HETATM    1  C   UNK     1      -8.653  10.399  68.081  1.00  0.00    -0.125 C  
HETATM    2  N   UNK     1      -8.587  11.518  67.169  1.00  0.00    -0.150 NA 
HETATM    3  H   UNK     1      -7.771  11.595  66.562  1.00  0.00     0.000 HD 
HETATM    4  C   UNK     1      -9.546  12.472  67.075  1.00  0.00    -0.216 C  
HETATM    5  N   UNK     1      -9.321  13.282  66.008  1.00  0.00    -0.481 NA 
HETATM    6  N   UNK     1     -10.540  12.633  67.872  1.00  0.00    -0.215 NA 
HETATM    7  H   UNK     1      -8.611  13.038  65.317  1.00  0.00     0.000 HD 
HETATM    8  H2  UNK     1     -10.616  11.980  68.652  1.00  0.00     0.000 HD 
HETATM    9  H1  UNK     1     -11.261  13.351  67.801  1.00  0.00     0.000 HD 
ENDROOT
BRANCH   5  10
HETATM   10  C   UNK     1     -10.104  14.504  65.858  1.00  0.00    -0.326 C  
BRANCH  10  11
HETATM   11  C   UNK     1      -9.241  15.714  66.202  1.00  0.00    -0.378 C  
BRANCH  11  12
HETATM   12  C   UNK     1      -9.341  16.075  67.692  1.00  0.00    -0.214 C  
BRANCH  12  13
HETATM   13  C   UNK     1     -10.655  16.764  68.081  1.00  0.00    -0.350 C  
HETATM   14  C   UNK     1     -11.481  15.851  69.003  1.00  0.00    -0.380 C  
HETATM   15  N   UNK     1     -10.408  18.053  68.783  1.00  0.00    -0.390 NA 
HETATM   16  O   UNK     1     -12.154  14.902  68.638  1.00  0.00    -0.266 OA 
HETATM   17  O   UNK     1     -11.333  16.214  70.306  1.00  0.00    -0.352 OA 
HETATM   18  H1  UNK     1     -11.282  18.511  69.041  1.00  0.00     0.000 HD 
HETATM   19  H2  UNK     1      -9.811  18.670  68.232  1.00  0.00     0.000 HD 
ENDBRANCH  12  13
ENDBRANCH  11  12
ENDBRANCH  10  11
ENDBRANCH   5  10
TORSDOF 4
ENDMDL
MODEL      178
REMARK 921   NORMALIZED FREE ENERGY PREDICTED BY IDOCK:   -3.20 KCAL/MOL
REMARK 922        TOTAL FREE ENERGY PREDICTED BY IDOCK:   -4.38 KCAL/MOL
REMARK 923 INTER-LIGAND FREE ENERGY PREDICTED BY IDOCK:   -4.30 KCAL/MOL
REMARK 924 INTRA-LIGAND FREE ENERGY PREDICTED BY IDOCK:   -0.09 KCAL/MOL
REMARK 927      BINDING AFFINITY PREDICTED BY RF-SCORE:    0.00 PKD
ROOT
HETATM    1  C   UNK     1      -5.830   7.756  63.931  1.00  0.00    -0.053 C  
HETATM    2  N   UNK     1      -6.713   8.782  64.438  1.00  0.00    -0.071 NA 
HETATM    3  H   UNK     1      -6.362   9.399  65.170  1.00  0.00     0.000 HD 
HETATM    4  C   UNK     1      -7.981   8.973  63.996  1.00  0.00    -0.145 C  
HETATM    5  N   UNK     1      -8.503  10.122  64.500  1.00  0.00    -0.169 NA 
HETATM    6  N   UNK     1      -8.641   8.193  63.218  1.00  0.00    -0.408 NA 
HETATM    7  H   UNK     1      -7.905  10.786  64.992  1.00  0.00     0.000 HD 
HETATM    8  H2  UNK     1      -8.166   7.348  62.902  1.00  0.00     0.000 HD 
HETATM    9  H1  UNK     1      -9.595   8.336  62.886  1.00  0.00     0.000 HD 
ENDROOT
BRANCH   5  10
HETATM   10  C   UNK     1      -9.926  10.397  64.332  1.00  0.00    -0.318 C  
BRANCH  10  11
HETATM   11  C   UNK     1     -10.110  11.669  63.509  1.00  0.00    -0.455 C  
BRANCH  11  12
HETATM   12  C   UNK     1     -10.083  12.924  64.395  1.00  0.00    -0.265 C  
BRANCH  12  13
HETATM   13  C   UNK     1     -11.434  13.263  65.038  1.00  0.00    -0.305 C  
HETATM   14  C   UNK     1     -11.732  14.764  64.888  1.00  0.00    -0.390 C  
HETATM   15  N   UNK     1     -12.544  12.491  64.414  1.00  0.00    -0.649 NA 
HETATM   16  O   UNK     1     -11.250  15.651  65.571  1.00  0.00    -0.256 OA 
HETATM   17  O   UNK     1     -12.584  14.989  63.851  1.00  0.00    -0.813 OA 
HETATM   18  H1  UNK     1     -13.441  12.717  64.841  1.00  0.00     0.000 HD 
HETATM   19  H2  UNK     1     -12.360  11.489  64.437  1.00  0.00     0.000 HD 
ENDBRANCH  12  13
ENDBRANCH  11  12
ENDBRANCH  10  11
ENDBRANCH   5  10
TORSDOF 4
ENDMDL
MODEL      179
REMARK 921   NORMALIZED FREE ENERGY PREDICTED BY IDOCK:   -3.18 KCAL/MOL
REMARK 922        TOTAL FREE ENERGY PREDICTED BY IDOCK:   -4.37 KCAL/MOL
REMARK 923 INTER-LIGAND FREE ENERGY PREDICTED BY IDOCK:   -3.96 KCAL/MOL
REMARK 924 INTRA-LIGAND FREE ENERGY PREDICTED BY IDOCK:   -0.40 KCAL/MOL
REMARK 927      BINDING AFFINITY PREDICTED BY RF-SCORE:    0.00 PKD
ROOT
HETATM    1  C   UNK     1     -13.191  11.000  71.955  1.00  0.00    -0.398 C  
HETATM    2  N   UNK     1     -13.095  10.790  70.528  1.00  0.00    -0.206 NA 
HETATM    3  H   UNK     1     -13.960  10.667  70.002  1.00  0.00     0.000 HD 
HETATM    4  C   UNK     1     -11.922  10.745  69.849  1.00  0.00    -0.342 C  
HETATM    5  N   UNK     1     -12.138  10.736  68.508  1.00  0.00    -0.826 NA 
HETATM    6  N   UNK     1     -10.746  10.702  70.364  1.00  0.00    -0.416 NA 
HETATM    7  H   UNK     1     -13.070  10.918  68.135  1.00  0.00     0.000 HD 
HETATM    8  H2  UNK     1     -10.689  10.702  71.382  1.00  0.00     0.000 HD 
HETATM    9  H1  UNK     1      -9.864  10.669  69.853  1.00  0.00     0.000 HD 
ENDROOT
BRANCH   5  10
HETATM   10  C   UNK     1     -11.025  10.464  67.605  1.00  0.00    -0.312 C  
BRANCH  10  11
HETATM   11  C   UNK     1     -10.988  11.517  66.501  1.00  0.00    -0.346 C  
BRANCH  11  12
HETATM   12  C   UNK     1      -9.745  12.412  66.616  1.00  0.00    -0.229 C  
BRANCH  12  13
HETATM   13  C   UNK     1      -8.662  11.860  67.553  1.00  0.00    -0.163 C  
HETATM   14  C   UNK     1      -7.371  11.580  66.766  1.00  0.00    -0.111 C  
HETATM   15  N   UNK     1      -8.354  12.816  68.652  1.00  0.00    -0.345 NA 
HETATM   16  O   UNK     1      -7.173  10.608  66.059  1.00  0.00    -0.132 OA 
HETATM   17  O   UNK     1      -6.475  12.592  66.927  1.00  0.00    -0.138 OA 
HETATM   18  H1  UNK     1      -7.635  12.449  69.275  1.00  0.00     0.000 HD 
HETATM   19  H2  UNK     1      -9.195  13.078  69.166  1.00  0.00     0.000 HD 
ENDBRANCH  12  13
ENDBRANCH  11  12
ENDBRANCH  10  11
ENDBRANCH   5  10
TORSDOF 4
ENDMDL
MODEL      180
REMARK 921   NORMALIZED FREE ENERGY PREDICTED BY IDOCK:   -3.18 KCAL/MOL
REMARK 922        TOTAL FREE ENERGY PREDICTED BY IDOCK:   -4.36 KCAL/MOL
REMARK 923 INTER-LIGAND FREE ENERGY PREDICTED BY IDOCK:   -3.79 KCAL/MOL
REMARK 924 INTRA-LIGAND FREE ENERGY PREDICTED BY IDOCK:   -0.57 KCAL/MOL
REMARK 927      BINDING AFFINITY PREDICTED BY RF-SCORE:    0.00 PKD
ROOT
HETATM    1  C   UNK     1      -6.303  14.499  70.194  1.00  0.00    -0.168 C  
HETATM    2  N   UNK     1      -6.818  15.399  69.188  1.00  0.00    -0.132 NA 
HETATM    3  H   UNK     1      -6.148  15.910  68.613  1.00  0.00     0.000 HD 
HETATM    4  C   UNK     1      -8.140  15.604  68.964  1.00  0.00    -0.222 C  
HETATM    5  N   UNK     1      -8.333  16.339  67.838  1.00  0.00    -0.164 NA 
HETATM    6  N   UNK     1      -9.109  15.189  69.697  1.00  0.00    -0.448 NA 
HETATM    7  H   UNK     1      -7.555  16.525  67.205  1.00  0.00     0.000 HD 
HETATM    8  H2  UNK     1      -8.861  14.653  70.529  1.00  0.00     0.000 HD 
HETATM    9  H1  UNK     1     -10.103  15.342  69.529  1.00  0.00     0.000 HD 
ENDROOT
BRANCH   5  10
HETATM   10  C   UNK     1      -9.663  16.861  67.542  1.00  0.00    -0.249 C  
BRANCH  10  11
HETATM   11  C   UNK     1      -9.967  16.683  66.058  1.00  0.00    -0.346 C  
BRANCH  11  12
HETATM   12  C   UNK     1     -10.901  15.488  65.811  1.00  0.00    -0.337 C  
BRANCH  12  13
HETATM   13  C   UNK     1     -10.217  14.289  65.141  1.00  0.00    -0.385 C  
HETATM   14  C   UNK     1      -9.920  13.197  66.183  1.00  0.00    -0.291 C  
HETATM   15  N   UNK     1     -11.069  13.706  64.068  1.00  0.00    -0.565 NA 
HETATM   16  O   UNK     1      -8.993  13.210  66.973  1.00  0.00    -0.219 OA 
HETATM   17  O   UNK     1     -10.861  12.215  66.140  1.00  0.00    -0.262 OA 
HETATM   18  H1  UNK     1     -10.614  12.909  63.624  1.00  0.00     0.000 HD 
HETATM   19  H2  UNK     1     -11.342  14.411  63.384  1.00  0.00     0.000 HD 
ENDBRANCH  12  13
ENDBRANCH  11  12
ENDBRANCH  10  11
ENDBRANCH   5  10
TORSDOF 4
ENDMDL
MODEL      181
REMARK 921   NORMALIZED FREE ENERGY PREDICTED BY IDOCK:   -3.17 KCAL/MOL
REMARK 922        TOTAL FREE ENERGY PREDICTED BY IDOCK:   -4.35 KCAL/MOL
REMARK 923 INTER-LIGAND FREE ENERGY PREDICTED BY IDOCK:   -4.39 KCAL/MOL
REMARK 924 INTRA-LIGAND FREE ENERGY PREDICTED BY IDOCK:    0.04 KCAL/MOL
REMARK 927      BINDING AFFINITY PREDICTED BY RF-SCORE:    0.00 PKD
ROOT
HETATM    1  C   UNK     1     -11.097  14.863  66.264  1.00  0.00    -0.340 C  
HETATM    2  N   UNK     1     -11.036  14.228  67.561  1.00  0.00    -0.289 NA 
HETATM    3  H   UNK     1     -10.590  14.737  68.324  1.00  0.00     0.000 HD 
HETATM    4  C   UNK     1     -11.539  12.996  67.823  1.00  0.00    -0.340 C  
HETATM    5  N   UNK     1     -11.522  12.738  69.156  1.00  0.00    -0.291 NA 
HETATM    6  N   UNK     1     -11.971  12.151  66.957  1.00  0.00    -0.598 NA 
HETATM    7  H   UNK     1     -11.311  13.482  69.822  1.00  0.00     0.000 HD 
HETATM    8  H2  UNK     1     -11.932  12.434  65.978  1.00  0.00     0.000 HD 
HETATM    9  H1  UNK     1     -12.349  11.224  67.153  1.00  0.00     0.000 HD 
ENDROOT
BRANCH   5  10
HETATM   10  C   UNK     1     -11.807  11.388  69.629  1.00  0.00    -0.362 C  
BRANCH  10  11
HETATM   11  C   UNK     1     -10.514  10.581  69.695  1.00  0.00    -0.257 C  
BRANCH  11  12
HETATM   12  C   UNK     1     -10.694   9.173  69.108  1.00  0.00    -0.190 C  
BRANCH  12  13
HETATM   13  C   UNK     1     -10.634   8.050  70.151  1.00  0.00    -0.237 C  
HETATM   14  C   UNK     1     -10.222   8.617  71.520  1.00  0.00    -0.274 C  
HETATM   15  N   UNK     1     -11.950   7.368  70.293  1.00  0.00    -0.527 NA 
HETATM   16  O   UNK     1      -9.086   8.905  71.850  1.00  0.00    -0.331 OA 
HETATM   17  O   UNK     1     -11.310   8.800  72.318  1.00  0.00    -0.355 OA 
HETATM   18  H1  UNK     1     -11.910   6.621  70.987  1.00  0.00     0.000 HD 
HETATM   19  H2  UNK     1     -12.293   7.027  69.395  1.00  0.00     0.000 HD 
ENDBRANCH  12  13
ENDBRANCH  11  12
ENDBRANCH  10  11
ENDBRANCH   5  10
TORSDOF 4
ENDMDL
MODEL      182
REMARK 921   NORMALIZED FREE ENERGY PREDICTED BY IDOCK:   -3.17 KCAL/MOL
REMARK 922        TOTAL FREE ENERGY PREDICTED BY IDOCK:   -4.35 KCAL/MOL
REMARK 923 INTER-LIGAND FREE ENERGY PREDICTED BY IDOCK:   -3.49 KCAL/MOL
REMARK 924 INTRA-LIGAND FREE ENERGY PREDICTED BY IDOCK:   -0.86 KCAL/MOL
REMARK 927      BINDING AFFINITY PREDICTED BY RF-SCORE:    0.00 PKD
ROOT
HETATM    1  C   UNK     1     -12.870  11.509  71.448  1.00  0.00    -0.384 C  
HETATM    2  N   UNK     1     -12.290  10.229  71.109  1.00  0.00    -0.360 NA 
HETATM    3  H   UNK     1     -12.553   9.419  71.670  1.00  0.00     0.000 HD 
HETATM    4  C   UNK     1     -11.417  10.043  70.088  1.00  0.00    -0.277 C  
HETATM    5  N   UNK     1     -11.193   8.720  69.876  1.00  0.00    -0.433 NA 
HETATM    6  N   UNK     1     -10.845  10.964  69.398  1.00  0.00    -0.234 NA 
HETATM    7  H   UNK     1     -11.771   8.020  70.340  1.00  0.00     0.000 HD 
HETATM    8  H2  UNK     1     -11.069  11.929  69.642  1.00  0.00     0.000 HD 
HETATM    9  H1  UNK     1     -10.188  10.824  68.631  1.00  0.00     0.000 HD 
ENDROOT
BRANCH   5  10
HETATM   10  C   UNK     1     -10.119   8.310  68.977  1.00  0.00    -0.202 C  
BRANCH  10  11
HETATM   11  C   UNK     1      -9.480   7.024  69.493  1.00  0.00    -0.147 C  
BRANCH  11  12
HETATM   12  C   UNK     1      -8.766   7.247  70.835  1.00  0.00    -0.148 C  
BRANCH  12  13
HETATM   13  C   UNK     1      -9.428   6.533  72.021  1.00  0.00    -0.150 C  
HETATM   14  C   UNK     1      -9.860   7.558  73.083  1.00  0.00    -0.262 C  
HETATM   15  N   UNK     1     -10.625   5.759  71.591  1.00  0.00    -0.238 NA 
HETATM   16  O   UNK     1      -9.120   8.090  73.892  1.00  0.00    -0.257 OA 
HETATM   17  O   UNK     1     -11.189   7.834  72.981  1.00  0.00    -0.405 OA 
HETATM   18  H1  UNK     1     -11.065   5.285  72.379  1.00  0.00     0.000 HD 
HETATM   19  H2  UNK     1     -10.397   5.105  70.841  1.00  0.00     0.000 HD 
ENDBRANCH  12  13
ENDBRANCH  11  12
ENDBRANCH  10  11
ENDBRANCH   5  10
TORSDOF 4
ENDMDL
MODEL      183
REMARK 921   NORMALIZED FREE ENERGY PREDICTED BY IDOCK:   -3.17 KCAL/MOL
REMARK 922        TOTAL FREE ENERGY PREDICTED BY IDOCK:   -4.35 KCAL/MOL
REMARK 923 INTER-LIGAND FREE ENERGY PREDICTED BY IDOCK:   -4.12 KCAL/MOL
REMARK 924 INTRA-LIGAND FREE ENERGY PREDICTED BY IDOCK:   -0.23 KCAL/MOL
REMARK 927      BINDING AFFINITY PREDICTED BY RF-SCORE:    0.00 PKD
ROOT
HETATM    1  C   UNK     1      -7.679  17.506  66.133  1.00  0.00    -0.268 C  
HETATM    2  N   UNK     1      -8.955  16.844  65.979  1.00  0.00    -0.510 NA 
HETATM    3  H   UNK     1      -9.456  16.966  65.100  1.00  0.00     0.000 HD 
HETATM    4  C   UNK     1      -9.524  16.070  66.937  1.00  0.00    -0.226 C  
HETATM    5  N   UNK     1     -10.613  15.420  66.452  1.00  0.00    -0.302 NA 
HETATM    6  N   UNK     1      -9.128  15.951  68.153  1.00  0.00    -0.181 NA 
HETATM    7  H   UNK     1     -10.811  15.423  65.451  1.00  0.00     0.000 HD 
HETATM    8  H2  UNK     1      -8.305  16.490  68.425  1.00  0.00     0.000 HD 
HETATM    9  H1  UNK     1      -9.555  15.370  68.874  1.00  0.00     0.000 HD 
ENDROOT
BRANCH   5  10
HETATM   10  C   UNK     1     -11.498  14.717  67.375  1.00  0.00    -0.369 C  
BRANCH  10  11
HETATM   11  C   UNK     1     -11.572  13.241  66.992  1.00  0.00    -0.404 C  
BRANCH  11  12
HETATM   12  C   UNK     1     -10.706  12.373  67.917  1.00  0.00    -0.245 C  
BRANCH  12  13
HETATM   13  C   UNK     1     -11.185  10.920  68.039  1.00  0.00    -0.314 C  
HETATM   14  C   UNK     1     -10.063  10.037  68.610  1.00  0.00    -0.172 C  
HETATM   15  N   UNK     1     -12.375  10.812  68.926  1.00  0.00    -0.786 NA 
HETATM   16  O   UNK     1      -9.112   9.610  67.980  1.00  0.00    -0.126 OA 
HETATM   17  O   UNK     1     -10.243   9.822  69.942  1.00  0.00    -0.221 OA 
HETATM   18  H1  UNK     1     -12.693   9.847  69.008  1.00  0.00     0.000 HD 
HETATM   19  H2  UNK     1     -13.127  11.429  68.619  1.00  0.00     0.000 HD 
ENDBRANCH  12  13
ENDBRANCH  11  12
ENDBRANCH  10  11
ENDBRANCH   5  10
TORSDOF 4
ENDMDL
MODEL      184
REMARK 921   NORMALIZED FREE ENERGY PREDICTED BY IDOCK:   -3.16 KCAL/MOL
REMARK 922        TOTAL FREE ENERGY PREDICTED BY IDOCK:   -4.34 KCAL/MOL
REMARK 923 INTER-LIGAND FREE ENERGY PREDICTED BY IDOCK:   -4.23 KCAL/MOL
REMARK 924 INTRA-LIGAND FREE ENERGY PREDICTED BY IDOCK:   -0.11 KCAL/MOL
REMARK 927      BINDING AFFINITY PREDICTED BY RF-SCORE:    0.00 PKD
ROOT
HETATM    1  C   UNK     1      -8.951   9.927  68.722  1.00  0.00    -0.140 C  
HETATM    2  N   UNK     1      -9.200  11.349  68.781  1.00  0.00    -0.347 NA 
HETATM    3  H   UNK     1      -8.398  11.975  68.845  1.00  0.00     0.000 HD 
HETATM    4  C   UNK     1     -10.439  11.900  68.756  1.00  0.00    -0.184 C  
HETATM    5  N   UNK     1     -10.368  13.250  68.623  1.00  0.00    -0.330 NA 
HETATM    6  N   UNK     1     -11.554  11.270  68.855  1.00  0.00    -0.290 NA 
HETATM    7  H   UNK     1      -9.479  13.699  68.401  1.00  0.00     0.000 HD 
HETATM    8  H2  UNK     1     -11.502  10.257  68.964  1.00  0.00     0.000 HD 
HETATM    9  H1  UNK     1     -12.486  11.683  68.837  1.00  0.00     0.000 HD 
ENDROOT
BRANCH   5  10
HETATM   10  C   UNK     1     -11.573  14.052  68.801  1.00  0.00    -0.331 C  
BRANCH  10  11
HETATM   11  C   UNK     1     -11.586  15.194  67.788  1.00  0.00    -0.303 C  
BRANCH  11  12
HETATM   12  C   UNK     1     -11.140  16.519  68.423  1.00  0.00    -0.333 C  
BRANCH  12  13
HETATM   13  C   UNK     1      -9.900  17.140  67.766  1.00  0.00    -0.274 C  
HETATM   14  C   UNK     1     -10.264  17.726  66.392  1.00  0.00    -0.365 C  
HETATM   15  N   UNK     1      -9.322  18.222  68.609  1.00  0.00    -0.317 NA 
HETATM   16  O   UNK     1     -10.413  17.082  65.368  1.00  0.00    -0.619 OA 
HETATM   17  O   UNK     1     -10.444  19.073  66.470  1.00  0.00    -0.396 OA 
HETATM   18  H1  UNK     1      -8.498  18.635  68.172  1.00  0.00     0.000 HD 
HETATM   19  H2  UNK     1      -9.119  17.893  69.553  1.00  0.00     0.000 HD 
ENDBRANCH  12  13
ENDBRANCH  11  12
ENDBRANCH  10  11
ENDBRANCH   5  10
TORSDOF 4
ENDMDL
MODEL      185
REMARK 921   NORMALIZED FREE ENERGY PREDICTED BY IDOCK:   -3.16 KCAL/MOL
REMARK 922        TOTAL FREE ENERGY PREDICTED BY IDOCK:   -4.34 KCAL/MOL
REMARK 923 INTER-LIGAND FREE ENERGY PREDICTED BY IDOCK:   -3.91 KCAL/MOL
REMARK 924 INTRA-LIGAND FREE ENERGY PREDICTED BY IDOCK:   -0.43 KCAL/MOL
REMARK 927      BINDING AFFINITY PREDICTED BY RF-SCORE:    0.00 PKD
ROOT
HETATM    1  C   UNK     1     -10.031  16.609  65.716  1.00  0.00    -0.243 C  
HETATM    2  N   UNK     1      -9.758  15.312  65.140  1.00  0.00    -0.278 NA 
HETATM    3  H   UNK     1      -8.906  15.200  64.591  1.00  0.00     0.000 HD 
HETATM    4  C   UNK     1     -10.570  14.236  65.286  1.00  0.00    -0.381 C  
HETATM    5  N   UNK     1      -9.974  13.111  64.812  1.00  0.00    -0.578 NA 
HETATM    6  N   UNK     1     -11.754  14.238  65.784  1.00  0.00    -0.351 NA 
HETATM    7  H   UNK     1      -8.986  13.119  64.560  1.00  0.00     0.000 HD 
HETATM    8  H2  UNK     1     -12.119  15.136  66.102  1.00  0.00     0.000 HD 
HETATM    9  H1  UNK     1     -12.365  13.428  65.894  1.00  0.00     0.000 HD 
ENDROOT
BRANCH   5  10
HETATM   10  C   UNK     1     -10.760  11.890  64.668  1.00  0.00    -0.307 C  
BRANCH  10  11
HETATM   11  C   UNK     1     -10.292  10.853  65.686  1.00  0.00    -0.305 C  
BRANCH  11  12
HETATM   12  C   UNK     1     -11.014  11.017  67.032  1.00  0.00    -0.333 C  
BRANCH  12  13
HETATM   13  C   UNK     1     -10.071  11.201  68.228  1.00  0.00    -0.185 C  
HETATM   14  C   UNK     1      -9.200  12.452  68.030  1.00  0.00    -0.203 C  
HETATM   15  N   UNK     1     -10.828  11.342  69.502  1.00  0.00    -0.431 NA 
HETATM   16  O   UNK     1      -8.214  12.520  67.317  1.00  0.00    -0.171 OA 
HETATM   17  O   UNK     1      -9.698  13.507  68.731  1.00  0.00    -0.141 OA 
HETATM   18  H1  UNK     1     -10.201  11.464  70.297  1.00  0.00     0.000 HD 
HETATM   19  H2  UNK     1     -11.467  10.560  69.646  1.00  0.00     0.000 HD 
ENDBRANCH  12  13
ENDBRANCH  11  12
ENDBRANCH  10  11
ENDBRANCH   5  10
TORSDOF 4
ENDMDL
MODEL      186
REMARK 921   NORMALIZED FREE ENERGY PREDICTED BY IDOCK:   -3.16 KCAL/MOL
REMARK 922        TOTAL FREE ENERGY PREDICTED BY IDOCK:   -4.33 KCAL/MOL
REMARK 923 INTER-LIGAND FREE ENERGY PREDICTED BY IDOCK:   -4.21 KCAL/MOL
REMARK 924 INTRA-LIGAND FREE ENERGY PREDICTED BY IDOCK:   -0.12 KCAL/MOL
REMARK 927      BINDING AFFINITY PREDICTED BY RF-SCORE:    0.00 PKD
ROOT
HETATM    1  C   UNK     1     -12.133  14.800  64.219  1.00  0.00    -0.394 C  
HETATM    2  N   UNK     1     -12.555  14.187  65.458  1.00  0.00    -0.496 NA 
HETATM    3  H   UNK     1     -13.406  13.624  65.450  1.00  0.00     0.000 HD 
HETATM    4  C   UNK     1     -11.885  14.315  66.630  1.00  0.00    -0.421 C  
HETATM    5  N   UNK     1     -12.392  13.478  67.572  1.00  0.00    -0.291 NA 
HETATM    6  N   UNK     1     -10.909  15.116  66.865  1.00  0.00    -0.313 NA 
HETATM    7  H   UNK     1     -13.064  12.756  67.312  1.00  0.00     0.000 HD 
HETATM    8  H2  UNK     1     -10.609  15.714  66.095  1.00  0.00     0.000 HD 
HETATM    9  H1  UNK     1     -10.405  15.213  67.747  1.00  0.00     0.000 HD 
ENDROOT
BRANCH   5  10
HETATM   10  C   UNK     1     -11.965  13.619  68.961  1.00  0.00    -0.353 C  
BRANCH  10  11
HETATM   11  C   UNK     1     -11.302  12.327  69.430  1.00  0.00    -0.294 C  
BRANCH  11  12
HETATM   12  C   UNK     1     -11.880  11.101  68.707  1.00  0.00    -0.388 C  
BRANCH  12  13
HETATM   13  C   UNK     1     -10.947  10.503  67.647  1.00  0.00    -0.314 C  
HETATM   14  C   UNK     1      -9.554  11.151  67.739  1.00  0.00    -0.172 C  
HETATM   15  N   UNK     1     -10.800   9.031  67.817  1.00  0.00    -0.482 NA 
HETATM   16  O   UNK     1      -9.256  12.248  67.300  1.00  0.00    -0.174 OA 
HETATM   17  O   UNK     1      -8.690  10.351  68.421  1.00  0.00    -0.120 OA 
HETATM   18  H1  UNK     1     -10.179   8.635  67.112  1.00  0.00     0.000 HD 
HETATM   19  H2  UNK     1     -11.707   8.565  67.822  1.00  0.00     0.000 HD 
ENDBRANCH  12  13
ENDBRANCH  11  12
ENDBRANCH  10  11
ENDBRANCH   5  10
TORSDOF 4
ENDMDL
MODEL      187
REMARK 921   NORMALIZED FREE ENERGY PREDICTED BY IDOCK:   -3.15 KCAL/MOL
REMARK 922        TOTAL FREE ENERGY PREDICTED BY IDOCK:   -4.32 KCAL/MOL
REMARK 923 INTER-LIGAND FREE ENERGY PREDICTED BY IDOCK:   -4.09 KCAL/MOL
REMARK 924 INTRA-LIGAND FREE ENERGY PREDICTED BY IDOCK:   -0.23 KCAL/MOL
REMARK 927      BINDING AFFINITY PREDICTED BY RF-SCORE:    0.00 PKD
ROOT
HETATM    1  C   UNK     1      -6.433  11.735  67.262  1.00  0.00    -0.131 C  
HETATM    2  N   UNK     1      -7.567  12.492  66.780  1.00  0.00    -0.381 NA 
HETATM    3  H   UNK     1      -7.497  13.509  66.775  1.00  0.00     0.000 HD 
HETATM    4  C   UNK     1      -8.717  11.928  66.335  1.00  0.00    -0.118 C  
HETATM    5  N   UNK     1      -9.524  12.858  65.763  1.00  0.00    -0.466 NA 
HETATM    6  N   UNK     1      -9.045  10.690  66.434  1.00  0.00    -0.161 NA 
HETATM    7  H   UNK     1      -9.172  13.797  65.571  1.00  0.00     0.000 HD 
HETATM    8  H2  UNK     1      -8.376  10.071  66.892  1.00  0.00     0.000 HD 
HETATM    9  H1  UNK     1      -9.910  10.265  66.100  1.00  0.00     0.000 HD 
ENDROOT
BRANCH   5  10
HETATM   10  C   UNK     1     -10.898  12.505  65.424  1.00  0.00    -0.282 C  
BRANCH  10  11
HETATM   11  C   UNK     1     -11.710  12.314  66.702  1.00  0.00    -0.417 C  
BRANCH  11  12
HETATM   12  C   UNK     1     -11.806  13.616  67.511  1.00  0.00    -0.416 C  
BRANCH  12  13
HETATM   13  C   UNK     1     -11.095  13.561  68.869  1.00  0.00    -0.267 C  
HETATM   14  C   UNK     1     -12.123  13.641  70.011  1.00  0.00    -0.348 C  
HETATM   15  N   UNK     1     -10.308  12.307  69.022  1.00  0.00    -0.423 NA 
HETATM   16  O   UNK     1     -12.666  14.659  70.401  1.00  0.00    -0.348 OA 
HETATM   17  O   UNK     1     -12.388  12.404  70.513  1.00  0.00    -0.330 OA 
HETATM   18  H1  UNK     1      -9.836  12.271  69.925  1.00  0.00     0.000 HD 
HETATM   19  H2  UNK     1      -9.652  12.181  68.251  1.00  0.00     0.000 HD 
ENDBRANCH  12  13
ENDBRANCH  11  12
ENDBRANCH  10  11
ENDBRANCH   5  10
TORSDOF 4
ENDMDL
MODEL      188
REMARK 921   NORMALIZED FREE ENERGY PREDICTED BY IDOCK:   -3.13 KCAL/MOL
REMARK 922        TOTAL FREE ENERGY PREDICTED BY IDOCK:   -4.30 KCAL/MOL
REMARK 923 INTER-LIGAND FREE ENERGY PREDICTED BY IDOCK:   -4.05 KCAL/MOL
REMARK 924 INTRA-LIGAND FREE ENERGY PREDICTED BY IDOCK:   -0.26 KCAL/MOL
REMARK 927      BINDING AFFINITY PREDICTED BY RF-SCORE:    0.00 PKD
ROOT
HETATM    1  C   UNK     1     -10.209  16.705  68.657  1.00  0.00    -0.284 C  
HETATM    2  N   UNK     1     -11.427  16.023  69.032  1.00  0.00    -0.364 NA 
HETATM    3  H   UNK     1     -12.247  16.145  68.439  1.00  0.00     0.000 HD 
HETATM    4  C   UNK     1     -11.543  15.232  70.128  1.00  0.00    -0.299 C  
HETATM    5  N   UNK     1     -12.728  14.568  70.123  1.00  0.00    -0.526 NA 
HETATM    6  N   UNK     1     -10.680  15.107  71.071  1.00  0.00    -0.516 NA 
HETATM    7  H   UNK     1     -13.320  14.577  69.293  1.00  0.00     0.000 HD 
HETATM    8  H2  UNK     1      -9.825  15.657  70.989  1.00  0.00     0.000 HD 
HETATM    9  H1  UNK     1     -10.767  14.512  71.895  1.00  0.00     0.000 HD 
ENDROOT
BRANCH   5  10
HETATM   10  C   UNK     1     -13.147  13.841  71.318  1.00  0.00    -0.297 C  
BRANCH  10  11
HETATM   11  C   UNK     1     -12.462  12.478  71.357  1.00  0.00    -0.205 C  
BRANCH  11  12
HETATM   12  C   UNK     1     -12.922  11.580  70.199  1.00  0.00     0.270 C  
BRANCH  12  13
HETATM   13  C   UNK     1     -11.776  11.040  69.334  1.00  0.00    -0.323 C  
HETATM   14  C   UNK     1     -11.391  12.068  68.257  1.00  0.00    -0.286 C  
HETATM   15  N   UNK     1     -10.572  10.735  70.155  1.00  0.00    -0.438 NA 
HETATM   16  O   UNK     1     -12.002  12.267  67.222  1.00  0.00    -0.546 OA 
HETATM   17  O   UNK     1     -10.288  12.773  68.630  1.00  0.00    -0.232 OA 
HETATM   18  H1  UNK     1      -9.810  10.376  69.580  1.00  0.00     0.000 HD 
HETATM   19  H2  UNK     1     -10.793  10.101  70.922  1.00  0.00     0.000 HD 
ENDBRANCH  12  13
ENDBRANCH  11  12
ENDBRANCH  10  11
ENDBRANCH   5  10
TORSDOF 4
ENDMDL
MODEL      189
REMARK 921   NORMALIZED FREE ENERGY PREDICTED BY IDOCK:   -3.12 KCAL/MOL
REMARK 922        TOTAL FREE ENERGY PREDICTED BY IDOCK:   -4.29 KCAL/MOL
REMARK 923 INTER-LIGAND FREE ENERGY PREDICTED BY IDOCK:   -4.14 KCAL/MOL
REMARK 924 INTRA-LIGAND FREE ENERGY PREDICTED BY IDOCK:   -0.15 KCAL/MOL
REMARK 927      BINDING AFFINITY PREDICTED BY RF-SCORE:    0.00 PKD
ROOT
HETATM    1  C   UNK     1      -9.673   3.739  71.330  1.00  0.00    -0.172 C  
HETATM    2  N   UNK     1     -10.309   5.032  71.214  1.00  0.00    -0.209 NA 
HETATM    3  H   UNK     1     -10.569   5.357  70.283  1.00  0.00     0.000 HD 
HETATM    4  C   UNK     1     -10.578   5.839  72.271  1.00  0.00    -0.218 C  
HETATM    5  N   UNK     1     -11.351   6.890  71.893  1.00  0.00    -0.252 NA 
HETATM    6  N   UNK     1     -10.168   5.675  73.477  1.00  0.00    -0.196 NA 
HETATM    7  H   UNK     1     -11.777   6.910  70.967  1.00  0.00     0.000 HD 
HETATM    8  H2  UNK     1      -9.582   4.860  73.658  1.00  0.00     0.000 HD 
HETATM    9  H1  UNK     1     -10.370   6.281  74.272  1.00  0.00     0.000 HD 
ENDROOT
BRANCH   5  10
HETATM   10  C   UNK     1     -11.566   7.992  72.826  1.00  0.00    -0.327 C  
BRANCH  10  11
HETATM   11  C   UNK     1     -12.586   8.967  72.244  1.00  0.00    -0.455 C  
BRANCH  11  12
HETATM   12  C   UNK     1     -11.905  10.087  71.444  1.00  0.00    -0.447 C  
BRANCH  12  13
HETATM   13  C   UNK     1     -12.862  10.889  70.552  1.00  0.00    -0.220 C  
HETATM   14  C   UNK     1     -12.775  12.386  70.891  1.00  0.00    -0.185 C  
HETATM   15  N   UNK     1     -12.544  10.707  69.109  1.00  0.00    -0.676 NA 
HETATM   16  O   UNK     1     -13.306  12.925  71.846  1.00  0.00    -0.458 OA 
HETATM   17  O   UNK     1     -11.983  13.042  69.999  1.00  0.00    -0.330 OA 
HETATM   18  H1  UNK     1     -13.180  11.240  68.517  1.00  0.00     0.000 HD 
HETATM   19  H2  UNK     1     -12.530   9.720  68.851  1.00  0.00     0.000 HD 
ENDBRANCH  12  13
ENDBRANCH  11  12
ENDBRANCH  10  11
ENDBRANCH   5  10
TORSDOF 4
ENDMDL
MODEL      190
REMARK 921   NORMALIZED FREE ENERGY PREDICTED BY IDOCK:   -3.12 KCAL/MOL
REMARK 922        TOTAL FREE ENERGY PREDICTED BY IDOCK:   -4.28 KCAL/MOL
REMARK 923 INTER-LIGAND FREE ENERGY PREDICTED BY IDOCK:   -4.06 KCAL/MOL
REMARK 924 INTRA-LIGAND FREE ENERGY PREDICTED BY IDOCK:   -0.23 KCAL/MOL
REMARK 927      BINDING AFFINITY PREDICTED BY RF-SCORE:    0.00 PKD
ROOT
HETATM    1  C   UNK     1     -14.402   8.321  71.951  1.00  0.00    -0.476 C  
HETATM    2  N   UNK     1     -13.497   7.794  70.954  1.00  0.00    -0.507 NA 
HETATM    3  H   UNK     1     -13.595   8.123  69.994  1.00  0.00     0.000 HD 
HETATM    4  C   UNK     1     -12.525   6.886  71.222  1.00  0.00    -0.361 C  
HETATM    5  N   UNK     1     -11.706   6.723  70.151  1.00  0.00    -0.578 NA 
HETATM    6  N   UNK     1     -12.372   6.237  72.319  1.00  0.00    -0.531 NA 
HETATM    7  H   UNK     1     -11.767   7.357  69.354  1.00  0.00     0.000 HD 
HETATM    8  H2  UNK     1     -13.047   6.421  73.062  1.00  0.00     0.000 HD 
HETATM    9  H1  UNK     1     -11.641   5.555  72.521  1.00  0.00     0.000 HD 
ENDROOT
BRANCH   5  10
HETATM   10  C   UNK     1     -10.736   5.632  70.150  1.00  0.00    -0.305 C  
BRANCH  10  11
HETATM   11  C   UNK     1     -10.157   5.459  68.749  1.00  0.00    -0.255 C  
BRANCH  11  12
HETATM   12  C   UNK     1      -9.032   6.468  68.474  1.00  0.00    -0.126 C  
BRANCH  12  13
HETATM   13  C   UNK     1      -9.189   7.235  67.154  1.00  0.00    -0.135 C  
HETATM   14  C   UNK     1      -7.978   6.977  66.242  1.00  0.00    -0.114 C  
HETATM   15  N   UNK     1     -10.426   6.828  66.432  1.00  0.00    -0.480 NA 
HETATM   16  O   UNK     1      -6.886   7.506  66.353  1.00  0.00    -0.059 OA 
HETATM   17  O   UNK     1      -8.268   6.035  65.304  1.00  0.00    -0.128 OA 
HETATM   18  H1  UNK     1     -10.530   7.337  65.555  1.00  0.00     0.000 HD 
HETATM   19  H2  UNK     1     -11.252   6.925  67.022  1.00  0.00     0.000 HD 
ENDBRANCH  12  13
ENDBRANCH  11  12
ENDBRANCH  10  11
ENDBRANCH   5  10
TORSDOF 4
ENDMDL
MODEL      191
REMARK 921   NORMALIZED FREE ENERGY PREDICTED BY IDOCK:   -3.11 KCAL/MOL
REMARK 922        TOTAL FREE ENERGY PREDICTED BY IDOCK:   -4.28 KCAL/MOL
REMARK 923 INTER-LIGAND FREE ENERGY PREDICTED BY IDOCK:   -3.75 KCAL/MOL
REMARK 924 INTRA-LIGAND FREE ENERGY PREDICTED BY IDOCK:   -0.52 KCAL/MOL
REMARK 927      BINDING AFFINITY PREDICTED BY RF-SCORE:    0.00 PKD
ROOT
HETATM    1  C   UNK     1     -10.368  16.745  68.159  1.00  0.00    -0.318 C  
HETATM    2  N   UNK     1     -10.000  15.607  67.348  1.00  0.00    -0.230 NA 
HETATM    3  H   UNK     1     -10.288  15.601  66.370  1.00  0.00     0.000 HD 
HETATM    4  C   UNK     1      -9.295  14.546  67.813  1.00  0.00    -0.198 C  
HETATM    5  N   UNK     1      -8.923  13.727  66.795  1.00  0.00    -0.380 NA 
HETATM    6  N   UNK     1      -9.007  14.303  69.040  1.00  0.00    -0.382 NA 
HETATM    7  H   UNK     1      -9.041  14.024  65.826  1.00  0.00     0.000 HD 
HETATM    8  H2  UNK     1      -9.341  14.972  69.734  1.00  0.00     0.000 HD 
HETATM    9  H1  UNK     1      -8.476  13.505  69.390  1.00  0.00     0.000 HD 
ENDROOT
BRANCH   5  10
HETATM   10  C   UNK     1      -8.354  12.418  67.099  1.00  0.00    -0.181 C  
BRANCH  10  11
HETATM   11  C   UNK     1      -9.206  11.325  66.460  1.00  0.00    -0.200 C  
BRANCH  11  12
HETATM   12  C   UNK     1      -9.971  11.849  65.235  1.00  0.00    -0.280 C  
BRANCH  12  13
HETATM   13  C   UNK     1     -11.492  11.662  65.322  1.00  0.00    -0.105 C  
HETATM   14  C   UNK     1     -12.124  12.814  66.121  1.00  0.00    -0.364 C  
HETATM   15  N   UNK     1     -12.114  11.620  63.970  1.00  0.00    -0.294 NA 
HETATM   16  O   UNK     1     -12.125  12.913  67.335  1.00  0.00    -0.333 OA 
HETATM   17  O   UNK     1     -12.656  13.749  65.287  1.00  0.00    -0.489 OA 
HETATM   18  H1  UNK     1     -13.124  11.496  64.028  1.00  0.00     0.000 HD 
HETATM   19  H2  UNK     1     -11.682  10.907  63.382  1.00  0.00     0.000 HD 
ENDBRANCH  12  13
ENDBRANCH  11  12
ENDBRANCH  10  11
ENDBRANCH   5  10
TORSDOF 4
ENDMDL
MODEL      192
REMARK 921   NORMALIZED FREE ENERGY PREDICTED BY IDOCK:   -3.11 KCAL/MOL
REMARK 922        TOTAL FREE ENERGY PREDICTED BY IDOCK:   -4.28 KCAL/MOL
REMARK 923 INTER-LIGAND FREE ENERGY PREDICTED BY IDOCK:   -3.43 KCAL/MOL
REMARK 924 INTRA-LIGAND FREE ENERGY PREDICTED BY IDOCK:   -0.85 KCAL/MOL
REMARK 927      BINDING AFFINITY PREDICTED BY RF-SCORE:    0.00 PKD
ROOT
HETATM    1  C   UNK     1      -8.507  15.304  67.140  1.00  0.00    -0.209 C  
HETATM    2  N   UNK     1      -9.091  14.403  68.108  1.00  0.00    -0.187 NA 
HETATM    3  H   UNK     1      -8.463  13.814  68.654  1.00  0.00     0.000 HD 
HETATM    4  C   UNK     1     -10.424  14.297  68.333  1.00  0.00    -0.249 C  
HETATM    5  N   UNK     1     -10.672  13.529  69.425  1.00  0.00    -0.444 NA 
HETATM    6  N   UNK     1     -11.359  14.823  67.626  1.00  0.00    -0.327 NA 
HETATM    7  H   UNK     1      -9.910  13.251  70.043  1.00  0.00     0.000 HD 
HETATM    8  H2  UNK     1     -11.071  15.374  66.817  1.00  0.00     0.000 HD 
HETATM    9  H1  UNK     1     -12.361  14.743  67.794  1.00  0.00     0.000 HD 
ENDROOT
BRANCH   5  10
HETATM   10  C   UNK     1     -12.039  13.104  69.707  1.00  0.00    -0.270 C  
BRANCH  10  11
HETATM   11  C   UNK     1     -12.057  11.616  70.042  1.00  0.00    -0.395 C  
BRANCH  11  12
HETATM   12  C   UNK     1     -11.746  10.755  68.809  1.00  0.00    -0.315 C  
BRANCH  12  13
HETATM   13  C   UNK     1     -10.453   9.937  68.929  1.00  0.00    -0.211 C  
HETATM   14  C   UNK     1      -9.355  10.546  68.040  1.00  0.00    -0.145 C  
HETATM   15  N   UNK     1      -9.962   9.897  70.334  1.00  0.00    -0.373 NA 
HETATM   16  O   UNK     1      -9.264  10.403  66.834  1.00  0.00    -0.149 OA 
HETATM   17  O   UNK     1      -8.504  11.312  68.776  1.00  0.00    -0.155 OA 
HETATM   18  H1  UNK     1      -9.103   9.354  70.413  1.00  0.00     0.000 HD 
HETATM   19  H2  UNK     1     -10.681   9.555  70.971  1.00  0.00     0.000 HD 
ENDBRANCH  12  13
ENDBRANCH  11  12
ENDBRANCH  10  11
ENDBRANCH   5  10
TORSDOF 4
ENDMDL
MODEL      193
REMARK 921   NORMALIZED FREE ENERGY PREDICTED BY IDOCK:   -3.10 KCAL/MOL
REMARK 922        TOTAL FREE ENERGY PREDICTED BY IDOCK:   -4.27 KCAL/MOL
REMARK 923 INTER-LIGAND FREE ENERGY PREDICTED BY IDOCK:   -3.72 KCAL/MOL
REMARK 924 INTRA-LIGAND FREE ENERGY PREDICTED BY IDOCK:   -0.55 KCAL/MOL
REMARK 927      BINDING AFFINITY PREDICTED BY RF-SCORE:    0.00 PKD
ROOT
HETATM    1  C   UNK     1     -11.160  16.048  64.674  1.00  0.00    -0.332 C  
HETATM    2  N   UNK     1     -10.904  15.048  65.685  1.00  0.00    -0.332 NA 
HETATM    3  H   UNK     1     -10.024  15.100  66.199  1.00  0.00     0.000 HD 
HETATM    4  C   UNK     1     -11.764  14.046  65.991  1.00  0.00    -0.369 C  
HETATM    5  N   UNK     1     -11.360  13.382  67.104  1.00  0.00    -0.302 NA 
HETATM    6  N   UNK     1     -12.822  13.725  65.336  1.00  0.00    -0.705 NA 
HETATM    7  H   UNK     1     -10.602  13.753  67.678  1.00  0.00     0.000 HD 
HETATM    8  H2  UNK     1     -13.035  14.278  64.506  1.00  0.00     0.000 HD 
HETATM    9  H1  UNK     1     -13.469  12.971  65.565  1.00  0.00     0.000 HD 
ENDROOT
BRANCH   5  10
HETATM   10  C   UNK     1     -12.018  12.132  67.472  1.00  0.00    -0.105 C  
BRANCH  10  11
HETATM   11  C   UNK     1     -11.306  11.508  68.669  1.00  0.00    -0.330 C  
BRANCH  11  12
HETATM   12  C   UNK     1     -10.612  10.191  68.290  1.00  0.00    -0.262 C  
BRANCH  12  13
HETATM   13  C   UNK     1      -9.096  10.317  68.096  1.00  0.00    -0.136 C  
HETATM   14  C   UNK     1      -8.782  10.834  66.682  1.00  0.00    -0.147 C  
HETATM   15  N   UNK     1      -8.495  11.249  69.089  1.00  0.00    -0.378 NA 
HETATM   16  O   UNK     1      -8.798  10.162  65.666  1.00  0.00    -0.153 OA 
HETATM   17  O   UNK     1      -8.521  12.169  66.699  1.00  0.00    -0.169 OA 
HETATM   18  H1  UNK     1      -7.487  11.333  68.960  1.00  0.00     0.000 HD 
HETATM   19  H2  UNK     1      -8.728  10.979  70.044  1.00  0.00     0.000 HD 
ENDBRANCH  12  13
ENDBRANCH  11  12
ENDBRANCH  10  11
ENDBRANCH   5  10
TORSDOF 4
ENDMDL
MODEL      194
REMARK 921   NORMALIZED FREE ENERGY PREDICTED BY IDOCK:   -3.10 KCAL/MOL
REMARK 922        TOTAL FREE ENERGY PREDICTED BY IDOCK:   -4.26 KCAL/MOL
REMARK 923 INTER-LIGAND FREE ENERGY PREDICTED BY IDOCK:   -3.90 KCAL/MOL
REMARK 924 INTRA-LIGAND FREE ENERGY PREDICTED BY IDOCK:   -0.36 KCAL/MOL
REMARK 927      BINDING AFFINITY PREDICTED BY RF-SCORE:    0.00 PKD
ROOT
HETATM    1  C   UNK     1     -12.156  12.619  69.913  1.00  0.00    -0.252 C  
HETATM    2  N   UNK     1     -11.789  11.254  70.217  1.00  0.00    -0.341 NA 
HETATM    3  H   UNK     1     -11.103  10.796  69.617  1.00  0.00     0.000 HD 
HETATM    4  C   UNK     1     -12.303  10.548  71.255  1.00  0.00    -0.397 C  
HETATM    5  N   UNK     1     -11.637   9.375  71.420  1.00  0.00    -0.352 NA 
HETATM    6  N   UNK     1     -13.292  10.896  71.996  1.00  0.00    -0.525 NA 
HETATM    7  H   UNK     1     -10.770   9.199  70.911  1.00  0.00     0.000 HD 
HETATM    8  H2  UNK     1     -13.734  11.791  71.785  1.00  0.00     0.000 HD 
HETATM    9  H1  UNK     1     -13.679  10.365  72.776  1.00  0.00     0.000 HD 
ENDROOT
BRANCH   5  10
HETATM   10  C   UNK     1     -12.173   8.370  72.331  1.00  0.00    -0.367 C  
BRANCH  10  11
HETATM   11  C   UNK     1     -11.026   7.649  73.034  1.00  0.00    -0.457 C  
BRANCH  11  12
HETATM   12  C   UNK     1      -9.808   7.491  72.112  1.00  0.00    -0.209 C  
BRANCH  12  13
HETATM   13  C   UNK     1      -9.679   6.099  71.481  1.00  0.00    -0.162 C  
HETATM   14  C   UNK     1     -10.244   6.110  70.050  1.00  0.00    -0.196 C  
HETATM   15  N   UNK     1      -8.259   5.653  71.429  1.00  0.00    -0.120 NA 
HETATM   16  O   UNK     1     -11.426   6.069  69.759  1.00  0.00    -0.395 OA 
HETATM   17  O   UNK     1      -9.244   6.215  69.133  1.00  0.00    -0.127 OA 
HETATM   18  H1  UNK     1      -8.174   4.728  71.010  1.00  0.00     0.000 HD 
HETATM   19  H2  UNK     1      -7.824   5.687  72.351  1.00  0.00     0.000 HD 
ENDBRANCH  12  13
ENDBRANCH  11  12
ENDBRANCH  10  11
ENDBRANCH   5  10
TORSDOF 4
ENDMDL
MODEL      195
REMARK 921   NORMALIZED FREE ENERGY PREDICTED BY IDOCK:   -3.08 KCAL/MOL
REMARK 922        TOTAL FREE ENERGY PREDICTED BY IDOCK:   -4.23 KCAL/MOL
REMARK 923 INTER-LIGAND FREE ENERGY PREDICTED BY IDOCK:   -3.67 KCAL/MOL
REMARK 924 INTRA-LIGAND FREE ENERGY PREDICTED BY IDOCK:   -0.57 KCAL/MOL
REMARK 927      BINDING AFFINITY PREDICTED BY RF-SCORE:    0.00 PKD
ROOT
HETATM    1  C   UNK     1      -7.523  16.330  68.910  1.00  0.00    -0.209 C  
HETATM    2  N   UNK     1      -8.653  16.085  68.042  1.00  0.00    -0.164 NA 
HETATM    3  H   UNK     1      -8.629  16.476  67.101  1.00  0.00     0.000 HD 
HETATM    4  C   UNK     1      -9.743  15.365  68.407  1.00  0.00    -0.211 C  
HETATM    5  N   UNK     1     -10.548  15.129  67.339  1.00  0.00    -0.266 NA 
HETATM    6  N   UNK     1     -10.021  14.953  69.591  1.00  0.00    -0.424 NA 
HETATM    7  H   UNK     1     -10.227  15.342  66.395  1.00  0.00     0.000 HD 
HETATM    8  H2  UNK     1      -9.358  15.191  70.330  1.00  0.00     0.000 HD 
HETATM    9  H1  UNK     1     -10.840  14.412  69.866  1.00  0.00     0.000 HD 
ENDROOT
BRANCH   5  10
HETATM   10  C   UNK     1     -11.878  14.569  67.555  1.00  0.00    -0.374 C  
BRANCH  10  11
HETATM   11  C   UNK     1     -12.012  13.253  66.794  1.00  0.00    -0.438 C  
BRANCH  11  12
HETATM   12  C   UNK     1     -11.888  12.043  67.732  1.00  0.00    -0.308 C  
BRANCH  12  13
HETATM   13  C   UNK     1     -10.810  11.035  67.312  1.00  0.00    -0.281 C  
HETATM   14  C   UNK     1      -9.411  11.592  67.627  1.00  0.00    -0.168 C  
HETATM   15  N   UNK     1     -10.976   9.735  68.017  1.00  0.00    -0.458 NA 
HETATM   16  O   UNK     1      -8.815  12.419  66.961  1.00  0.00    -0.198 OA 
HETATM   17  O   UNK     1      -8.929  11.067  68.787  1.00  0.00    -0.165 OA 
HETATM   18  H1  UNK     1     -10.260   9.065  67.738  1.00  0.00     0.000 HD 
HETATM   19  H2  UNK     1     -11.914   9.356  67.885  1.00  0.00     0.000 HD 
ENDBRANCH  12  13
ENDBRANCH  11  12
ENDBRANCH  10  11
ENDBRANCH   5  10
TORSDOF 4
ENDMDL
MODEL      196
REMARK 921   NORMALIZED FREE ENERGY PREDICTED BY IDOCK:   -3.07 KCAL/MOL
REMARK 922        TOTAL FREE ENERGY PREDICTED BY IDOCK:   -4.23 KCAL/MOL
REMARK 923 INTER-LIGAND FREE ENERGY PREDICTED BY IDOCK:   -3.84 KCAL/MOL
REMARK 924 INTRA-LIGAND FREE ENERGY PREDICTED BY IDOCK:   -0.39 KCAL/MOL
REMARK 927      BINDING AFFINITY PREDICTED BY RF-SCORE:    0.00 PKD
ROOT
HETATM    1  C   UNK     1     -10.018  20.239  66.930  1.00  0.00    -0.452 C  
HETATM    2  N   UNK     1      -9.930  19.060  67.761  1.00  0.00    -0.339 NA 
HETATM    3  H   UNK     1     -10.547  18.996  68.571  1.00  0.00     0.000 HD 
HETATM    4  C   UNK     1      -9.076  18.033  67.527  1.00  0.00    -0.253 C  
HETATM    5  N   UNK     1      -9.348  16.980  68.342  1.00  0.00    -0.257 NA 
HETATM    6  N   UNK     1      -8.119  18.020  66.671  1.00  0.00    -0.249 NA 
HETATM    7  H   UNK     1     -10.200  16.970  68.902  1.00  0.00     0.000 HD 
HETATM    8  H2  UNK     1      -7.987  18.864  66.113  1.00  0.00     0.000 HD 
HETATM    9  H1  UNK     1      -7.476  17.248  66.494  1.00  0.00     0.000 HD 
ENDROOT
BRANCH   5  10
HETATM   10  C   UNK     1      -8.409  15.865  68.409  1.00  0.00    -0.174 C  
BRANCH  10  11
HETATM   11  C   UNK     1      -9.154  14.587  68.781  1.00  0.00    -0.158 C  
BRANCH  11  12
HETATM   12  C   UNK     1     -10.232  14.850  69.844  1.00  0.00    -0.016 C  
BRANCH  12  13
HETATM   13  C   UNK     1     -11.647  14.444  69.412  1.00  0.00    -0.304 C  
HETATM   14  C   UNK     1     -12.427  13.878  70.611  1.00  0.00    -0.366 C  
HETATM   15  N   UNK     1     -12.400  15.602  68.857  1.00  0.00    -0.559 NA 
HETATM   16  O   UNK     1     -12.305  12.753  71.064  1.00  0.00    -0.356 OA 
HETATM   17  O   UNK     1     -13.255  14.819  71.141  1.00  0.00    -0.357 OA 
HETATM   18  H1  UNK     1     -13.341  15.332  68.570  1.00  0.00     0.000 HD 
HETATM   19  H2  UNK     1     -11.890  16.048  68.095  1.00  0.00     0.000 HD 
ENDBRANCH  12  13
ENDBRANCH  11  12
ENDBRANCH  10  11
ENDBRANCH   5  10
TORSDOF 4
ENDMDL
MODEL      197
REMARK 921   NORMALIZED FREE ENERGY PREDICTED BY IDOCK:   -3.07 KCAL/MOL
REMARK 922        TOTAL FREE ENERGY PREDICTED BY IDOCK:   -4.23 KCAL/MOL
REMARK 923 INTER-LIGAND FREE ENERGY PREDICTED BY IDOCK:   -4.13 KCAL/MOL
REMARK 924 INTRA-LIGAND FREE ENERGY PREDICTED BY IDOCK:   -0.10 KCAL/MOL
REMARK 927      BINDING AFFINITY PREDICTED BY RF-SCORE:    0.00 PKD
ROOT
HETATM    1  C   UNK     1     -10.523   6.190  73.936  1.00  0.00    -0.275 C  
HETATM    2  N   UNK     1     -11.129   7.064  72.956  1.00  0.00    -0.448 NA 
HETATM    3  H   UNK     1     -12.110   6.914  72.721  1.00  0.00     0.000 HD 
HETATM    4  C   UNK     1     -10.468   8.070  72.332  1.00  0.00    -0.301 C  
HETATM    5  N   UNK     1     -11.327   8.845  71.619  1.00  0.00    -0.312 NA 
HETATM    6  N   UNK     1      -9.203   8.290  72.371  1.00  0.00    -0.231 NA 
HETATM    7  H   UNK     1     -12.335   8.731  71.728  1.00  0.00     0.000 HD 
HETATM    8  H2  UNK     1      -8.641   7.644  72.925  1.00  0.00     0.000 HD 
HETATM    9  H1  UNK     1      -8.706   9.047  71.902  1.00  0.00     0.000 HD 
ENDROOT
BRANCH   5  10
HETATM   10  C   UNK     1     -10.795   9.842  70.696  1.00  0.00    -0.330 C  
BRANCH  10  11
HETATM   11  C   UNK     1     -11.740  11.039  70.630  1.00  0.00    -0.371 C  
BRANCH  11  12
HETATM   12  C   UNK     1     -12.020  11.458  69.180  1.00  0.00    -0.395 C  
BRANCH  12  13
HETATM   13  C   UNK     1     -10.761  11.594  68.314  1.00  0.00    -0.213 C  
HETATM   14  C   UNK     1     -11.137  12.063  66.899  1.00  0.00    -0.302 C  
HETATM   15  N   UNK     1      -9.800  12.568  68.901  1.00  0.00    -0.422 NA 
HETATM   16  O   UNK     1     -11.594  11.355  66.019  1.00  0.00    -0.243 OA 
HETATM   17  O   UNK     1     -10.931  13.401  66.759  1.00  0.00    -0.283 OA 
HETATM   18  H1  UNK     1      -8.963  12.658  68.325  1.00  0.00     0.000 HD 
HETATM   19  H2  UNK     1      -9.567  12.329  69.864  1.00  0.00     0.000 HD 
ENDBRANCH  12  13
ENDBRANCH  11  12
ENDBRANCH  10  11
ENDBRANCH   5  10
TORSDOF 4
ENDMDL
MODEL      198
REMARK 921   NORMALIZED FREE ENERGY PREDICTED BY IDOCK:   -3.07 KCAL/MOL
REMARK 922        TOTAL FREE ENERGY PREDICTED BY IDOCK:   -4.22 KCAL/MOL
REMARK 923 INTER-LIGAND FREE ENERGY PREDICTED BY IDOCK:   -4.01 KCAL/MOL
REMARK 924 INTRA-LIGAND FREE ENERGY PREDICTED BY IDOCK:   -0.21 KCAL/MOL
REMARK 927      BINDING AFFINITY PREDICTED BY RF-SCORE:    0.00 PKD
ROOT
HETATM    1  C   UNK     1      -6.408   7.994  69.177  1.00  0.00    -0.039 C  
HETATM    2  N   UNK     1      -7.305   8.870  68.459  1.00  0.00    -0.080 NA 
HETATM    3  H   UNK     1      -7.548   8.626  67.499  1.00  0.00     0.000 HD 
HETATM    4  C   UNK     1      -7.843   9.998  68.986  1.00  0.00    -0.101 C  
HETATM    5  N   UNK     1      -8.796  10.511  68.166  1.00  0.00    -0.131 NA 
HETATM    6  N   UNK     1      -7.516  10.547  70.100  1.00  0.00    -0.431 NA 
HETATM    7  H   UNK     1      -9.131   9.972  67.366  1.00  0.00     0.000 HD 
HETATM    8  H2  UNK     1      -6.780  10.092  70.640  1.00  0.00     0.000 HD 
HETATM    9  H1  UNK     1      -7.920  11.395  70.497  1.00  0.00     0.000 HD 
ENDROOT
BRANCH   5  10
HETATM   10  C   UNK     1      -9.336  11.839  68.437  1.00  0.00    -0.185 C  
BRANCH  10  11
HETATM   11  C   UNK     1     -10.813  11.728  68.805  1.00  0.00    -0.268 C  
BRANCH  11  12
HETATM   12  C   UNK     1     -11.718  11.954  67.584  1.00  0.00    -0.346 C  
BRANCH  12  13
HETATM   13  C   UNK     1     -11.551  13.331  66.930  1.00  0.00    -0.364 C  
HETATM   14  C   UNK     1     -12.007  13.281  65.462  1.00  0.00    -0.405 C  
HETATM   15  N   UNK     1     -12.345  14.372  67.640  1.00  0.00    -0.601 NA 
HETATM   16  O   UNK     1     -11.357  12.827  64.537  1.00  0.00    -0.307 OA 
HETATM   17  O   UNK     1     -13.267  13.777  65.326  1.00  0.00    -0.755 OA 
HETATM   18  H1  UNK     1     -12.234  15.287  67.205  1.00  0.00     0.000 HD 
HETATM   19  H2  UNK     1     -12.118  14.400  68.634  1.00  0.00     0.000 HD 
ENDBRANCH  12  13
ENDBRANCH  11  12
ENDBRANCH  10  11
ENDBRANCH   5  10
TORSDOF 4
ENDMDL
MODEL      199
REMARK 921   NORMALIZED FREE ENERGY PREDICTED BY IDOCK:   -3.06 KCAL/MOL
REMARK 922        TOTAL FREE ENERGY PREDICTED BY IDOCK:   -4.21 KCAL/MOL
REMARK 923 INTER-LIGAND FREE ENERGY PREDICTED BY IDOCK:   -3.53 KCAL/MOL
REMARK 924 INTRA-LIGAND FREE ENERGY PREDICTED BY IDOCK:   -0.68 KCAL/MOL
REMARK 927      BINDING AFFINITY PREDICTED BY RF-SCORE:    0.00 PKD
ROOT
HETATM    1  C   UNK     1      -7.622   8.226  74.390  1.00  0.00    -0.223 C  
HETATM    2  N   UNK     1      -8.977   7.845  74.058  1.00  0.00    -0.385 NA 
HETATM    3  H   UNK     1      -9.489   7.266  74.722  1.00  0.00     0.000 HD 
HETATM    4  C   UNK     1      -9.605   8.213  72.914  1.00  0.00    -0.275 C  
HETATM    5  N   UNK     1     -10.923   7.885  72.957  1.00  0.00    -0.384 NA 
HETATM    6  N   UNK     1      -9.064   8.783  71.898  1.00  0.00    -0.331 NA 
HETATM    7  H   UNK     1     -11.346   7.569  73.830  1.00  0.00     0.000 HD 
HETATM    8  H2  UNK     1      -8.065   8.978  71.957  1.00  0.00     0.000 HD 
HETATM    9  H1  UNK     1      -9.537   9.060  71.037  1.00  0.00     0.000 HD 
ENDROOT
BRANCH   5  10
HETATM   10  C   UNK     1     -11.727   7.988  71.744  1.00  0.00    -0.291 C  
BRANCH  10  11
HETATM   11  C   UNK     1     -12.122   6.593  71.268  1.00  0.00    -0.395 C  
BRANCH  11  12
HETATM   12  C   UNK     1     -11.633   6.325  69.836  1.00  0.00    -0.361 C  
BRANCH  12  13
HETATM   13  C   UNK     1     -10.447   5.356  69.753  1.00  0.00    -0.307 C  
HETATM   14  C   UNK     1      -9.216   6.071  69.170  1.00  0.00    -0.126 C  
HETATM   15  N   UNK     1     -10.093   4.811  71.093  1.00  0.00    -0.202 NA 
HETATM   16  O   UNK     1      -9.031   6.308  67.989  1.00  0.00    -0.116 OA 
HETATM   17  O   UNK     1      -8.362   6.451  70.159  1.00  0.00    -0.129 OA 
HETATM   18  H1  UNK     1      -9.305   4.167  71.037  1.00  0.00     0.000 HD 
HETATM   19  H2  UNK     1     -10.899   4.379  71.544  1.00  0.00     0.000 HD 
ENDBRANCH  12  13
ENDBRANCH  11  12
ENDBRANCH  10  11
ENDBRANCH   5  10
TORSDOF 4
ENDMDL
MODEL      200
REMARK 921   NORMALIZED FREE ENERGY PREDICTED BY IDOCK:   -3.02 KCAL/MOL
REMARK 922        TOTAL FREE ENERGY PREDICTED BY IDOCK:   -4.16 KCAL/MOL
REMARK 923 INTER-LIGAND FREE ENERGY PREDICTED BY IDOCK:   -3.91 KCAL/MOL
REMARK 924 INTRA-LIGAND FREE ENERGY PREDICTED BY IDOCK:   -0.25 KCAL/MOL
REMARK 927      BINDING AFFINITY PREDICTED BY RF-SCORE:    0.00 PKD
ROOT
HETATM    1  C   UNK     1     -10.377  17.020  67.037  1.00  0.00    -0.304 C  
HETATM    2  N   UNK     1     -10.870  15.733  66.603  1.00  0.00    -0.285 NA 
HETATM    3  H   UNK     1     -11.455  15.700  65.768  1.00  0.00     0.000 HD 
HETATM    4  C   UNK     1     -10.601  14.567  67.241  1.00  0.00    -0.280 C  
HETATM    5  N   UNK     1     -11.022  13.504  66.507  1.00  0.00    -0.289 NA 
HETATM    6  N   UNK     1     -10.040  14.440  68.389  1.00  0.00    -0.237 NA 
HETATM    7  H   UNK     1     -11.328  13.633  65.543  1.00  0.00     0.000 HD 
HETATM    8  H2  UNK     1      -9.770  15.300  68.868  1.00  0.00     0.000 HD 
HETATM    9  H1  UNK     1      -9.837  13.564  68.870  1.00  0.00     0.000 HD 
ENDROOT
BRANCH   5  10
HETATM   10  C   UNK     1     -11.032  12.176  67.111  1.00  0.00    -0.268 C  
BRANCH  10  11
HETATM   11  C   UNK     1      -9.897  11.337  66.530  1.00  0.00    -0.239 C  
BRANCH  11  12
HETATM   12  C   UNK     1     -10.360  10.530  65.308  1.00  0.00    -0.300 C  
BRANCH  12  13
HETATM   13  C   UNK     1      -9.968  11.154  63.962  1.00  0.00    -0.323 C  
HETATM   14  C   UNK     1      -8.829  10.349  63.314  1.00  0.00    -0.216 C  
HETATM   15  N   UNK     1     -11.122  11.190  63.022  1.00  0.00    -0.801 NA 
HETATM   16  O   UNK     1      -7.652  10.418  63.623  1.00  0.00    -0.126 OA 
HETATM   17  O   UNK     1      -9.311   9.503  62.364  1.00  0.00    -0.245 OA 
HETATM   18  H1  UNK     1     -10.861  11.605  62.128  1.00  0.00     0.000 HD 
HETATM   19  H2  UNK     1     -11.925  11.664  63.435  1.00  0.00     0.000 HD 
ENDBRANCH  12  13
ENDBRANCH  11  12
ENDBRANCH  10  11
ENDBRANCH   5  10
TORSDOF 4
ENDMDL
MODEL      201
REMARK 921   NORMALIZED FREE ENERGY PREDICTED BY IDOCK:   -3.00 KCAL/MOL
REMARK 922        TOTAL FREE ENERGY PREDICTED BY IDOCK:   -4.14 KCAL/MOL
REMARK 923 INTER-LIGAND FREE ENERGY PREDICTED BY IDOCK:   -3.90 KCAL/MOL
REMARK 924 INTRA-LIGAND FREE ENERGY PREDICTED BY IDOCK:   -0.24 KCAL/MOL
REMARK 927      BINDING AFFINITY PREDICTED BY RF-SCORE:    0.00 PKD
ROOT
HETATM    1  C   UNK     1     -12.102   8.837  71.584  1.00  0.00    -0.337 C  
HETATM    2  N   UNK     1     -12.538  10.075  70.977  1.00  0.00    -0.347 NA 
HETATM    3  H   UNK     1     -13.533  10.295  70.998  1.00  0.00     0.000 HD 
HETATM    4  C   UNK     1     -11.700  10.960  70.383  1.00  0.00    -0.350 C  
HETATM    5  N   UNK     1     -12.348  12.114  70.081  1.00  0.00    -0.197 NA 
HETATM    6  N   UNK     1     -10.459  10.768  70.111  1.00  0.00    -0.400 NA 
HETATM    7  H   UNK     1     -13.287  12.287  70.441  1.00  0.00     0.000 HD 
HETATM    8  H2  UNK     1     -10.066   9.862  70.367  1.00  0.00     0.000 HD 
HETATM    9  H1  UNK     1      -9.828  11.433  69.664  1.00  0.00     0.000 HD 
ENDROOT
BRANCH   5  10
HETATM   10  C   UNK     1     -11.690  13.107  69.238  1.00  0.00    -0.321 C  
BRANCH  10  11
HETATM   11  C   UNK     1     -12.033  14.510  69.731  1.00  0.00    -0.383 C  
BRANCH  11  12
HETATM   12  C   UNK     1     -11.341  15.591  68.887  1.00  0.00    -0.329 C  
BRANCH  12  13
HETATM   13  C   UNK     1     -10.059  15.114  68.191  1.00  0.00    -0.222 C  
HETATM   14  C   UNK     1     -10.053  15.565  66.721  1.00  0.00    -0.264 C  
HETATM   15  N   UNK     1      -8.843  15.653  68.861  1.00  0.00    -0.204 NA 
HETATM   16  O   UNK     1     -10.673  15.032  65.817  1.00  0.00    -0.311 OA 
HETATM   17  O   UNK     1      -9.289  16.679  66.558  1.00  0.00    -0.236 OA 
HETATM   18  H1  UNK     1      -7.992  15.336  68.398  1.00  0.00     0.000 HD 
HETATM   19  H2  UNK     1      -8.835  15.428  69.856  1.00  0.00     0.000 HD 
ENDBRANCH  12  13
ENDBRANCH  11  12
ENDBRANCH  10  11
ENDBRANCH   5  10
TORSDOF 4
ENDMDL
MODEL      202
REMARK 921   NORMALIZED FREE ENERGY PREDICTED BY IDOCK:   -3.00 KCAL/MOL
REMARK 922        TOTAL FREE ENERGY PREDICTED BY IDOCK:   -4.14 KCAL/MOL
REMARK 923 INTER-LIGAND FREE ENERGY PREDICTED BY IDOCK:   -4.04 KCAL/MOL
REMARK 924 INTRA-LIGAND FREE ENERGY PREDICTED BY IDOCK:   -0.10 KCAL/MOL
REMARK 927      BINDING AFFINITY PREDICTED BY RF-SCORE:    0.00 PKD
ROOT
HETATM    1  C   UNK     1      -6.923  18.771  68.481  1.00  0.00    -0.265 C  
HETATM    2  N   UNK     1      -7.532  17.896  67.504  1.00  0.00    -0.203 NA 
HETATM    3  H   UNK     1      -6.919  17.391  66.865  1.00  0.00     0.000 HD 
HETATM    4  C   UNK     1      -8.870  17.709  67.389  1.00  0.00    -0.235 C  
HETATM    5  N   UNK     1      -9.145  16.693  66.530  1.00  0.00    -0.253 NA 
HETATM    6  N   UNK     1      -9.786  18.386  67.981  1.00  0.00    -0.321 NA 
HETATM    7  H   UNK     1      -8.397  16.086  66.194  1.00  0.00     0.000 HD 
HETATM    8  H2  UNK     1      -9.478  19.138  68.598  1.00  0.00     0.000 HD 
HETATM    9  H1  UNK     1     -10.793  18.246  67.894  1.00  0.00     0.000 HD 
ENDROOT
BRANCH   5  10
HETATM   10  C   UNK     1     -10.520  16.477  66.093  1.00  0.00    -0.294 C  
BRANCH  10  11
HETATM   11  C   UNK     1     -10.958  15.060  66.451  1.00  0.00    -0.336 C  
BRANCH  11  12
HETATM   12  C   UNK     1      -9.752  14.141  66.698  1.00  0.00    -0.297 C  
BRANCH  12  13
HETATM   13  C   UNK     1     -10.065  12.646  66.550  1.00  0.00    -0.248 C  
HETATM   14  C   UNK     1     -11.475  12.343  67.084  1.00  0.00    -0.357 C  
HETATM   15  N   UNK     1      -9.990  12.213  65.127  1.00  0.00    -0.318 NA 
HETATM   16  O   UNK     1     -11.775  12.230  68.260  1.00  0.00    -0.305 OA 
HETATM   17  O   UNK     1     -12.373  12.257  66.065  1.00  0.00    -0.609 OA 
HETATM   18  H1  UNK     1     -10.199  11.219  65.029  1.00  0.00     0.000 HD 
HETATM   19  H2  UNK     1      -9.090  12.449  64.712  1.00  0.00     0.000 HD 
ENDBRANCH  12  13
ENDBRANCH  11  12
ENDBRANCH  10  11
ENDBRANCH   5  10
TORSDOF 4
ENDMDL
MODEL      203
REMARK 921   NORMALIZED FREE ENERGY PREDICTED BY IDOCK:   -2.99 KCAL/MOL
REMARK 922        TOTAL FREE ENERGY PREDICTED BY IDOCK:   -4.13 KCAL/MOL
REMARK 923 INTER-LIGAND FREE ENERGY PREDICTED BY IDOCK:   -3.88 KCAL/MOL
REMARK 924 INTRA-LIGAND FREE ENERGY PREDICTED BY IDOCK:   -0.25 KCAL/MOL
REMARK 927      BINDING AFFINITY PREDICTED BY RF-SCORE:    0.00 PKD
ROOT
HETATM    1  C   UNK     1     -10.592  15.688  65.471  1.00  0.00    -0.404 C  
HETATM    2  N   UNK     1     -11.367  14.836  66.345  1.00  0.00    -0.348 NA 
HETATM    3  H   UNK     1     -11.908  14.081  65.924  1.00  0.00     0.000 HD 
HETATM    4  C   UNK     1     -11.416  14.982  67.693  1.00  0.00    -0.333 C  
HETATM    5  N   UNK     1     -12.053  13.932  68.271  1.00  0.00    -0.481 NA 
HETATM    6  N   UNK     1     -10.949  15.970  68.368  1.00  0.00    -0.315 NA 
HETATM    7  H   UNK     1     -12.279  13.101  67.723  1.00  0.00     0.000 HD 
HETATM    8  H2  UNK     1     -10.497  16.717  67.840  1.00  0.00     0.000 HD 
HETATM    9  H1  UNK     1     -10.986  16.080  69.381  1.00  0.00     0.000 HD 
ENDROOT
BRANCH   5  10
HETATM   10  C   UNK     1     -12.412  14.001  69.684  1.00  0.00    -0.157 C  
BRANCH  10  11
HETATM   11  C   UNK     1     -11.905  12.755  70.405  1.00  0.00    -0.238 C  
BRANCH  11  12
HETATM   12  C   UNK     1     -11.461  11.669  69.414  1.00  0.00    -0.372 C  
BRANCH  12  13
HETATM   13  C   UNK     1     -11.837  10.244  69.839  1.00  0.00    -0.193 C  
HETATM   14  C   UNK     1     -10.600   9.331  69.790  1.00  0.00    -0.231 C  
HETATM   15  N   UNK     1     -12.396  10.217  71.219  1.00  0.00    -0.366 NA 
HETATM   16  O   UNK     1     -10.124   8.842  68.780  1.00  0.00    -0.188 OA 
HETATM   17  O   UNK     1     -10.067   9.167  71.031  1.00  0.00    -0.252 OA 
HETATM   18  H1  UNK     1     -12.645   9.269  71.501  1.00  0.00     0.000 HD 
HETATM   19  H2  UNK     1     -13.184  10.856  71.315  1.00  0.00     0.000 HD 
ENDBRANCH  12  13
ENDBRANCH  11  12
ENDBRANCH  10  11
ENDBRANCH   5  10
TORSDOF 4
ENDMDL
MODEL      204
REMARK 921   NORMALIZED FREE ENERGY PREDICTED BY IDOCK:   -2.98 KCAL/MOL
REMARK 922        TOTAL FREE ENERGY PREDICTED BY IDOCK:   -4.12 KCAL/MOL
REMARK 923 INTER-LIGAND FREE ENERGY PREDICTED BY IDOCK:   -3.84 KCAL/MOL
REMARK 924 INTRA-LIGAND FREE ENERGY PREDICTED BY IDOCK:   -0.27 KCAL/MOL
REMARK 927      BINDING AFFINITY PREDICTED BY RF-SCORE:    0.00 PKD
ROOT
HETATM    1  C   UNK     1      -5.414  14.089  72.199  1.00  0.00    -0.201 C  
HETATM    2  N   UNK     1      -6.179  13.535  71.104  1.00  0.00    -0.533 NA 
HETATM    3  H   UNK     1      -6.428  12.547  71.145  1.00  0.00     0.000 HD 
HETATM    4  C   UNK     1      -6.583  14.252  70.027  1.00  0.00    -0.088 C  
HETATM    5  N   UNK     1      -7.445  13.534  69.262  1.00  0.00    -0.317 NA 
HETATM    6  N   UNK     1      -6.215  15.445  69.725  1.00  0.00    -0.148 NA 
HETATM    7  H   UNK     1      -7.827  12.652  69.606  1.00  0.00     0.000 HD 
HETATM    8  H2  UNK     1      -5.554  15.897  70.357  1.00  0.00     0.000 HD 
HETATM    9  H1  UNK     1      -6.518  15.984  68.914  1.00  0.00     0.000 HD 
ENDROOT
BRANCH   5  10
HETATM   10  C   UNK     1      -7.822  14.034  67.944  1.00  0.00    -0.160 C  
BRANCH  10  11
HETATM   11  C   UNK     1      -9.167  13.442  67.534  1.00  0.00    -0.219 C  
BRANCH  11  12
HETATM   12  C   UNK     1     -10.305  14.462  67.694  1.00  0.00    -0.237 C  
BRANCH  12  13
HETATM   13  C   UNK     1     -10.682  15.186  66.395  1.00  0.00    -0.317 C  
HETATM   14  C   UNK     1     -10.148  16.629  66.418  1.00  0.00    -0.315 C  
HETATM   15  N   UNK     1     -10.126  14.490  65.202  1.00  0.00    -0.479 NA 
HETATM   16  O   UNK     1     -10.656  17.560  67.016  1.00  0.00    -0.321 OA 
HETATM   17  O   UNK     1      -8.992  16.730  65.706  1.00  0.00    -0.508 OA 
HETATM   18  H1  UNK     1     -10.376  14.972  64.339  1.00  0.00     0.000 HD 
HETATM   19  H2  UNK     1     -10.406  13.510  65.178  1.00  0.00     0.000 HD 
ENDBRANCH  12  13
ENDBRANCH  11  12
ENDBRANCH  10  11
ENDBRANCH   5  10
TORSDOF 4
ENDMDL
MODEL      205
REMARK 921   NORMALIZED FREE ENERGY PREDICTED BY IDOCK:   -2.97 KCAL/MOL
REMARK 922        TOTAL FREE ENERGY PREDICTED BY IDOCK:   -4.10 KCAL/MOL
REMARK 923 INTER-LIGAND FREE ENERGY PREDICTED BY IDOCK:   -3.86 KCAL/MOL
REMARK 924 INTRA-LIGAND FREE ENERGY PREDICTED BY IDOCK:   -0.24 KCAL/MOL
REMARK 927      BINDING AFFINITY PREDICTED BY RF-SCORE:    0.00 PKD
ROOT
HETATM    1  C   UNK     1      -6.996  10.610  66.628  1.00  0.00    -0.119 C  
HETATM    2  N   UNK     1      -7.448  11.982  66.674  1.00  0.00    -0.375 NA 
HETATM    3  H   UNK     1      -7.292  12.567  65.852  1.00  0.00     0.000 HD 
HETATM    4  C   UNK     1      -8.067  12.538  67.745  1.00  0.00    -0.164 C  
HETATM    5  N   UNK     1      -8.554  13.768  67.439  1.00  0.00    -0.192 NA 
HETATM    6  N   UNK     1      -8.185  12.014  68.911  1.00  0.00    -0.356 NA 
HETATM    7  H   UNK     1      -8.571  14.089  66.471  1.00  0.00     0.000 HD 
HETATM    8  H2  UNK     1      -7.775  11.089  69.045  1.00  0.00     0.000 HD 
HETATM    9  H1  UNK     1      -8.651  12.431  69.717  1.00  0.00     0.000 HD 
ENDROOT
BRANCH   5  10
HETATM   10  C   UNK     1      -9.054  14.627  68.508  1.00  0.00    -0.188 C  
BRANCH  10  11
HETATM   11  C   UNK     1      -9.993  15.680  67.925  1.00  0.00    -0.223 C  
BRANCH  11  12
HETATM   12  C   UNK     1      -9.505  16.176  66.556  1.00  0.00    -0.289 C  
BRANCH  12  13
HETATM   13  C   UNK     1      -9.177  17.675  66.516  1.00  0.00    -0.269 C  
HETATM   14  C   UNK     1     -10.440  18.487  66.182  1.00  0.00    -0.413 C  
HETATM   15  N   UNK     1      -8.636  18.149  67.819  1.00  0.00    -0.252 NA 
HETATM   16  O   UNK     1     -10.918  18.621  65.069  1.00  0.00    -0.559 OA 
HETATM   17  O   UNK     1     -10.992  19.013  67.309  1.00  0.00    -0.459 OA 
HETATM   18  H1  UNK     1      -8.418  19.145  67.792  1.00  0.00     0.000 HD 
HETATM   19  H2  UNK     1      -7.829  17.597  68.111  1.00  0.00     0.000 HD 
ENDBRANCH  12  13
ENDBRANCH  11  12
ENDBRANCH  10  11
ENDBRANCH   5  10
TORSDOF 4
ENDMDL
MODEL      206
REMARK 921   NORMALIZED FREE ENERGY PREDICTED BY IDOCK:   -2.96 KCAL/MOL
REMARK 922        TOTAL FREE ENERGY PREDICTED BY IDOCK:   -4.09 KCAL/MOL
REMARK 923 INTER-LIGAND FREE ENERGY PREDICTED BY IDOCK:   -3.89 KCAL/MOL
REMARK 924 INTRA-LIGAND FREE ENERGY PREDICTED BY IDOCK:   -0.20 KCAL/MOL
REMARK 927      BINDING AFFINITY PREDICTED BY RF-SCORE:    0.00 PKD
ROOT
HETATM    1  C   UNK     1      -8.394   7.016  65.987  1.00  0.00    -0.134 C  
HETATM    2  N   UNK     1      -8.770   8.322  66.479  1.00  0.00    -0.134 NA 
HETATM    3  H   UNK     1      -8.064   9.058  66.475  1.00  0.00     0.000 HD 
HETATM    4  C   UNK     1     -10.007   8.625  66.945  1.00  0.00    -0.260 C  
HETATM    5  N   UNK     1     -10.133   9.962  67.151  1.00  0.00    -0.203 NA 
HETATM    6  N   UNK     1     -10.954   7.793  67.186  1.00  0.00    -0.498 NA 
HETATM    7  H   UNK     1      -9.417  10.605  66.812  1.00  0.00     0.000 HD 
HETATM    8  H2  UNK     1     -10.758   6.807  67.010  1.00  0.00     0.000 HD 
HETATM    9  H1  UNK     1     -11.885   8.020  67.537  1.00  0.00     0.000 HD 
ENDROOT
BRANCH   5  10
HETATM   10  C   UNK     1     -11.302  10.471  67.860  1.00  0.00    -0.222 C  
BRANCH  10  11
HETATM   11  C   UNK     1     -11.706  11.825  67.283  1.00  0.00    -0.293 C  
BRANCH  11  12
HETATM   12  C   UNK     1     -10.600  12.412  66.393  1.00  0.00    -0.271 C  
BRANCH  12  13
HETATM   13  C   UNK     1     -11.011  13.688  65.648  1.00  0.00    -0.290 C  
HETATM   14  C   UNK     1     -10.878  14.910  66.573  1.00  0.00    -0.322 C  
HETATM   15  N   UNK     1     -10.168  13.910  64.441  1.00  0.00    -0.732 NA 
HETATM   16  O   UNK     1     -11.674  15.228  67.439  1.00  0.00    -0.268 OA 
HETATM   17  O   UNK     1      -9.720  15.581  66.330  1.00  0.00    -0.259 OA 
HETATM   18  H1  UNK     1     -10.441  14.759  63.946  1.00  0.00     0.000 HD 
HETATM   19  H2  UNK     1     -10.177  13.098  63.824  1.00  0.00     0.000 HD 
ENDBRANCH  12  13
ENDBRANCH  11  12
ENDBRANCH  10  11
ENDBRANCH   5  10
TORSDOF 4
ENDMDL
MODEL      207
REMARK 921   NORMALIZED FREE ENERGY PREDICTED BY IDOCK:   -2.95 KCAL/MOL
REMARK 922        TOTAL FREE ENERGY PREDICTED BY IDOCK:   -4.07 KCAL/MOL
REMARK 923 INTER-LIGAND FREE ENERGY PREDICTED BY IDOCK:   -3.57 KCAL/MOL
REMARK 924 INTRA-LIGAND FREE ENERGY PREDICTED BY IDOCK:   -0.50 KCAL/MOL
REMARK 927      BINDING AFFINITY PREDICTED BY RF-SCORE:    0.00 PKD
ROOT
HETATM    1  C   UNK     1      -9.525   2.965  70.543  1.00  0.00    -0.140 C  
HETATM    2  N   UNK     1      -9.294   4.391  70.486  1.00  0.00    -0.128 NA 
HETATM    3  H   UNK     1      -9.217   4.828  69.568  1.00  0.00     0.000 HD 
HETATM    4  C   UNK     1      -9.174   5.180  71.583  1.00  0.00    -0.145 C  
HETATM    5  N   UNK     1      -9.163   6.493  71.236  1.00  0.00    -0.155 NA 
HETATM    6  N   UNK     1      -9.069   4.782  72.799  1.00  0.00    -0.122 NA 
HETATM    7  H   UNK     1      -9.395   6.776  70.283  1.00  0.00     0.000 HD 
HETATM    8  H2  UNK     1      -9.075   3.774  72.956  1.00  0.00     0.000 HD 
HETATM    9  H1  UNK     1      -8.978   5.375  73.624  1.00  0.00     0.000 HD 
ENDROOT
BRANCH   5  10
HETATM   10  C   UNK     1      -8.817   7.496  72.237  1.00  0.00    -0.129 C  
BRANCH  10  11
HETATM   11  C   UNK     1      -9.871   8.600  72.247  1.00  0.00    -0.360 C  
BRANCH  11  12
HETATM   12  C   UNK     1     -11.227   8.081  72.749  1.00  0.00    -0.448 C  
BRANCH  12  13
HETATM   13  C   UNK     1     -12.367   8.232  71.733  1.00  0.00    -0.328 C  
HETATM   14  C   UNK     1     -12.600   9.718  71.411  1.00  0.00    -0.386 C  
HETATM   15  N   UNK     1     -12.067   7.510  70.466  1.00  0.00    -0.521 NA 
HETATM   16  O   UNK     1     -13.203  10.506  72.118  1.00  0.00    -0.458 OA 
HETATM   17  O   UNK     1     -12.002  10.060  70.238  1.00  0.00    -0.249 OA 
HETATM   18  H1  UNK     1     -12.825   7.611  69.791  1.00  0.00     0.000 HD 
HETATM   19  H2  UNK     1     -11.846   6.530  70.638  1.00  0.00     0.000 HD 
ENDBRANCH  12  13
ENDBRANCH  11  12
ENDBRANCH  10  11
ENDBRANCH   5  10
TORSDOF 4
ENDMDL
MODEL      208
REMARK 921   NORMALIZED FREE ENERGY PREDICTED BY IDOCK:   -2.92 KCAL/MOL
REMARK 922        TOTAL FREE ENERGY PREDICTED BY IDOCK:   -4.04 KCAL/MOL
REMARK 923 INTER-LIGAND FREE ENERGY PREDICTED BY IDOCK:   -3.94 KCAL/MOL
REMARK 924 INTRA-LIGAND FREE ENERGY PREDICTED BY IDOCK:   -0.11 KCAL/MOL
REMARK 927      BINDING AFFINITY PREDICTED BY RF-SCORE:    0.00 PKD
ROOT
HETATM    1  C   UNK     1     -12.146  13.215  63.645  1.00  0.00    -0.513 C  
HETATM    2  N   UNK     1     -12.015  12.243  64.707  1.00  0.00    -0.378 NA 
HETATM    3  H   UNK     1     -12.699  11.488  64.753  1.00  0.00     0.000 HD 
HETATM    4  C   UNK     1     -11.037  12.277  65.645  1.00  0.00    -0.317 C  
HETATM    5  N   UNK     1     -11.039  11.141  66.390  1.00  0.00    -0.202 NA 
HETATM    6  N   UNK     1     -10.209  13.238  65.846  1.00  0.00    -0.289 NA 
HETATM    7  H   UNK     1     -11.610  10.344  66.111  1.00  0.00     0.000 HD 
HETATM    8  H2  UNK     1     -10.295  14.055  65.241  1.00  0.00     0.000 HD 
HETATM    9  H1  UNK     1      -9.473  13.265  66.552  1.00  0.00     0.000 HD 
ENDROOT
BRANCH   5  10
HETATM   10  C   UNK     1     -10.217  11.072  67.594  1.00  0.00    -0.182 C  
BRANCH  10  11
HETATM   11  C   UNK     1     -10.901  11.830  68.728  1.00  0.00    -0.268 C  
BRANCH  11  12
HETATM   12  C   UNK     1     -11.326  10.886  69.863  1.00  0.00    -0.381 C  
BRANCH  12  13
HETATM   13  C   UNK     1     -10.740   9.473  69.753  1.00  0.00    -0.239 C  
HETATM   14  C   UNK     1      -9.482   9.350  70.629  1.00  0.00    -0.262 C  
HETATM   15  N   UNK     1     -11.723   8.440  70.181  1.00  0.00    -0.454 NA 
HETATM   16  O   UNK     1      -8.375   9.769  70.338  1.00  0.00    -0.185 OA 
HETATM   17  O   UNK     1      -9.771   8.740  71.811  1.00  0.00    -0.265 OA 
HETATM   18  H1  UNK     1     -11.332   7.501  70.107  1.00  0.00     0.000 HD 
HETATM   19  H2  UNK     1     -12.599   8.523  69.665  1.00  0.00     0.000 HD 
ENDBRANCH  12  13
ENDBRANCH  11  12
ENDBRANCH  10  11
ENDBRANCH   5  10
TORSDOF 4
ENDMDL
MODEL      209
REMARK 921   NORMALIZED FREE ENERGY PREDICTED BY IDOCK:   -2.92 KCAL/MOL
REMARK 922        TOTAL FREE ENERGY PREDICTED BY IDOCK:   -4.04 KCAL/MOL
REMARK 923 INTER-LIGAND FREE ENERGY PREDICTED BY IDOCK:   -3.75 KCAL/MOL
REMARK 924 INTRA-LIGAND FREE ENERGY PREDICTED BY IDOCK:   -0.29 KCAL/MOL
REMARK 927      BINDING AFFINITY PREDICTED BY RF-SCORE:    0.00 PKD
ROOT
HETATM    1  C   UNK     1     -10.615  16.855  68.553  1.00  0.00    -0.367 C  
HETATM    2  N   UNK     1     -10.975  15.517  68.143  1.00  0.00    -0.299 NA 
HETATM    3  H   UNK     1     -11.146  15.348  67.152  1.00  0.00     0.000 HD 
HETATM    4  C   UNK     1     -11.100  14.472  69.000  1.00  0.00    -0.262 C  
HETATM    5  N   UNK     1     -11.249  13.305  68.322  1.00  0.00    -0.260 NA 
HETATM    6  N   UNK     1     -11.096  14.536  70.283  1.00  0.00    -0.471 NA 
HETATM    7  H   UNK     1     -11.101  13.272  67.314  1.00  0.00     0.000 HD 
HETATM    8  H2  UNK     1     -10.990  15.462  70.698  1.00  0.00     0.000 HD 
HETATM    9  H1  UNK     1     -11.190  13.751  70.927  1.00  0.00     0.000 HD 
ENDROOT
BRANCH   5  10
HETATM   10  C   UNK     1     -11.623  12.097  69.051  1.00  0.00    -0.319 C  
BRANCH  10  11
HETATM   11  C   UNK     1     -11.576  10.895  68.112  1.00  0.00    -0.317 C  
BRANCH  11  12
HETATM   12  C   UNK     1     -10.499   9.886  68.538  1.00  0.00    -0.232 C  
BRANCH  12  13
HETATM   13  C   UNK     1      -9.704  10.309  69.780  1.00  0.00    -0.144 C  
HETATM   14  C   UNK     1      -9.938   9.312  70.927  1.00  0.00    -0.297 C  
HETATM   15  N   UNK     1      -8.244  10.375  69.495  1.00  0.00    -0.288 NA 
HETATM   16  O   UNK     1     -10.924   9.278  71.642  1.00  0.00    -0.355 OA 
HETATM   17  O   UNK     1      -8.907   8.428  71.021  1.00  0.00    -0.138 OA 
HETATM   18  H1  UNK     1      -7.715  10.657  70.321  1.00  0.00     0.000 HD 
HETATM   19  H2  UNK     1      -8.046  10.982  68.700  1.00  0.00     0.000 HD 
ENDBRANCH  12  13
ENDBRANCH  11  12
ENDBRANCH  10  11
ENDBRANCH   5  10
TORSDOF 4
ENDMDL
MODEL      210
REMARK 921   NORMALIZED FREE ENERGY PREDICTED BY IDOCK:   -2.90 KCAL/MOL
REMARK 922        TOTAL FREE ENERGY PREDICTED BY IDOCK:   -4.01 KCAL/MOL
REMARK 923 INTER-LIGAND FREE ENERGY PREDICTED BY IDOCK:   -3.79 KCAL/MOL
REMARK 924 INTRA-LIGAND FREE ENERGY PREDICTED BY IDOCK:   -0.22 KCAL/MOL
REMARK 927      BINDING AFFINITY PREDICTED BY RF-SCORE:    0.00 PKD
ROOT
HETATM    1  C   UNK     1     -11.015  13.700  65.929  1.00  0.00    -0.282 C  
HETATM    2  N   UNK     1     -11.737  12.880  66.876  1.00  0.00    -0.366 NA 
HETATM    3  H   UNK     1     -12.630  12.485  66.585  1.00  0.00     0.000 HD 
HETATM    4  C   UNK     1     -11.294  12.607  68.128  1.00  0.00    -0.290 C  
HETATM    5  N   UNK     1     -12.068  11.660  68.720  1.00  0.00    -0.433 NA 
HETATM    6  N   UNK     1     -10.294  13.155  68.719  1.00  0.00    -0.393 NA 
HETATM    7  H   UNK     1     -12.759  11.145  68.174  1.00  0.00     0.000 HD 
HETATM    8  H2  UNK     1      -9.782  13.865  68.195  1.00  0.00     0.000 HD 
HETATM    9  H1  UNK     1      -9.961  12.950  69.661  1.00  0.00     0.000 HD 
ENDROOT
BRANCH   5  10
HETATM   10  C   UNK     1     -11.902  11.386  70.144  1.00  0.00    -0.355 C  
BRANCH  10  11
HETATM   11  C   UNK     1     -11.724   9.886  70.362  1.00  0.00    -0.333 C  
BRANCH  11  12
HETATM   12  C   UNK     1     -10.559   9.588  71.317  1.00  0.00    -0.358 C  
BRANCH  12  13
HETATM   13  C   UNK     1      -9.323   8.996  70.627  1.00  0.00    -0.234 C  
HETATM   14  C   UNK     1      -8.918   9.866  69.424  1.00  0.00    -0.195 C  
HETATM   15  N   UNK     1      -8.167   8.908  71.562  1.00  0.00    -0.306 NA 
HETATM   16  O   UNK     1      -9.460   9.856  68.333  1.00  0.00    -0.135 OA 
HETATM   17  O   UNK     1      -7.887  10.693  69.747  1.00  0.00    -0.106 OA 
HETATM   18  H1  UNK     1      -7.346   8.515  71.103  1.00  0.00     0.000 HD 
HETATM   19  H2  UNK     1      -8.409   8.389  72.406  1.00  0.00     0.000 HD 
ENDBRANCH  12  13
ENDBRANCH  11  12
ENDBRANCH  10  11
ENDBRANCH   5  10
TORSDOF 4
ENDMDL
MODEL      211
REMARK 921   NORMALIZED FREE ENERGY PREDICTED BY IDOCK:   -2.90 KCAL/MOL
REMARK 922        TOTAL FREE ENERGY PREDICTED BY IDOCK:   -4.01 KCAL/MOL
REMARK 923 INTER-LIGAND FREE ENERGY PREDICTED BY IDOCK:   -3.82 KCAL/MOL
REMARK 924 INTRA-LIGAND FREE ENERGY PREDICTED BY IDOCK:   -0.19 KCAL/MOL
REMARK 927      BINDING AFFINITY PREDICTED BY RF-SCORE:    0.00 PKD
ROOT
HETATM    1  C   UNK     1      -9.268   9.556  65.158  1.00  0.00    -0.244 C  
HETATM    2  N   UNK     1     -10.246   8.885  65.983  1.00  0.00    -0.349 NA 
HETATM    3  H   UNK     1     -11.201   9.241  65.981  1.00  0.00     0.000 HD 
HETATM    4  C   UNK     1      -9.966   7.808  66.760  1.00  0.00    -0.261 C  
HETATM    5  N   UNK     1     -11.105   7.267  67.265  1.00  0.00    -0.583 NA 
HETATM    6  N   UNK     1      -8.799   7.341  67.020  1.00  0.00    -0.125 NA 
HETATM    7  H   UNK     1     -12.016   7.571  66.922  1.00  0.00     0.000 HD 
HETATM    8  H2  UNK     1      -8.004   7.825  66.602  1.00  0.00     0.000 HD 
HETATM    9  H1  UNK     1      -8.588   6.531  67.604  1.00  0.00     0.000 HD 
ENDROOT
BRANCH   5  10
HETATM   10  C   UNK     1     -11.013   6.244  68.302  1.00  0.00    -0.321 C  
BRANCH  10  11
HETATM   11  C   UNK     1     -11.608   6.776  69.603  1.00  0.00    -0.234 C  
BRANCH  11  12
HETATM   12  C   UNK     1     -10.629   6.623  70.777  1.00  0.00    -0.265 C  
BRANCH  12  13
HETATM   13  C   UNK     1     -11.231   5.928  72.005  1.00  0.00    -0.273 C  
HETATM   14  C   UNK     1     -10.163   5.767  73.101  1.00  0.00    -0.193 C  
HETATM   15  N   UNK     1     -12.374   6.702  72.563  1.00  0.00    -0.503 NA 
HETATM   16  O   UNK     1      -9.293   4.914  73.117  1.00  0.00    -0.122 OA 
HETATM   17  O   UNK     1     -10.286   6.738  74.046  1.00  0.00    -0.352 OA 
HETATM   18  H1  UNK     1     -12.773   6.241  73.380  1.00  0.00     0.000 HD 
HETATM   19  H2  UNK     1     -13.082   6.886  71.853  1.00  0.00     0.000 HD 
ENDBRANCH  12  13
ENDBRANCH  11  12
ENDBRANCH  10  11
ENDBRANCH   5  10
TORSDOF 4
ENDMDL
MODEL      212
REMARK 921   NORMALIZED FREE ENERGY PREDICTED BY IDOCK:   -2.89 KCAL/MOL
REMARK 922        TOTAL FREE ENERGY PREDICTED BY IDOCK:   -4.00 KCAL/MOL
REMARK 923 INTER-LIGAND FREE ENERGY PREDICTED BY IDOCK:   -3.82 KCAL/MOL
REMARK 924 INTRA-LIGAND FREE ENERGY PREDICTED BY IDOCK:   -0.18 KCAL/MOL
REMARK 927      BINDING AFFINITY PREDICTED BY RF-SCORE:    0.00 PKD
ROOT
HETATM    1  C   UNK     1     -10.596   4.979  70.270  1.00  0.00    -0.064 C  
HETATM    2  N   UNK     1     -10.978   6.372  70.342  1.00  0.00    -0.282 NA 
HETATM    3  H   UNK     1     -11.509   6.682  71.156  1.00  0.00     0.000 HD 
HETATM    4  C   UNK     1     -10.671   7.288  69.391  1.00  0.00    -0.225 C  
HETATM    5  N   UNK     1     -10.977   8.543  69.811  1.00  0.00    -0.389 NA 
HETATM    6  N   UNK     1     -10.170   7.045  68.234  1.00  0.00    -0.174 NA 
HETATM    7  H   UNK     1     -11.234   8.713  70.784  1.00  0.00     0.000 HD 
HETATM    8  H2  UNK     1      -9.986   6.068  68.007  1.00  0.00     0.000 HD 
HETATM    9  H1  UNK     1      -9.939   7.735  67.518  1.00  0.00     0.000 HD 
ENDROOT
BRANCH   5  10
HETATM   10  C   UNK     1     -10.936   9.648  68.858  1.00  0.00    -0.121 C  
BRANCH  10  11
HETATM   11  C   UNK     1     -11.321  10.947  69.559  1.00  0.00    -0.351 C  
BRANCH  11  12
HETATM   12  C   UNK     1     -11.894  11.974  68.570  1.00  0.00    -0.369 C  
BRANCH  12  13
HETATM   13  C   UNK     1     -10.986  12.256  67.367  1.00  0.00    -0.253 C  
HETATM   14  C   UNK     1     -11.806  12.854  66.211  1.00  0.00    -0.416 C  
HETATM   15  N   UNK     1      -9.895  13.206  67.719  1.00  0.00    -0.221 NA 
HETATM   16  O   UNK     1     -12.518  12.222  65.451  1.00  0.00    -0.596 OA 
HETATM   17  O   UNK     1     -11.668  14.207  66.165  1.00  0.00    -0.363 OA 
HETATM   18  H1  UNK     1      -9.291  13.394  66.918  1.00  0.00     0.000 HD 
HETATM   19  H2  UNK     1      -9.359  12.879  68.522  1.00  0.00     0.000 HD 
ENDBRANCH  12  13
ENDBRANCH  11  12
ENDBRANCH  10  11
ENDBRANCH   5  10
TORSDOF 4
ENDMDL
MODEL      213
REMARK 921   NORMALIZED FREE ENERGY PREDICTED BY IDOCK:   -2.89 KCAL/MOL
REMARK 922        TOTAL FREE ENERGY PREDICTED BY IDOCK:   -4.00 KCAL/MOL
REMARK 923 INTER-LIGAND FREE ENERGY PREDICTED BY IDOCK:   -3.55 KCAL/MOL
REMARK 924 INTRA-LIGAND FREE ENERGY PREDICTED BY IDOCK:   -0.45 KCAL/MOL
REMARK 927      BINDING AFFINITY PREDICTED BY RF-SCORE:    0.00 PKD
ROOT
HETATM    1  C   UNK     1     -11.260   6.335  70.124  1.00  0.00    -0.403 C  
HETATM    2  N   UNK     1     -11.279   6.840  68.770  1.00  0.00    -0.534 NA 
HETATM    3  H   UNK     1     -11.931   6.418  68.109  1.00  0.00     0.000 HD 
HETATM    4  C   UNK     1     -10.480   7.843  68.328  1.00  0.00    -0.164 C  
HETATM    5  N   UNK     1     -10.849   8.243  67.083  1.00  0.00    -0.446 NA 
HETATM    6  N   UNK     1      -9.491   8.363  68.960  1.00  0.00    -0.150 NA 
HETATM    7  H   UNK     1     -11.723   7.913  66.673  1.00  0.00     0.000 HD 
HETATM    8  H2  UNK     1      -9.286   7.985  69.885  1.00  0.00     0.000 HD 
HETATM    9  H1  UNK     1      -8.890   9.117  68.628  1.00  0.00     0.000 HD 
ENDROOT
BRANCH   5  10
HETATM   10  C   UNK     1      -9.984   9.151  66.337  1.00  0.00    -0.288 C  
BRANCH  10  11
HETATM   11  C   UNK     1     -10.697  10.483  66.123  1.00  0.00    -0.115 C  
BRANCH  11  12
HETATM   12  C   UNK     1      -9.719  11.585  65.690  1.00  0.00    -0.261 C  
BRANCH  12  13
HETATM   13  C   UNK     1      -9.481  12.662  66.757  1.00  0.00    -0.237 C  
HETATM   14  C   UNK     1      -8.357  12.225  67.712  1.00  0.00    -0.162 C  
HETATM   15  N   UNK     1      -9.104  13.964  66.141  1.00  0.00    -0.489 NA 
HETATM   16  O   UNK     1      -8.479  11.428  68.626  1.00  0.00    -0.155 OA 
HETATM   17  O   UNK     1      -7.178  12.816  67.378  1.00  0.00    -0.146 OA 
HETATM   18  H1  UNK     1      -8.946  14.680  66.850  1.00  0.00     0.000 HD 
HETATM   19  H2  UNK     1      -9.794  14.265  65.453  1.00  0.00     0.000 HD 
ENDBRANCH  12  13
ENDBRANCH  11  12
ENDBRANCH  10  11
ENDBRANCH   5  10
TORSDOF 4
ENDMDL
MODEL      214
REMARK 921   NORMALIZED FREE ENERGY PREDICTED BY IDOCK:   -2.88 KCAL/MOL
REMARK 922        TOTAL FREE ENERGY PREDICTED BY IDOCK:   -3.99 KCAL/MOL
REMARK 923 INTER-LIGAND FREE ENERGY PREDICTED BY IDOCK:   -3.75 KCAL/MOL
REMARK 924 INTRA-LIGAND FREE ENERGY PREDICTED BY IDOCK:   -0.24 KCAL/MOL
REMARK 927      BINDING AFFINITY PREDICTED BY RF-SCORE:    0.00 PKD
ROOT
HETATM    1  C   UNK     1     -10.667  17.036  68.295  1.00  0.00    -0.372 C  
HETATM    2  N   UNK     1     -11.627  15.989  68.561  1.00  0.00    -0.367 NA 
HETATM    3  H   UNK     1     -12.485  15.973  68.011  1.00  0.00     0.000 HD 
HETATM    4  C   UNK     1     -11.452  15.026  69.500  1.00  0.00    -0.294 C  
HETATM    5  N   UNK     1     -12.409  14.068  69.396  1.00  0.00    -0.455 NA 
HETATM    6  N   UNK     1     -10.529  14.993  70.393  1.00  0.00    -0.510 NA 
HETATM    7  H   UNK     1     -13.033  14.049  68.589  1.00  0.00     0.000 HD 
HETATM    8  H2  UNK     1      -9.864  15.766  70.397  1.00  0.00     0.000 HD 
HETATM    9  H1  UNK     1     -10.397  14.269  71.099  1.00  0.00     0.000 HD 
ENDROOT
BRANCH   5  10
HETATM   10  C   UNK     1     -12.536  13.065  70.448  1.00  0.00    -0.194 C  
BRANCH  10  11
HETATM   11  C   UNK     1     -11.827  11.781  70.024  1.00  0.00    -0.422 C  
BRANCH  11  12
HETATM   12  C   UNK     1     -11.234  11.903  68.613  1.00  0.00    -0.311 C  
BRANCH  12  13
HETATM   13  C   UNK     1      -9.710  11.739  68.560  1.00  0.00    -0.178 C  
HETATM   14  C   UNK     1      -9.327  10.646  67.548  1.00  0.00    -0.146 C  
HETATM   15  N   UNK     1      -9.039  13.009  68.168  1.00  0.00    -0.202 NA 
HETATM   16  O   UNK     1      -9.391   9.446  67.749  1.00  0.00    -0.129 OA 
HETATM   17  O   UNK     1      -8.940  11.194  66.364  1.00  0.00    -0.170 OA 
HETATM   18  H1  UNK     1      -8.025  12.900  68.133  1.00  0.00     0.000 HD 
HETATM   19  H2  UNK     1      -9.311  13.779  68.778  1.00  0.00     0.000 HD 
ENDBRANCH  12  13
ENDBRANCH  11  12
ENDBRANCH  10  11
ENDBRANCH   5  10
TORSDOF 4
ENDMDL
MODEL      215
REMARK 921   NORMALIZED FREE ENERGY PREDICTED BY IDOCK:   -2.88 KCAL/MOL
REMARK 922        TOTAL FREE ENERGY PREDICTED BY IDOCK:   -3.99 KCAL/MOL
REMARK 923 INTER-LIGAND FREE ENERGY PREDICTED BY IDOCK:   -3.23 KCAL/MOL
REMARK 924 INTRA-LIGAND FREE ENERGY PREDICTED BY IDOCK:   -0.76 KCAL/MOL
REMARK 927      BINDING AFFINITY PREDICTED BY RF-SCORE:    0.00 PKD
ROOT
HETATM    1  C   UNK     1      -5.335  12.171  68.173  1.00  0.00    -0.057 C  
HETATM    2  N   UNK     1      -5.941  13.184  67.340  1.00  0.00    -0.334 NA 
HETATM    3  H   UNK     1      -5.918  13.051  66.329  1.00  0.00     0.000 HD 
HETATM    4  C   UNK     1      -6.537  14.302  67.823  1.00  0.00    -0.174 C  
HETATM    5  N   UNK     1      -7.188  14.970  66.836  1.00  0.00    -0.309 NA 
HETATM    6  N   UNK     1      -6.504  14.717  69.038  1.00  0.00    -0.091 NA 
HETATM    7  H   UNK     1      -7.316  14.539  65.920  1.00  0.00     0.000 HD 
HETATM    8  H2  UNK     1      -5.978  14.151  69.704  1.00  0.00     0.000 HD 
HETATM    9  H1  UNK     1      -6.952  15.558  69.403  1.00  0.00     0.000 HD 
ENDROOT
BRANCH   5  10
HETATM   10  C   UNK     1      -7.703  16.311  67.097  1.00  0.00    -0.188 C  
BRANCH  10  11
HETATM   11  C   UNK     1      -9.155  16.402  66.638  1.00  0.00    -0.278 C  
BRANCH  11  12
HETATM   12  C   UNK     1     -10.125  16.424  67.829  1.00  0.00    -0.262 C  
BRANCH  12  13
HETATM   13  C   UNK     1     -10.632  15.037  68.246  1.00  0.00    -0.247 C  
HETATM   14  C   UNK     1     -10.800  14.138  67.009  1.00  0.00    -0.295 C  
HETATM   15  N   UNK     1      -9.692  14.376  69.193  1.00  0.00    -0.407 NA 
HETATM   16  O   UNK     1     -11.734  14.181  66.228  1.00  0.00    -0.359 OA 
HETATM   17  O   UNK     1      -9.735  13.302  66.868  1.00  0.00    -0.234 OA 
HETATM   18  H1  UNK     1     -10.029  13.454  69.470  1.00  0.00     0.000 HD 
HETATM   19  H2  UNK     1      -9.503  14.964  70.004  1.00  0.00     0.000 HD 
ENDBRANCH  12  13
ENDBRANCH  11  12
ENDBRANCH  10  11
ENDBRANCH   5  10
TORSDOF 4
ENDMDL
MODEL      216
REMARK 921   NORMALIZED FREE ENERGY PREDICTED BY IDOCK:   -2.88 KCAL/MOL
REMARK 922        TOTAL FREE ENERGY PREDICTED BY IDOCK:   -3.99 KCAL/MOL
REMARK 923 INTER-LIGAND FREE ENERGY PREDICTED BY IDOCK:   -3.70 KCAL/MOL
REMARK 924 INTRA-LIGAND FREE ENERGY PREDICTED BY IDOCK:   -0.28 KCAL/MOL
REMARK 927      BINDING AFFINITY PREDICTED BY RF-SCORE:    0.00 PKD
ROOT
HETATM    1  C   UNK     1      -9.088  20.066  65.866  1.00  0.00    -0.120 C  
HETATM    2  N   UNK     1      -9.716  18.798  66.160  1.00  0.00    -0.477 NA 
HETATM    3  H   UNK     1      -9.893  18.158  65.386  1.00  0.00     0.000 HD 
HETATM    4  C   UNK     1     -10.083  18.409  67.406  1.00  0.00    -0.353 C  
HETATM    5  N   UNK     1     -10.461  17.104  67.415  1.00  0.00    -0.343 NA 
HETATM    6  N   UNK     1     -10.100  19.145  68.459  1.00  0.00    -0.413 NA 
HETATM    7  H   UNK     1     -10.296  16.515  66.599  1.00  0.00     0.000 HD 
HETATM    8  H2  UNK     1      -9.809  20.116  68.347  1.00  0.00     0.000 HD 
HETATM    9  H1  UNK     1     -10.377  18.852  69.396  1.00  0.00     0.000 HD 
ENDROOT
BRANCH   5  10
HETATM   10  C   UNK     1     -11.104  16.552  68.604  1.00  0.00    -0.329 C  
BRANCH  10  11
HETATM   11  C   UNK     1     -10.124  15.649  69.347  1.00  0.00    -0.269 C  
BRANCH  11  12
HETATM   12  C   UNK     1      -9.582  14.535  68.440  1.00  0.00    -0.213 C  
BRANCH  12  13
HETATM   13  C   UNK     1     -10.145  13.143  68.757  1.00  0.00    -0.061 C  
HETATM   14  C   UNK     1     -11.091  12.684  67.634  1.00  0.00    -0.263 C  
HETATM   15  N   UNK     1      -9.058  12.137  68.905  1.00  0.00    -0.378 NA 
HETATM   16  O   UNK     1     -12.243  13.054  67.488  1.00  0.00    -0.272 OA 
HETATM   17  O   UNK     1     -10.459  11.831  66.783  1.00  0.00    -0.214 OA 
HETATM   18  H1  UNK     1      -9.433  11.212  69.116  1.00  0.00     0.000 HD 
HETATM   19  H2  UNK     1      -8.371  12.429  69.600  1.00  0.00     0.000 HD 
ENDBRANCH  12  13
ENDBRANCH  11  12
ENDBRANCH  10  11
ENDBRANCH   5  10
TORSDOF 4
ENDMDL
MODEL      217
REMARK 921   NORMALIZED FREE ENERGY PREDICTED BY IDOCK:   -2.87 KCAL/MOL
REMARK 922        TOTAL FREE ENERGY PREDICTED BY IDOCK:   -3.98 KCAL/MOL
REMARK 923 INTER-LIGAND FREE ENERGY PREDICTED BY IDOCK:   -3.70 KCAL/MOL
REMARK 924 INTRA-LIGAND FREE ENERGY PREDICTED BY IDOCK:   -0.28 KCAL/MOL
REMARK 927      BINDING AFFINITY PREDICTED BY RF-SCORE:    0.00 PKD
ROOT
HETATM    1  C   UNK     1      -7.580   6.276  65.130  1.00  0.00    -0.092 C  
HETATM    2  N   UNK     1      -8.121   6.449  66.458  1.00  0.00    -0.109 NA 
HETATM    3  H   UNK     1      -7.482   6.717  67.206  1.00  0.00     0.000 HD 
HETATM    4  C   UNK     1      -9.430   6.275  66.769  1.00  0.00    -0.144 C  
HETATM    5  N   UNK     1      -9.689   6.695  68.034  1.00  0.00    -0.123 NA 
HETATM    6  N   UNK     1     -10.333   5.773  66.005  1.00  0.00    -0.437 NA 
HETATM    7  H   UNK     1      -8.986   7.219  68.556  1.00  0.00     0.000 HD 
HETATM    8  H2  UNK     1     -10.037   5.476  65.075  1.00  0.00     0.000 HD 
HETATM    9  H1  UNK     1     -11.317   5.642  66.238  1.00  0.00     0.000 HD 
ENDROOT
BRANCH   5  10
HETATM   10  C   UNK     1     -10.980   6.389  68.641  1.00  0.00    -0.330 C  
BRANCH  10  11
HETATM   11  C   UNK     1     -10.784   6.019  70.109  1.00  0.00    -0.379 C  
BRANCH  11  12
HETATM   12  C   UNK     1     -11.752   6.789  71.020  1.00  0.00    -0.406 C  
BRANCH  12  13
HETATM   13  C   UNK     1     -11.114   7.986  71.738  1.00  0.00    -0.260 C  
HETATM   14  C   UNK     1     -11.549   9.301  71.070  1.00  0.00    -0.313 C  
HETATM   15  N   UNK     1     -11.504   8.029  73.175  1.00  0.00    -0.490 NA 
HETATM   16  O   UNK     1     -11.089   9.751  70.035  1.00  0.00    -0.242 OA 
HETATM   17  O   UNK     1     -12.558   9.890  71.766  1.00  0.00    -0.378 OA 
HETATM   18  H1  UNK     1     -11.080   8.824  73.652  1.00  0.00     0.000 HD 
HETATM   19  H2  UNK     1     -11.288   7.151  73.647  1.00  0.00     0.000 HD 
ENDBRANCH  12  13
ENDBRANCH  11  12
ENDBRANCH  10  11
ENDBRANCH   5  10
TORSDOF 4
ENDMDL
MODEL      218
REMARK 921   NORMALIZED FREE ENERGY PREDICTED BY IDOCK:   -2.87 KCAL/MOL
REMARK 922        TOTAL FREE ENERGY PREDICTED BY IDOCK:   -3.98 KCAL/MOL
REMARK 923 INTER-LIGAND FREE ENERGY PREDICTED BY IDOCK:   -3.98 KCAL/MOL
REMARK 924 INTRA-LIGAND FREE ENERGY PREDICTED BY IDOCK:    0.00 KCAL/MOL
REMARK 927      BINDING AFFINITY PREDICTED BY RF-SCORE:    0.00 PKD
ROOT
HETATM    1  C   UNK     1      -8.728   9.685  65.069  1.00  0.00    -0.175 C  
HETATM    2  N   UNK     1      -9.819   9.045  65.768  1.00  0.00    -0.461 NA 
HETATM    3  H   UNK     1     -10.749   9.456  65.686  1.00  0.00     0.000 HD 
HETATM    4  C   UNK     1      -9.679   7.929  66.527  1.00  0.00    -0.209 C  
HETATM    5  N   UNK     1     -10.890   7.439  66.896  1.00  0.00    -0.557 NA 
HETATM    6  N   UNK     1      -8.571   7.386  66.882  1.00  0.00    -0.118 NA 
HETATM    7  H   UNK     1     -11.744   7.807  66.478  1.00  0.00     0.000 HD 
HETATM    8  H2  UNK     1      -7.713   7.837  66.563  1.00  0.00     0.000 HD 
HETATM    9  H1  UNK     1      -8.465   6.547  67.453  1.00  0.00     0.000 HD 
ENDROOT
BRANCH   5  10
HETATM   10  C   UNK     1     -10.959   6.379  67.897  1.00  0.00    -0.325 C  
BRANCH  10  11
HETATM   11  C   UNK     1     -10.901   6.988  69.296  1.00  0.00    -0.241 C  
BRANCH  11  12
HETATM   12  C   UNK     1     -11.370   5.991  70.366  1.00  0.00    -0.322 C  
BRANCH  12  13
HETATM   13  C   UNK     1     -11.630   6.625  71.738  1.00  0.00    -0.304 C  
HETATM   14  C   UNK     1     -12.869   7.534  71.677  1.00  0.00    -0.358 C  
HETATM   15  N   UNK     1     -11.851   5.588  72.784  1.00  0.00    -0.481 NA 
HETATM   16  O   UNK     1     -12.894   8.662  71.216  1.00  0.00    -0.287 OA 
HETATM   17  O   UNK     1     -13.965   6.897  72.173  1.00  0.00    -0.143 OA 
HETATM   18  H1  UNK     1     -12.024   6.010  73.696  1.00  0.00     0.000 HD 
HETATM   19  H2  UNK     1     -11.078   4.924  72.820  1.00  0.00     0.000 HD 
ENDBRANCH  12  13
ENDBRANCH  11  12
ENDBRANCH  10  11
ENDBRANCH   5  10
TORSDOF 4
ENDMDL
MODEL      219
REMARK 921   NORMALIZED FREE ENERGY PREDICTED BY IDOCK:   -2.85 KCAL/MOL
REMARK 922        TOTAL FREE ENERGY PREDICTED BY IDOCK:   -3.96 KCAL/MOL
REMARK 923 INTER-LIGAND FREE ENERGY PREDICTED BY IDOCK:   -3.78 KCAL/MOL
REMARK 924 INTRA-LIGAND FREE ENERGY PREDICTED BY IDOCK:   -0.18 KCAL/MOL
REMARK 927      BINDING AFFINITY PREDICTED BY RF-SCORE:    0.00 PKD
ROOT
HETATM    1  C   UNK     1     -10.692  19.289  65.584  1.00  0.00    -0.251 C  
HETATM    2  N   UNK     1     -10.292  18.073  66.255  1.00  0.00    -0.393 NA 
HETATM    3  H   UNK     1      -9.836  18.153  67.163  1.00  0.00     0.000 HD 
HETATM    4  C   UNK     1     -10.488  16.831  65.746  1.00  0.00    -0.292 C  
HETATM    5  N   UNK     1     -10.199  15.878  66.670  1.00  0.00    -0.280 NA 
HETATM    6  N   UNK     1     -10.879  16.549  64.556  1.00  0.00    -1.008 NA 
HETATM    7  H   UNK     1     -10.034  16.136  67.643  1.00  0.00     0.000 HD 
HETATM    8  H2  UNK     1     -11.060  17.336  63.932  1.00  0.00     0.000 HD 
HETATM    9  H1  UNK     1     -11.027  15.615  64.173  1.00  0.00     0.000 HD 
ENDROOT
BRANCH   5  10
HETATM   10  C   UNK     1     -10.127  14.479  66.258  1.00  0.00    -0.295 C  
BRANCH  10  11
HETATM   11  C   UNK     1      -9.509  13.645  67.376  1.00  0.00    -0.225 C  
BRANCH  11  12
HETATM   12  C   UNK     1      -9.319  12.181  66.950  1.00  0.00    -0.203 C  
BRANCH  12  13
HETATM   13  C   UNK     1      -8.265  11.425  67.768  1.00  0.00    -0.125 C  
HETATM   14  C   UNK     1      -6.965  11.282  66.958  1.00  0.00    -0.126 C  
HETATM   15  N   UNK     1      -7.957  12.128  69.044  1.00  0.00    -0.343 NA 
HETATM   16  O   UNK     1      -6.773  10.471  66.069  1.00  0.00    -0.115 OA 
HETATM   17  O   UNK     1      -6.052  12.219  67.335  1.00  0.00    -0.125 OA 
HETATM   18  H1  UNK     1      -7.256  11.625  69.588  1.00  0.00     0.000 HD 
HETATM   19  H2  UNK     1      -8.802  12.298  69.589  1.00  0.00     0.000 HD 
ENDBRANCH  12  13
ENDBRANCH  11  12
ENDBRANCH  10  11
ENDBRANCH   5  10
TORSDOF 4
ENDMDL
MODEL      220
REMARK 921   NORMALIZED FREE ENERGY PREDICTED BY IDOCK:   -2.84 KCAL/MOL
REMARK 922        TOTAL FREE ENERGY PREDICTED BY IDOCK:   -3.94 KCAL/MOL
REMARK 923 INTER-LIGAND FREE ENERGY PREDICTED BY IDOCK:   -3.68 KCAL/MOL
REMARK 924 INTRA-LIGAND FREE ENERGY PREDICTED BY IDOCK:   -0.26 KCAL/MOL
REMARK 927      BINDING AFFINITY PREDICTED BY RF-SCORE:    0.00 PKD
ROOT
HETATM    1  C   UNK     1      -8.416   8.799  69.912  1.00  0.00    -0.131 C  
HETATM    2  N   UNK     1      -9.342   9.213  68.883  1.00  0.00    -0.145 NA 
HETATM    3  H   UNK     1      -9.938   8.502  68.459  1.00  0.00     0.000 HD 
HETATM    4  C   UNK     1      -9.466  10.492  68.449  1.00  0.00    -0.157 C  
HETATM    5  N   UNK     1     -10.540  10.625  67.629  1.00  0.00    -0.227 NA 
HETATM    6  N   UNK     1      -8.687  11.472  68.737  1.00  0.00    -0.338 NA 
HETATM    7  H   UNK     1     -11.216   9.866  67.540  1.00  0.00     0.000 HD 
HETATM    8  H2  UNK     1      -7.899  11.269  69.353  1.00  0.00     0.000 HD 
HETATM    9  H1  UNK     1      -8.779  12.434  68.411  1.00  0.00     0.000 HD 
ENDROOT
BRANCH   5  10
HETATM   10  C   UNK     1     -10.720  11.862  66.877  1.00  0.00    -0.246 C  
BRANCH  10  11
HETATM   11  C   UNK     1     -11.908  12.638  67.439  1.00  0.00    -0.393 C  
BRANCH  11  12
HETATM   12  C   UNK     1     -11.520  14.080  67.801  1.00  0.00    -0.351 C  
BRANCH  12  13
HETATM   13  C   UNK     1     -11.513  14.365  69.309  1.00  0.00    -0.285 C  
HETATM   14  C   UNK     1     -10.514  15.489  69.633  1.00  0.00    -0.286 C  
HETATM   15  N   UNK     1     -12.861  14.771  69.793  1.00  0.00    -0.572 NA 
HETATM   16  O   UNK     1      -9.306  15.357  69.711  1.00  0.00    -0.253 OA 
HETATM   17  O   UNK     1     -11.155  16.680  69.783  1.00  0.00    -0.295 OA 
HETATM   18  H1  UNK     1     -12.856  14.960  70.795  1.00  0.00     0.000 HD 
HETATM   19  H2  UNK     1     -13.570  14.080  69.546  1.00  0.00     0.000 HD 
ENDBRANCH  12  13
ENDBRANCH  11  12
ENDBRANCH  10  11
ENDBRANCH   5  10
TORSDOF 4
ENDMDL
MODEL      221
REMARK 921   NORMALIZED FREE ENERGY PREDICTED BY IDOCK:   -2.82 KCAL/MOL
REMARK 922        TOTAL FREE ENERGY PREDICTED BY IDOCK:   -3.92 KCAL/MOL
REMARK 923 INTER-LIGAND FREE ENERGY PREDICTED BY IDOCK:   -3.66 KCAL/MOL
REMARK 924 INTRA-LIGAND FREE ENERGY PREDICTED BY IDOCK:   -0.26 KCAL/MOL
REMARK 927      BINDING AFFINITY PREDICTED BY RF-SCORE:    0.00 PKD
ROOT
HETATM    1  C   UNK     1      -6.527  14.509  69.805  1.00  0.00    -0.154 C  
HETATM    2  N   UNK     1      -7.114  14.651  68.493  1.00  0.00    -0.105 NA 
HETATM    3  H   UNK     1      -6.524  15.003  67.739  1.00  0.00     0.000 HD 
HETATM    4  C   UNK     1      -8.403  14.345  68.205  1.00  0.00    -0.158 C  
HETATM    5  N   UNK     1      -8.624  14.386  66.865  1.00  0.00    -0.353 NA 
HETATM    6  N   UNK     1      -9.326  14.063  69.053  1.00  0.00    -0.397 NA 
HETATM    7  H   UNK     1      -7.842  14.469  66.217  1.00  0.00     0.000 HD 
HETATM    8  H2  UNK     1      -9.063  14.070  70.039  1.00  0.00     0.000 HD 
HETATM    9  H1  UNK     1     -10.296  13.833  68.837  1.00  0.00     0.000 HD 
ENDROOT
BRANCH   5  10
HETATM   10  C   UNK     1      -9.992  14.311  66.362  1.00  0.00    -0.292 C  
BRANCH  10  11
HETATM   11  C   UNK     1     -10.734  15.603  66.691  1.00  0.00    -0.296 C  
BRANCH  11  12
HETATM   12  C   UNK     1     -10.360  16.733  65.720  1.00  0.00    -0.322 C  
BRANCH  12  13
HETATM   13  C   UNK     1      -9.524  17.852  66.355  1.00  0.00    -0.267 C  
HETATM   14  C   UNK     1     -10.288  18.481  67.532  1.00  0.00    -0.409 C  
HETATM   15  N   UNK     1      -8.218  17.340  66.853  1.00  0.00    -0.214 NA 
HETATM   16  O   UNK     1     -11.193  19.292  67.434  1.00  0.00    -0.344 OA 
HETATM   17  O   UNK     1      -9.850  17.981  68.720  1.00  0.00    -0.349 OA 
HETATM   18  H1  UNK     1      -7.663  18.084  67.276  1.00  0.00     0.000 HD 
HETATM   19  H2  UNK     1      -7.700  16.860  66.118  1.00  0.00     0.000 HD 
ENDBRANCH  12  13
ENDBRANCH  11  12
ENDBRANCH  10  11
ENDBRANCH   5  10
TORSDOF 4
ENDMDL
MODEL      222
REMARK 921   NORMALIZED FREE ENERGY PREDICTED BY IDOCK:   -2.82 KCAL/MOL
REMARK 922        TOTAL FREE ENERGY PREDICTED BY IDOCK:   -3.92 KCAL/MOL
REMARK 923 INTER-LIGAND FREE ENERGY PREDICTED BY IDOCK:   -3.76 KCAL/MOL
REMARK 924 INTRA-LIGAND FREE ENERGY PREDICTED BY IDOCK:   -0.16 KCAL/MOL
REMARK 927      BINDING AFFINITY PREDICTED BY RF-SCORE:    0.00 PKD
ROOT
HETATM    1  C   UNK     1      -8.661   6.998  65.972  1.00  0.00    -0.144 C  
HETATM    2  N   UNK     1      -8.996   8.358  66.329  1.00  0.00    -0.164 NA 
HETATM    3  H   UNK     1      -8.321   9.091  66.112  1.00  0.00     0.000 HD 
HETATM    4  C   UNK     1     -10.154   8.716  66.936  1.00  0.00    -0.285 C  
HETATM    5  N   UNK     1     -10.287  10.068  66.970  1.00  0.00    -0.236 NA 
HETATM    6  N   UNK     1     -11.028   7.920  67.437  1.00  0.00    -0.517 NA 
HETATM    7  H   UNK     1      -9.651  10.661  66.437  1.00  0.00     0.000 HD 
HETATM    8  H2  UNK     1     -10.832   6.921  67.373  1.00  0.00     0.000 HD 
HETATM    9  H1  UNK     1     -11.900   8.188  67.894  1.00  0.00     0.000 HD 
ENDROOT
BRANCH   5  10
HETATM   10  C   UNK     1     -11.347  10.664  67.776  1.00  0.00    -0.244 C  
BRANCH  10  11
HETATM   11  C   UNK     1     -10.767  11.180  69.090  1.00  0.00    -0.262 C  
BRANCH  11  12
HETATM   12  C   UNK     1     -11.867  11.701  70.027  1.00  0.00    -0.435 C  
BRANCH  12  13
HETATM   13  C   UNK     1     -12.275  13.156  69.762  1.00  0.00    -0.202 C  
HETATM   14  C   UNK     1     -12.617  13.862  71.085  1.00  0.00    -0.370 C  
HETATM   15  N   UNK     1     -11.186  13.913  69.085  1.00  0.00    -0.262 NA 
HETATM   16  O   UNK     1     -13.662  13.741  71.698  1.00  0.00    -0.344 OA 
HETATM   17  O   UNK     1     -11.572  14.620  71.516  1.00  0.00    -0.295 OA 
HETATM   18  H1  UNK     1     -11.457  14.880  68.909  1.00  0.00     0.000 HD 
HETATM   19  H2  UNK     1     -10.884  13.447  68.229  1.00  0.00     0.000 HD 
ENDBRANCH  12  13
ENDBRANCH  11  12
ENDBRANCH  10  11
ENDBRANCH   5  10
TORSDOF 4
ENDMDL
MODEL      223
REMARK 921   NORMALIZED FREE ENERGY PREDICTED BY IDOCK:   -2.80 KCAL/MOL
REMARK 922        TOTAL FREE ENERGY PREDICTED BY IDOCK:   -3.89 KCAL/MOL
REMARK 923 INTER-LIGAND FREE ENERGY PREDICTED BY IDOCK:   -3.62 KCAL/MOL
REMARK 924 INTRA-LIGAND FREE ENERGY PREDICTED BY IDOCK:   -0.28 KCAL/MOL
REMARK 927      BINDING AFFINITY PREDICTED BY RF-SCORE:    0.00 PKD
ROOT
HETATM    1  C   UNK     1      -6.285  20.242  69.087  1.00  0.00    -0.327 C  
HETATM    2  N   UNK     1      -6.635  19.077  68.306  1.00  0.00    -0.238 NA 
HETATM    3  H   UNK     1      -5.933  18.346  68.194  1.00  0.00     0.000 HD 
HETATM    4  C   UNK     1      -7.842  18.901  67.714  1.00  0.00    -0.243 C  
HETATM    5  N   UNK     1      -7.960  17.641  67.220  1.00  0.00    -0.204 NA 
HETATM    6  N   UNK     1      -8.770  19.781  67.600  1.00  0.00    -0.319 NA 
HETATM    7  H   UNK     1      -7.268  16.929  67.455  1.00  0.00     0.000 HD 
HETATM    8  H2  UNK     1      -8.581  20.703  67.994  1.00  0.00     0.000 HD 
HETATM    9  H1  UNK     1      -9.678  19.649  67.155  1.00  0.00     0.000 HD 
ENDROOT
BRANCH   5  10
HETATM   10  C   UNK     1      -9.085  17.314  66.350  1.00  0.00    -0.253 C  
BRANCH  10  11
HETATM   11  C   UNK     1      -9.611  15.923  66.690  1.00  0.00    -0.265 C  
BRANCH  11  12
HETATM   12  C   UNK     1     -10.670  15.974  67.802  1.00  0.00    -0.323 C  
BRANCH  12  13
HETATM   13  C   UNK     1     -10.327  15.121  69.030  1.00  0.00    -0.244 C  
HETATM   14  C   UNK     1     -11.524  14.232  69.410  1.00  0.00    -0.292 C  
HETATM   15  N   UNK     1      -9.147  14.249  68.776  1.00  0.00    -0.327 NA 
HETATM   16  O   UNK     1     -12.514  14.603  70.016  1.00  0.00    -0.326 OA 
HETATM   17  O   UNK     1     -11.357  12.965  68.941  1.00  0.00    -0.254 OA 
HETATM   18  H1  UNK     1      -8.920  13.682  69.592  1.00  0.00     0.000 HD 
HETATM   19  H2  UNK     1      -8.343  14.792  68.462  1.00  0.00     0.000 HD 
ENDBRANCH  12  13
ENDBRANCH  11  12
ENDBRANCH  10  11
ENDBRANCH   5  10
TORSDOF 4
ENDMDL
MODEL      224
REMARK 921   NORMALIZED FREE ENERGY PREDICTED BY IDOCK:   -2.78 KCAL/MOL
REMARK 922        TOTAL FREE ENERGY PREDICTED BY IDOCK:   -3.87 KCAL/MOL
REMARK 923 INTER-LIGAND FREE ENERGY PREDICTED BY IDOCK:   -3.64 KCAL/MOL
REMARK 924 INTRA-LIGAND FREE ENERGY PREDICTED BY IDOCK:   -0.23 KCAL/MOL
REMARK 927      BINDING AFFINITY PREDICTED BY RF-SCORE:    0.00 PKD
ROOT
HETATM    1  C   UNK     1      -9.996  11.389  63.465  1.00  0.00    -0.388 C  
HETATM    2  N   UNK     1     -10.036  11.443  64.909  1.00  0.00    -0.252 NA 
HETATM    3  H   UNK     1      -9.288  10.983  65.427  1.00  0.00     0.000 HD 
HETATM    4  C   UNK     1     -11.010  12.071  65.614  1.00  0.00    -0.297 C  
HETATM    5  N   UNK     1     -10.690  12.134  66.932  1.00  0.00    -0.229 NA 
HETATM    6  N   UNK     1     -12.107  12.543  65.141  1.00  0.00    -0.440 NA 
HETATM    7  H   UNK     1      -9.753  11.882  67.247  1.00  0.00     0.000 HD 
HETATM    8  H2  UNK     1     -12.261  12.436  64.138  1.00  0.00     0.000 HD 
HETATM    9  H1  UNK     1     -12.840  13.015  65.671  1.00  0.00     0.000 HD 
ENDROOT
BRANCH   5  10
HETATM   10  C   UNK     1     -11.699  12.565  67.894  1.00  0.00    -0.359 C  
BRANCH  10  11
HETATM   11  C   UNK     1     -11.440  11.901  69.244  1.00  0.00    -0.366 C  
BRANCH  11  12
HETATM   12  C   UNK     1     -11.773  10.402  69.209  1.00  0.00    -0.212 C  
BRANCH  12  13
HETATM   13  C   UNK     1     -10.817   9.531  70.034  1.00  0.00    -0.252 C  
HETATM   14  C   UNK     1     -11.530   8.247  70.493  1.00  0.00    -0.175 C  
HETATM   15  N   UNK     1      -9.611   9.151  69.249  1.00  0.00    -0.157 NA 
HETATM   16  O   UNK     1     -12.313   8.170  71.424  1.00  0.00    -0.301 OA 
HETATM   17  O   UNK     1     -11.206   7.197  69.690  1.00  0.00    -0.215 OA 
HETATM   18  H1  UNK     1      -8.976   8.572  69.798  1.00  0.00     0.000 HD 
HETATM   19  H2  UNK     1      -9.137   9.972  68.873  1.00  0.00     0.000 HD 
ENDBRANCH  12  13
ENDBRANCH  11  12
ENDBRANCH  10  11
ENDBRANCH   5  10
TORSDOF 4
ENDMDL
MODEL      225
REMARK 921   NORMALIZED FREE ENERGY PREDICTED BY IDOCK:   -2.78 KCAL/MOL
REMARK 922        TOTAL FREE ENERGY PREDICTED BY IDOCK:   -3.87 KCAL/MOL
REMARK 923 INTER-LIGAND FREE ENERGY PREDICTED BY IDOCK:   -3.25 KCAL/MOL
REMARK 924 INTRA-LIGAND FREE ENERGY PREDICTED BY IDOCK:   -0.62 KCAL/MOL
REMARK 927      BINDING AFFINITY PREDICTED BY RF-SCORE:    0.00 PKD
ROOT
HETATM    1  C   UNK     1      -8.170  10.176  69.420  1.00  0.00    -0.166 C  
HETATM    2  N   UNK     1      -8.939   9.646  70.523  1.00  0.00    -0.314 NA 
HETATM    3  H   UNK     1      -8.438   9.359  71.363  1.00  0.00     0.000 HD 
HETATM    4  C   UNK     1     -10.288   9.510  70.506  1.00  0.00    -0.288 C  
HETATM    5  N   UNK     1     -10.758   9.179  71.737  1.00  0.00    -0.366 NA 
HETATM    6  N   UNK     1     -11.054   9.652  69.485  1.00  0.00    -0.361 NA 
HETATM    7  H   UNK     1     -10.143   9.219  72.550  1.00  0.00     0.000 HD 
HETATM    8  H2  UNK     1     -10.605   9.890  68.601  1.00  0.00     0.000 HD 
HETATM    9  H1  UNK     1     -12.069   9.550  69.472  1.00  0.00     0.000 HD 
ENDROOT
BRANCH   5  10
HETATM   10  C   UNK     1     -12.150   8.766  71.886  1.00  0.00    -0.363 C  
BRANCH  10  11
HETATM   11  C   UNK     1     -12.316   7.331  71.395  1.00  0.00    -0.403 C  
BRANCH  11  12
HETATM   12  C   UNK     1     -11.560   6.337  72.289  1.00  0.00    -0.355 C  
BRANCH  12  13
HETATM   13  C   UNK     1     -10.300   5.748  71.642  1.00  0.00    -0.214 C  
HETATM   14  C   UNK     1      -9.056   6.120  72.466  1.00  0.00    -0.138 C  
HETATM   15  N   UNK     1     -10.380   4.265  71.542  1.00  0.00    -0.061 NA 
HETATM   16  O   UNK     1      -8.492   7.200  72.445  1.00  0.00    -0.112 OA 
HETATM   17  O   UNK     1      -8.679   5.088  73.270  1.00  0.00    -0.112 OA 
HETATM   18  H1  UNK     1      -9.542   3.874  71.111  1.00  0.00     0.000 HD 
HETATM   19  H2  UNK     1     -11.225   3.969  71.053  1.00  0.00     0.000 HD 
ENDBRANCH  12  13
ENDBRANCH  11  12
ENDBRANCH  10  11
ENDBRANCH   5  10
TORSDOF 4
ENDMDL
MODEL      226
REMARK 921   NORMALIZED FREE ENERGY PREDICTED BY IDOCK:   -2.77 KCAL/MOL
REMARK 922        TOTAL FREE ENERGY PREDICTED BY IDOCK:   -3.85 KCAL/MOL
REMARK 923 INTER-LIGAND FREE ENERGY PREDICTED BY IDOCK:   -3.58 KCAL/MOL
REMARK 924 INTRA-LIGAND FREE ENERGY PREDICTED BY IDOCK:   -0.27 KCAL/MOL
REMARK 927      BINDING AFFINITY PREDICTED BY RF-SCORE:    0.00 PKD
ROOT
HETATM    1  C   UNK     1     -11.847  14.458  65.858  1.00  0.00    -0.367 C  
HETATM    2  N   UNK     1     -11.625  13.897  67.171  1.00  0.00    -0.343 NA 
HETATM    3  H   UNK     1     -11.362  14.530  67.925  1.00  0.00     0.000 HD 
HETATM    4  C   UNK     1     -11.746  12.577  67.458  1.00  0.00    -0.374 C  
HETATM    5  N   UNK     1     -11.677  12.363  68.797  1.00  0.00    -0.317 NA 
HETATM    6  N   UNK     1     -11.892  11.624  66.609  1.00  0.00    -0.482 NA 
HETATM    7  H   UNK     1     -11.707  13.150  69.446  1.00  0.00     0.000 HD 
HETATM    8  H2  UNK     1     -11.921  11.885  65.623  1.00  0.00     0.000 HD 
HETATM    9  H1  UNK     1     -11.983  10.631  66.824  1.00  0.00     0.000 HD 
ENDROOT
BRANCH   5  10
HETATM   10  C   UNK     1     -11.558  10.999  69.300  1.00  0.00    -0.314 C  
BRANCH  10  11
HETATM   11  C   UNK     1     -10.085  10.614  69.403  1.00  0.00    -0.199 C  
BRANCH  11  12
HETATM   12  C   UNK     1      -9.788   9.308  68.651  1.00  0.00    -0.173 C  
BRANCH  12  13
HETATM   13  C   UNK     1      -9.436   8.127  69.566  1.00  0.00    -0.156 C  
HETATM   14  C   UNK     1     -10.657   7.210  69.744  1.00  0.00    -0.234 C  
HETATM   15  N   UNK     1      -8.313   7.324  69.009  1.00  0.00    -0.125 NA 
HETATM   16  O   UNK     1     -11.600   7.427  70.485  1.00  0.00    -0.283 OA 
HETATM   17  O   UNK     1     -10.574   6.125  68.926  1.00  0.00    -0.215 OA 
HETATM   18  H1  UNK     1      -8.079   6.539  69.617  1.00  0.00     0.000 HD 
HETATM   19  H2  UNK     1      -7.497   7.905  68.818  1.00  0.00     0.000 HD 
ENDBRANCH  12  13
ENDBRANCH  11  12
ENDBRANCH  10  11
ENDBRANCH   5  10
TORSDOF 4
ENDMDL
MODEL      227
REMARK 921   NORMALIZED FREE ENERGY PREDICTED BY IDOCK:   -2.77 KCAL/MOL
REMARK 922        TOTAL FREE ENERGY PREDICTED BY IDOCK:   -3.85 KCAL/MOL
REMARK 923 INTER-LIGAND FREE ENERGY PREDICTED BY IDOCK:   -3.15 KCAL/MOL
REMARK 924 INTRA-LIGAND FREE ENERGY PREDICTED BY IDOCK:   -0.70 KCAL/MOL
REMARK 927      BINDING AFFINITY PREDICTED BY RF-SCORE:    0.00 PKD
ROOT
HETATM    1  C   UNK     1     -12.233  11.528  70.294  1.00  0.00    -0.332 C  
HETATM    2  N   UNK     1     -11.663  10.465  69.496  1.00  0.00    -0.425 NA 
HETATM    3  H   UNK     1     -11.659   9.523  69.885  1.00  0.00     0.000 HD 
HETATM    4  C   UNK     1     -11.134  10.649  68.261  1.00  0.00    -0.279 C  
HETATM    5  N   UNK     1     -10.858   9.458  67.669  1.00  0.00    -0.459 NA 
HETATM    6  N   UNK     1     -10.897  11.778  67.696  1.00  0.00    -0.206 NA 
HETATM    7  H   UNK     1     -11.193   8.588  68.083  1.00  0.00     0.000 HD 
HETATM    8  H2  UNK     1     -11.129  12.618  68.227  1.00  0.00     0.000 HD 
HETATM    9  H1  UNK     1     -10.499  11.917  66.767  1.00  0.00     0.000 HD 
ENDROOT
BRANCH   5  10
HETATM   10  C   UNK     1     -10.079   9.435  66.436  1.00  0.00    -0.262 C  
BRANCH  10  11
HETATM   11  C   UNK     1      -8.716   8.803  66.700  1.00  0.00    -0.138 C  
BRANCH  11  12
HETATM   12  C   UNK     1      -7.995   9.484  67.874  1.00  0.00    -0.098 C  
BRANCH  12  13
HETATM   13  C   UNK     1      -7.881   8.608  69.129  1.00  0.00    -0.099 C  
HETATM   14  C   UNK     1      -8.066   9.465  70.392  1.00  0.00    -0.175 C  
HETATM   15  N   UNK     1      -8.903   7.525  69.132  1.00  0.00    -0.136 NA 
HETATM   16  O   UNK     1      -7.217  10.184  70.888  1.00  0.00    -0.291 OA 
HETATM   17  O   UNK     1      -9.333   9.351  70.876  1.00  0.00    -0.252 OA 
HETATM   18  H1  UNK     1      -8.827   6.944  69.966  1.00  0.00     0.000 HD 
HETATM   19  H2  UNK     1      -8.856   6.966  68.281  1.00  0.00     0.000 HD 
ENDBRANCH  12  13
ENDBRANCH  11  12
ENDBRANCH  10  11
ENDBRANCH   5  10
TORSDOF 4
ENDMDL
MODEL      228
REMARK 921   NORMALIZED FREE ENERGY PREDICTED BY IDOCK:   -2.75 KCAL/MOL
REMARK 922        TOTAL FREE ENERGY PREDICTED BY IDOCK:   -3.83 KCAL/MOL
REMARK 923 INTER-LIGAND FREE ENERGY PREDICTED BY IDOCK:   -3.63 KCAL/MOL
REMARK 924 INTRA-LIGAND FREE ENERGY PREDICTED BY IDOCK:   -0.21 KCAL/MOL
REMARK 927      BINDING AFFINITY PREDICTED BY RF-SCORE:    0.00 PKD
ROOT
HETATM    1  C   UNK     1      -6.897  11.942  67.489  1.00  0.00    -0.124 C  
HETATM    2  N   UNK     1      -7.878  11.031  68.036  1.00  0.00    -0.108 NA 
HETATM    3  H   UNK     1      -7.741  10.032  67.886  1.00  0.00     0.000 HD 
HETATM    4  C   UNK     1      -8.969  11.429  68.737  1.00  0.00    -0.080 C  
HETATM    5  N   UNK     1      -9.601  10.364  69.295  1.00  0.00    -0.239 NA 
HETATM    6  N   UNK     1      -9.390  12.634  68.868  1.00  0.00    -0.382 NA 
HETATM    7  H   UNK     1      -9.159   9.444  69.293  1.00  0.00     0.000 HD 
HETATM    8  H2  UNK     1      -8.853  13.365  68.401  1.00  0.00     0.000 HD 
HETATM    9  H1  UNK     1     -10.211  12.934  69.395  1.00  0.00     0.000 HD 
ENDROOT
BRANCH   5  10
HETATM   10  C   UNK     1     -10.916  10.547  69.899  1.00  0.00    -0.298 C  
BRANCH  10  11
HETATM   11  C   UNK     1     -11.036   9.678  71.147  1.00  0.00    -0.430 C  
BRANCH  11  12
HETATM   12  C   UNK     1     -11.291   8.206  70.790  1.00  0.00    -0.283 C  
BRANCH  12  13
HETATM   13  C   UNK     1     -12.018   7.415  71.884  1.00  0.00    -0.302 C  
HETATM   14  C   UNK     1     -11.000   6.685  72.777  1.00  0.00    -0.258 C  
HETATM   15  N   UNK     1     -12.850   8.306  72.739  1.00  0.00    -0.607 NA 
HETATM   16  O   UNK     1     -10.426   5.649  72.491  1.00  0.00    -0.197 OA 
HETATM   17  O   UNK     1     -10.784   7.373  73.931  1.00  0.00    -0.319 OA 
HETATM   18  H1  UNK     1     -13.333   7.779  73.467  1.00  0.00     0.000 HD 
HETATM   19  H2  UNK     1     -13.501   8.857  72.181  1.00  0.00     0.000 HD 
ENDBRANCH  12  13
ENDBRANCH  11  12
ENDBRANCH  10  11
ENDBRANCH   5  10
TORSDOF 4
ENDMDL
MODEL      229
REMARK 921   NORMALIZED FREE ENERGY PREDICTED BY IDOCK:   -2.74 KCAL/MOL
REMARK 922        TOTAL FREE ENERGY PREDICTED BY IDOCK:   -3.82 KCAL/MOL
REMARK 923 INTER-LIGAND FREE ENERGY PREDICTED BY IDOCK:   -3.60 KCAL/MOL
REMARK 924 INTRA-LIGAND FREE ENERGY PREDICTED BY IDOCK:   -0.22 KCAL/MOL
REMARK 927      BINDING AFFINITY PREDICTED BY RF-SCORE:    0.00 PKD
ROOT
HETATM    1  C   UNK     1      -8.798   8.046  73.752  1.00  0.00    -0.247 C  
HETATM    2  N   UNK     1      -8.571   8.670  72.468  1.00  0.00    -0.406 NA 
HETATM    3  H   UNK     1      -7.640   9.037  72.271  1.00  0.00     0.000 HD 
HETATM    4  C   UNK     1      -9.522   8.795  71.510  1.00  0.00    -0.271 C  
HETATM    5  N   UNK     1      -8.982   9.234  70.344  1.00  0.00    -0.220 NA 
HETATM    6  N   UNK     1     -10.777   8.555  71.648  1.00  0.00    -0.258 NA 
HETATM    7  H   UNK     1      -7.969   9.274  70.228  1.00  0.00     0.000 HD 
HETATM    8  H2  UNK     1     -11.087   8.240  72.567  1.00  0.00     0.000 HD 
HETATM    9  H1  UNK     1     -11.493   8.649  70.928  1.00  0.00     0.000 HD 
ENDROOT
BRANCH   5  10
HETATM   10  C   UNK     1      -9.864   9.650  69.257  1.00  0.00    -0.189 C  
BRANCH  10  11
HETATM   11  C   UNK     1      -9.439  11.024  68.747  1.00  0.00    -0.190 C  
BRANCH  11  12
HETATM   12  C   UNK     1      -9.186  11.011  67.232  1.00  0.00    -0.156 C  
BRANCH  12  13
HETATM   13  C   UNK     1     -10.419  10.640  66.396  1.00  0.00    -0.213 C  
HETATM   14  C   UNK     1     -11.233  11.902  66.064  1.00  0.00    -0.324 C  
HETATM   15  N   UNK     1     -10.033   9.972  65.123  1.00  0.00    -0.325 NA 
HETATM   16  O   UNK     1     -11.993  12.472  66.826  1.00  0.00    -0.518 OA 
HETATM   17  O   UNK     1     -10.964  12.336  64.802  1.00  0.00    -0.284 OA 
HETATM   18  H1  UNK     1     -10.853   9.726  64.568  1.00  0.00     0.000 HD 
HETATM   19  H2  UNK     1      -9.439   9.160  65.293  1.00  0.00     0.000 HD 
ENDBRANCH  12  13
ENDBRANCH  11  12
ENDBRANCH  10  11
ENDBRANCH   5  10
TORSDOF 4
ENDMDL
MODEL      230
REMARK 921   NORMALIZED FREE ENERGY PREDICTED BY IDOCK:   -2.72 KCAL/MOL
REMARK 922        TOTAL FREE ENERGY PREDICTED BY IDOCK:   -3.80 KCAL/MOL
REMARK 923 INTER-LIGAND FREE ENERGY PREDICTED BY IDOCK:   -3.67 KCAL/MOL
REMARK 924 INTRA-LIGAND FREE ENERGY PREDICTED BY IDOCK:   -0.13 KCAL/MOL
REMARK 927      BINDING AFFINITY PREDICTED BY RF-SCORE:    0.00 PKD
ROOT
HETATM    1  C   UNK     1     -14.288   8.312  71.867  1.00  0.00    -0.476 C  
HETATM    2  N   UNK     1     -13.397   7.819  70.840  1.00  0.00    -0.517 NA 
HETATM    3  H   UNK     1     -13.480   8.213  69.903  1.00  0.00     0.000 HD 
HETATM    4  C   UNK     1     -12.458   6.864  71.050  1.00  0.00    -0.313 C  
HETATM    5  N   UNK     1     -11.641   6.742  69.972  1.00  0.00    -0.559 NA 
HETATM    6  N   UNK     1     -12.332   6.140  72.104  1.00  0.00    -0.426 NA 
HETATM    7  H   UNK     1     -11.677   7.428  69.218  1.00  0.00     0.000 HD 
HETATM    8  H2  UNK     1     -13.003   6.299  72.855  1.00  0.00     0.000 HD 
HETATM    9  H1  UNK     1     -11.626   5.421  72.262  1.00  0.00     0.000 HD 
ENDROOT
BRANCH   5  10
HETATM   10  C   UNK     1     -10.709   5.620  69.902  1.00  0.00    -0.329 C  
BRANCH  10  11
HETATM   11  C   UNK     1      -9.673   5.879  68.813  1.00  0.00    -0.161 C  
BRANCH  11  12
HETATM   12  C   UNK     1      -9.118   4.568  68.237  1.00  0.00    -0.158 C  
BRANCH  12  13
HETATM   13  C   UNK     1      -9.039   4.543  66.705  1.00  0.00    -0.124 C  
HETATM   14  C   UNK     1      -7.865   3.659  66.248  1.00  0.00    -0.089 C  
HETATM   15  N   UNK     1     -10.295   4.016  66.103  1.00  0.00    -0.382 NA 
HETATM   16  O   UNK     1      -6.693   3.990  66.246  1.00  0.00    -0.050 OA 
HETATM   17  O   UNK     1      -8.301   2.424  65.879  1.00  0.00    -0.086 OA 
HETATM   18  H1  UNK     1     -10.241   4.000  65.085  1.00  0.00     0.000 HD 
HETATM   19  H2  UNK     1     -11.110   4.536  66.427  1.00  0.00     0.000 HD 
ENDBRANCH  12  13
ENDBRANCH  11  12
ENDBRANCH  10  11
ENDBRANCH   5  10
TORSDOF 4
ENDMDL
MODEL      231
REMARK 921   NORMALIZED FREE ENERGY PREDICTED BY IDOCK:   -2.72 KCAL/MOL
REMARK 922        TOTAL FREE ENERGY PREDICTED BY IDOCK:   -3.80 KCAL/MOL
REMARK 923 INTER-LIGAND FREE ENERGY PREDICTED BY IDOCK:   -3.43 KCAL/MOL
REMARK 924 INTRA-LIGAND FREE ENERGY PREDICTED BY IDOCK:   -0.37 KCAL/MOL
REMARK 927      BINDING AFFINITY PREDICTED BY RF-SCORE:    0.00 PKD
ROOT
HETATM    1  C   UNK     1      -8.995   7.772  73.574  1.00  0.00    -0.269 C  
HETATM    2  N   UNK     1      -9.286   8.772  72.572  1.00  0.00    -0.322 NA 
HETATM    3  H   UNK     1      -8.555   9.443  72.338  1.00  0.00     0.000 HD 
HETATM    4  C   UNK     1     -10.474   8.870  71.926  1.00  0.00    -0.345 C  
HETATM    5  N   UNK     1     -10.399   9.765  70.907  1.00  0.00    -0.332 NA 
HETATM    6  N   UNK     1     -11.552   8.234  72.215  1.00  0.00    -0.358 NA 
HETATM    7  H   UNK     1      -9.496  10.139  70.616  1.00  0.00     0.000 HD 
HETATM    8  H2  UNK     1     -11.510   7.592  73.007  1.00  0.00     0.000 HD 
HETATM    9  H1  UNK     1     -12.446   8.308  71.729  1.00  0.00     0.000 HD 
ENDROOT
BRANCH   5  10
HETATM   10  C   UNK     1     -11.623  10.185  70.231  1.00  0.00    -0.302 C  
BRANCH  10  11
HETATM   11  C   UNK     1     -11.284  11.182  69.126  1.00  0.00    -0.328 C  
BRANCH  11  12
HETATM   12  C   UNK     1      -9.803  11.102  68.727  1.00  0.00    -0.201 C  
BRANCH  12  13
HETATM   13  C   UNK     1      -9.565  10.517  67.328  1.00  0.00    -0.163 C  
HETATM   14  C   UNK     1      -9.524   8.981  67.394  1.00  0.00    -0.144 C  
HETATM   15  N   UNK     1     -10.635  10.926  66.378  1.00  0.00    -0.250 NA 
HETATM   16  O   UNK     1      -8.575   8.316  67.770  1.00  0.00    -0.129 OA 
HETATM   17  O   UNK     1     -10.716   8.447  67.013  1.00  0.00    -0.289 OA 
HETATM   18  H1  UNK     1     -10.476  10.538  65.448  1.00  0.00     0.000 HD 
HETATM   19  H2  UNK     1     -10.739  11.940  66.346  1.00  0.00     0.000 HD 
ENDBRANCH  12  13
ENDBRANCH  11  12
ENDBRANCH  10  11
ENDBRANCH   5  10
TORSDOF 4
ENDMDL
MODEL      232
REMARK 921   NORMALIZED FREE ENERGY PREDICTED BY IDOCK:   -2.72 KCAL/MOL
REMARK 922        TOTAL FREE ENERGY PREDICTED BY IDOCK:   -3.80 KCAL/MOL
REMARK 923 INTER-LIGAND FREE ENERGY PREDICTED BY IDOCK:   -3.25 KCAL/MOL
REMARK 924 INTRA-LIGAND FREE ENERGY PREDICTED BY IDOCK:   -0.55 KCAL/MOL
REMARK 927      BINDING AFFINITY PREDICTED BY RF-SCORE:    0.00 PKD
ROOT
HETATM    1  C   UNK     1      -6.177  10.355  66.673  1.00  0.00    -0.073 C  
HETATM    2  N   UNK     1      -7.298  11.019  67.298  1.00  0.00    -0.100 NA 
HETATM    3  H   UNK     1      -7.240  11.223  68.296  1.00  0.00     0.000 HD 
HETATM    4  C   UNK     1      -8.423  11.386  66.635  1.00  0.00    -0.171 C  
HETATM    5  N   UNK     1      -9.216  12.162  67.419  1.00  0.00    -0.177 NA 
HETATM    6  N   UNK     1      -8.740  11.057  65.435  1.00  0.00    -0.316 NA 
HETATM    7  H   UNK     1      -8.868  12.522  68.307  1.00  0.00     0.000 HD 
HETATM    8  H2  UNK     1      -8.083  10.461  64.932  1.00  0.00     0.000 HD 
HETATM    9  H1  UNK     1      -9.586  11.333  64.936  1.00  0.00     0.000 HD 
ENDROOT
BRANCH   5  10
HETATM   10  C   UNK     1     -10.572  12.475  66.979  1.00  0.00    -0.232 C  
BRANCH  10  11
HETATM   11  C   UNK     1     -10.770  13.988  66.959  1.00  0.00    -0.284 C  
BRANCH  11  12
HETATM   12  C   UNK     1      -9.904  14.658  65.882  1.00  0.00    -0.358 C  
BRANCH  12  13
HETATM   13  C   UNK     1      -8.866  15.642  66.438  1.00  0.00    -0.330 C  
HETATM   14  C   UNK     1      -9.525  17.001  66.728  1.00  0.00    -0.258 C  
HETATM   15  N   UNK     1      -8.251  15.132  67.694  1.00  0.00    -0.153 NA 
HETATM   16  O   UNK     1      -9.794  17.847  65.893  1.00  0.00    -0.529 OA 
HETATM   17  O   UNK     1      -9.814  17.129  68.051  1.00  0.00    -0.265 OA 
HETATM   18  H1  UNK     1      -7.561  15.786  68.063  1.00  0.00     0.000 HD 
HETATM   19  H2  UNK     1      -7.852  14.203  67.564  1.00  0.00     0.000 HD 
ENDBRANCH  12  13
ENDBRANCH  11  12
ENDBRANCH  10  11
ENDBRANCH   5  10
TORSDOF 4
ENDMDL
MODEL      233
REMARK 921   NORMALIZED FREE ENERGY PREDICTED BY IDOCK:   -2.72 KCAL/MOL
REMARK 922        TOTAL FREE ENERGY PREDICTED BY IDOCK:   -3.79 KCAL/MOL
REMARK 923 INTER-LIGAND FREE ENERGY PREDICTED BY IDOCK:   -3.18 KCAL/MOL
REMARK 924 INTRA-LIGAND FREE ENERGY PREDICTED BY IDOCK:   -0.61 KCAL/MOL
REMARK 927      BINDING AFFINITY PREDICTED BY RF-SCORE:    0.00 PKD
ROOT
HETATM    1  C   UNK     1     -10.316  11.451  64.444  1.00  0.00    -0.320 C  
HETATM    2  N   UNK     1     -10.531  10.839  65.735  1.00  0.00    -0.222 NA 
HETATM    3  H   UNK     1     -11.176  11.294  66.382  1.00  0.00     0.000 HD 
HETATM    4  C   UNK     1      -9.925   9.694  66.138  1.00  0.00    -0.276 C  
HETATM    5  N   UNK     1     -10.459   9.247  67.304  1.00  0.00    -0.266 NA 
HETATM    6  N   UNK     1      -8.964   9.090  65.537  1.00  0.00    -0.196 NA 
HETATM    7  H   UNK     1     -11.312   9.666  67.674  1.00  0.00     0.000 HD 
HETATM    8  H2  UNK     1      -8.624   9.511  64.673  1.00  0.00     0.000 HD 
HETATM    9  H1  UNK     1      -8.508   8.229  65.839  1.00  0.00     0.000 HD 
ENDROOT
BRANCH   5  10
HETATM   10  C   UNK     1      -9.803   8.160  68.023  1.00  0.00    -0.168 C  
BRANCH  10  11
HETATM   11  C   UNK     1     -10.760   6.979  68.157  1.00  0.00    -0.242 C  
BRANCH  11  12
HETATM   12  C   UNK     1     -10.819   6.149  66.865  1.00  0.00    -0.411 C  
BRANCH  12  13
HETATM   13  C   UNK     1      -9.473   5.538  66.454  1.00  0.00    -0.155 C  
HETATM   14  C   UNK     1      -9.589   4.007  66.368  1.00  0.00    -0.202 C  
HETATM   15  N   UNK     1      -9.020   6.058  65.134  1.00  0.00    -0.369 NA 
HETATM   16  O   UNK     1      -9.578   3.245  67.318  1.00  0.00    -0.193 OA 
HETATM   17  O   UNK     1      -9.749   3.603  65.078  1.00  0.00    -0.164 OA 
HETATM   18  H1  UNK     1      -8.126   5.652  64.861  1.00  0.00     0.000 HD 
HETATM   19  H2  UNK     1      -8.987   7.077  65.126  1.00  0.00     0.000 HD 
ENDBRANCH  12  13
ENDBRANCH  11  12
ENDBRANCH  10  11
ENDBRANCH   5  10
TORSDOF 4
ENDMDL
MODEL      234
REMARK 921   NORMALIZED FREE ENERGY PREDICTED BY IDOCK:   -2.72 KCAL/MOL
REMARK 922        TOTAL FREE ENERGY PREDICTED BY IDOCK:   -3.79 KCAL/MOL
REMARK 923 INTER-LIGAND FREE ENERGY PREDICTED BY IDOCK:   -3.53 KCAL/MOL
REMARK 924 INTRA-LIGAND FREE ENERGY PREDICTED BY IDOCK:   -0.26 KCAL/MOL
REMARK 927      BINDING AFFINITY PREDICTED BY RF-SCORE:    0.00 PKD
ROOT
HETATM    1  C   UNK     1      -8.395   8.302  64.429  1.00  0.00    -0.073 C  
HETATM    2  N   UNK     1      -9.332   8.387  65.527  1.00  0.00    -0.427 NA 
HETATM    3  H   UNK     1      -9.657   7.518  65.949  1.00  0.00     0.000 HD 
HETATM    4  C   UNK     1      -9.802   9.556  66.028  1.00  0.00    -0.283 C  
HETATM    5  N   UNK     1     -10.503   9.346  67.172  1.00  0.00    -0.254 NA 
HETATM    6  N   UNK     1      -9.643  10.723  65.515  1.00  0.00    -0.207 NA 
HETATM    7  H   UNK     1     -10.485   8.432  67.627  1.00  0.00     0.000 HD 
HETATM    8  H2  UNK     1      -9.111  10.776  64.646  1.00  0.00     0.000 HD 
HETATM    9  H1  UNK     1      -9.997  11.602  65.892  1.00  0.00     0.000 HD 
ENDROOT
BRANCH   5  10
HETATM   10  C   UNK     1     -11.281  10.438  67.747  1.00  0.00    -0.237 C  
BRANCH  10  11
HETATM   11  C   UNK     1     -10.999  10.539  69.244  1.00  0.00    -0.291 C  
BRANCH  11  12
HETATM   12  C   UNK     1     -10.399   9.238  69.795  1.00  0.00    -0.232 C  
BRANCH  12  13
HETATM   13  C   UNK     1     -11.357   8.437  70.686  1.00  0.00    -0.244 C  
HETATM   14  C   UNK     1     -11.099   6.929  70.523  1.00  0.00    -0.288 C  
HETATM   15  N   UNK     1     -11.194   8.796  72.122  1.00  0.00    -0.362 NA 
HETATM   16  O   UNK     1     -11.485   6.244  69.592  1.00  0.00    -0.432 OA 
HETATM   17  O   UNK     1     -10.337   6.453  71.545  1.00  0.00    -0.202 OA 
HETATM   18  H1  UNK     1     -11.831   8.263  72.714  1.00  0.00     0.000 HD 
HETATM   19  H2  UNK     1     -11.297   9.800  72.269  1.00  0.00     0.000 HD 
ENDBRANCH  12  13
ENDBRANCH  11  12
ENDBRANCH  10  11
ENDBRANCH   5  10
TORSDOF 4
ENDMDL
MODEL      235
REMARK 921   NORMALIZED FREE ENERGY PREDICTED BY IDOCK:   -2.71 KCAL/MOL
REMARK 922        TOTAL FREE ENERGY PREDICTED BY IDOCK:   -3.79 KCAL/MOL
REMARK 923 INTER-LIGAND FREE ENERGY PREDICTED BY IDOCK:   -3.69 KCAL/MOL
REMARK 924 INTRA-LIGAND FREE ENERGY PREDICTED BY IDOCK:   -0.10 KCAL/MOL
REMARK 927      BINDING AFFINITY PREDICTED BY RF-SCORE:    0.00 PKD
ROOT
HETATM    1  C   UNK     1     -10.575  19.740  65.481  1.00  0.00    -0.246 C  
HETATM    2  N   UNK     1      -9.888  18.497  65.747  1.00  0.00    -0.442 NA 
HETATM    3  H   UNK     1      -8.989  18.538  66.227  1.00  0.00     0.000 HD 
HETATM    4  C   UNK     1     -10.369  17.278  65.397  1.00  0.00     0.024 C  
HETATM    5  N   UNK     1      -9.621  16.285  65.944  1.00  0.00    -0.424 NA 
HETATM    6  N   UNK     1     -11.383  17.049  64.642  1.00  0.00    -0.865 NA 
HETATM    7  H   UNK     1      -8.918  16.501  66.652  1.00  0.00     0.000 HD 
HETATM    8  H2  UNK     1     -11.873  17.862  64.270  1.00  0.00     0.000 HD 
HETATM    9  H1  UNK     1     -11.745  16.133  64.378  1.00  0.00     0.000 HD 
ENDROOT
BRANCH   5  10
HETATM   10  C   UNK     1      -9.831  14.908  65.511  1.00  0.00    -0.313 C  
BRANCH  10  11
HETATM   11  C   UNK     1      -9.385  13.949  66.611  1.00  0.00    -0.282 C  
BRANCH  11  12
HETATM   12  C   UNK     1      -8.575  14.672  67.697  1.00  0.00    -0.182 C  
BRANCH  12  13
HETATM   13  C   UNK     1      -7.220  15.204  67.215  1.00  0.00    -0.162 C  
HETATM   14  C   UNK     1      -6.888  16.531  67.919  1.00  0.00    -0.139 C  
HETATM   15  N   UNK     1      -6.125  14.233  67.487  1.00  0.00    -0.345 NA 
HETATM   16  O   UNK     1      -7.354  17.619  67.629  1.00  0.00    -0.188 OA 
HETATM   17  O   UNK     1      -6.027  16.330  68.954  1.00  0.00    -0.123 OA 
HETATM   18  H1  UNK     1      -5.224  14.587  67.167  1.00  0.00     0.000 HD 
HETATM   19  H2  UNK     1      -6.330  13.317  67.088  1.00  0.00     0.000 HD 
ENDBRANCH  12  13
ENDBRANCH  11  12
ENDBRANCH  10  11
ENDBRANCH   5  10
TORSDOF 4
ENDMDL
MODEL      236
REMARK 921   NORMALIZED FREE ENERGY PREDICTED BY IDOCK:   -2.71 KCAL/MOL
REMARK 922        TOTAL FREE ENERGY PREDICTED BY IDOCK:   -3.78 KCAL/MOL
REMARK 923 INTER-LIGAND FREE ENERGY PREDICTED BY IDOCK:   -3.51 KCAL/MOL
REMARK 924 INTRA-LIGAND FREE ENERGY PREDICTED BY IDOCK:   -0.27 KCAL/MOL
REMARK 927      BINDING AFFINITY PREDICTED BY RF-SCORE:    0.00 PKD
ROOT
HETATM    1  C   UNK     1     -11.303   6.199  70.426  1.00  0.00    -0.328 C  
HETATM    2  N   UNK     1     -11.472   6.707  69.084  1.00  0.00    -0.618 NA 
HETATM    3  H   UNK     1     -12.362   6.539  68.616  1.00  0.00     0.000 HD 
HETATM    4  C   UNK     1     -10.516   7.395  68.411  1.00  0.00    -0.185 C  
HETATM    5  N   UNK     1     -11.015   7.918  67.261  1.00  0.00    -0.504 NA 
HETATM    6  N   UNK     1      -9.292   7.544  68.769  1.00  0.00    -0.148 NA 
HETATM    7  H   UNK     1     -12.019   7.905  67.082  1.00  0.00     0.000 HD 
HETATM    8  H2  UNK     1      -9.011   7.102  69.645  1.00  0.00     0.000 HD 
HETATM    9  H1  UNK     1      -8.573   8.061  68.263  1.00  0.00     0.000 HD 
ENDROOT
BRANCH   5  10
HETATM   10  C   UNK     1     -10.100   8.499  66.283  1.00  0.00    -0.104 C  
BRANCH  10  11
HETATM   11  C   UNK     1     -10.312  10.009  66.214  1.00  0.00    -0.235 C  
BRANCH  11  12
HETATM   12  C   UNK     1      -9.129  10.716  65.535  1.00  0.00    -0.214 C  
BRANCH  12  13
HETATM   13  C   UNK     1      -9.401  11.135  64.085  1.00  0.00    -0.165 C  
HETATM   14  C   UNK     1      -8.540  10.301  63.121  1.00  0.00    -0.194 C  
HETATM   15  N   UNK     1     -10.834  10.951  63.724  1.00  0.00    -0.493 NA 
HETATM   16  O   UNK     1      -7.358  10.487  62.892  1.00  0.00    -0.132 OA 
HETATM   17  O   UNK     1      -9.264   9.286  62.576  1.00  0.00    -0.195 OA 
HETATM   18  H1  UNK     1     -11.015  11.229  62.760  1.00  0.00     0.000 HD 
HETATM   19  H2  UNK     1     -11.448  11.439  64.376  1.00  0.00     0.000 HD 
ENDBRANCH  12  13
ENDBRANCH  11  12
ENDBRANCH  10  11
ENDBRANCH   5  10
TORSDOF 4
ENDMDL
MODEL      237
REMARK 921   NORMALIZED FREE ENERGY PREDICTED BY IDOCK:   -2.68 KCAL/MOL
REMARK 922        TOTAL FREE ENERGY PREDICTED BY IDOCK:   -3.75 KCAL/MOL
REMARK 923 INTER-LIGAND FREE ENERGY PREDICTED BY IDOCK:   -3.54 KCAL/MOL
REMARK 924 INTRA-LIGAND FREE ENERGY PREDICTED BY IDOCK:   -0.21 KCAL/MOL
REMARK 927      BINDING AFFINITY PREDICTED BY RF-SCORE:    0.00 PKD
ROOT
HETATM    1  C   UNK     1     -12.617  13.352  65.254  1.00  0.00    -0.464 C  
HETATM    2  N   UNK     1     -11.849  12.323  65.918  1.00  0.00    -0.546 NA 
HETATM    3  H   UNK     1     -12.195  11.965  66.808  1.00  0.00     0.000 HD 
HETATM    4  C   UNK     1     -10.696  11.806  65.426  1.00  0.00    -0.283 C  
HETATM    5  N   UNK     1     -10.301  10.726  66.149  1.00  0.00    -0.248 NA 
HETATM    6  N   UNK     1     -10.029  12.253  64.424  1.00  0.00    -0.482 NA 
HETATM    7  H   UNK     1     -10.927  10.313  66.841  1.00  0.00     0.000 HD 
HETATM    8  H2  UNK     1     -10.402  13.077  63.952  1.00  0.00     0.000 HD 
HETATM    9  H1  UNK     1      -9.161  11.865  64.053  1.00  0.00     0.000 HD 
ENDROOT
BRANCH   5  10
HETATM   10  C   UNK     1      -8.974  10.162  65.928  1.00  0.00    -0.157 C  
BRANCH  10  11
HETATM   11  C   UNK     1      -8.837   8.851  66.697  1.00  0.00    -0.150 C  
BRANCH  11  12
HETATM   12  C   UNK     1      -9.166   9.032  68.186  1.00  0.00    -0.141 C  
BRANCH  12  13
HETATM   13  C   UNK     1      -9.196   7.722  68.983  1.00  0.00    -0.143 C  
HETATM   14  C   UNK     1     -10.644   7.360  69.357  1.00  0.00    -0.226 C  
HETATM   15  N   UNK     1      -8.610   6.597  68.203  1.00  0.00    -0.116 NA 
HETATM   16  O   UNK     1     -11.283   7.860  70.266  1.00  0.00    -0.264 OA 
HETATM   17  O   UNK     1     -11.147   6.425  68.505  1.00  0.00    -0.318 OA 
HETATM   18  H1  UNK     1      -8.630   5.726  68.733  1.00  0.00     0.000 HD 
HETATM   19  H2  UNK     1      -7.668   6.817  67.882  1.00  0.00     0.000 HD 
ENDBRANCH  12  13
ENDBRANCH  11  12
ENDBRANCH  10  11
ENDBRANCH   5  10
TORSDOF 4
ENDMDL
MODEL      238
REMARK 921   NORMALIZED FREE ENERGY PREDICTED BY IDOCK:   -2.68 KCAL/MOL
REMARK 922        TOTAL FREE ENERGY PREDICTED BY IDOCK:   -3.75 KCAL/MOL
REMARK 923 INTER-LIGAND FREE ENERGY PREDICTED BY IDOCK:   -3.79 KCAL/MOL
REMARK 924 INTRA-LIGAND FREE ENERGY PREDICTED BY IDOCK:    0.04 KCAL/MOL
REMARK 927      BINDING AFFINITY PREDICTED BY RF-SCORE:    0.00 PKD
ROOT
HETATM    1  C   UNK     1      -8.328   9.223  63.774  1.00  0.00    -0.180 C  
HETATM    2  N   UNK     1      -8.991  10.202  64.605  1.00  0.00    -0.190 NA 
HETATM    3  H   UNK     1      -8.800  11.188  64.431  1.00  0.00     0.000 HD 
HETATM    4  C   UNK     1      -9.853   9.885  65.603  1.00  0.00    -0.298 C  
HETATM    5  N   UNK     1     -10.473  10.995  66.079  1.00  0.00    -0.256 NA 
HETATM    6  N   UNK     1     -10.074   8.710  66.073  1.00  0.00    -0.421 NA 
HETATM    7  H   UNK     1     -10.385  11.885  65.588  1.00  0.00     0.000 HD 
HETATM    8  H2  UNK     1      -9.549   7.941  65.656  1.00  0.00     0.000 HD 
HETATM    9  H1  UNK     1     -10.722   8.471  66.823  1.00  0.00     0.000 HD 
ENDROOT
BRANCH   5  10
HETATM   10  C   UNK     1     -11.268  10.904  67.300  1.00  0.00    -0.233 C  
BRANCH  10  11
HETATM   11  C   UNK     1     -11.945  12.244  67.574  1.00  0.00    -0.210 C  
BRANCH  11  12
HETATM   12  C   UNK     1     -11.555  12.803  68.951  1.00  0.00    -0.362 C  
BRANCH  12  13
HETATM   13  C   UNK     1     -10.655  14.044  68.889  1.00  0.00    -0.228 C  
HETATM   14  C   UNK     1     -11.299  15.124  68.002  1.00  0.00    -0.337 C  
HETATM   15  N   UNK     1     -10.421  14.616  70.243  1.00  0.00    -0.410 NA 
HETATM   16  O   UNK     1     -11.295  15.131  66.784  1.00  0.00    -0.326 OA 
HETATM   17  O   UNK     1     -11.922  16.067  68.760  1.00  0.00    -0.340 OA 
HETATM   18  H1  UNK     1      -9.823  15.441  70.201  1.00  0.00     0.000 HD 
HETATM   19  H2  UNK     1     -10.049  13.916  70.885  1.00  0.00     0.000 HD 
ENDBRANCH  12  13
ENDBRANCH  11  12
ENDBRANCH  10  11
ENDBRANCH   5  10
TORSDOF 4
ENDMDL
MODEL      239
REMARK 921   NORMALIZED FREE ENERGY PREDICTED BY IDOCK:   -2.68 KCAL/MOL
REMARK 922        TOTAL FREE ENERGY PREDICTED BY IDOCK:   -3.75 KCAL/MOL
REMARK 923 INTER-LIGAND FREE ENERGY PREDICTED BY IDOCK:   -3.34 KCAL/MOL
REMARK 924 INTRA-LIGAND FREE ENERGY PREDICTED BY IDOCK:   -0.40 KCAL/MOL
REMARK 927      BINDING AFFINITY PREDICTED BY RF-SCORE:    0.00 PKD
ROOT
HETATM    1  C   UNK     1      -9.457  15.042  68.925  1.00  0.00    -0.211 C  
HETATM    2  N   UNK     1     -10.677  14.357  69.289  1.00  0.00    -0.333 NA 
HETATM    3  H   UNK     1     -11.450  14.913  69.654  1.00  0.00     0.000 HD 
HETATM    4  C   UNK     1     -10.853  13.017  69.172  1.00  0.00    -0.086 C  
HETATM    5  N   UNK     1     -12.149  12.677  69.395  1.00  0.00    -0.230 NA 
HETATM    6  N   UNK     1      -9.944  12.151  68.904  1.00  0.00    -0.422 NA 
HETATM    7  H   UNK     1     -12.867  13.399  69.460  1.00  0.00     0.000 HD 
HETATM    8  H2  UNK     1      -8.997  12.504  68.764  1.00  0.00     0.000 HD 
HETATM    9  H1  UNK     1     -10.076  11.143  68.816  1.00  0.00     0.000 HD 
ENDROOT
BRANCH   5  10
HETATM   10  C   UNK     1     -12.506  11.270  69.541  1.00  0.00    -0.061 C  
BRANCH  10  11
HETATM   11  C   UNK     1     -12.386  10.857  71.005  1.00  0.00    -0.498 C  
BRANCH  11  12
HETATM   12  C   UNK     1     -11.188   9.922  71.232  1.00  0.00    -0.356 C  
BRANCH  12  13
HETATM   13  C   UNK     1     -11.088   8.779  70.213  1.00  0.00    -0.222 C  
HETATM   14  C   UNK     1      -9.614   8.405  69.978  1.00  0.00    -0.168 C  
HETATM   15  N   UNK     1     -11.818   7.568  70.679  1.00  0.00    -0.464 NA 
HETATM   16  O   UNK     1      -8.833   9.022  69.276  1.00  0.00    -0.135 OA 
HETATM   17  O   UNK     1      -9.271   7.302  70.698  1.00  0.00    -0.157 OA 
HETATM   18  H1  UNK     1     -11.751   6.808  70.002  1.00  0.00     0.000 HD 
HETATM   19  H2  UNK     1     -12.789   7.782  70.905  1.00  0.00     0.000 HD 
ENDBRANCH  12  13
ENDBRANCH  11  12
ENDBRANCH  10  11
ENDBRANCH   5  10
TORSDOF 4
ENDMDL
MODEL      240
REMARK 921   NORMALIZED FREE ENERGY PREDICTED BY IDOCK:   -2.67 KCAL/MOL
REMARK 922        TOTAL FREE ENERGY PREDICTED BY IDOCK:   -3.74 KCAL/MOL
REMARK 923 INTER-LIGAND FREE ENERGY PREDICTED BY IDOCK:   -3.48 KCAL/MOL
REMARK 924 INTRA-LIGAND FREE ENERGY PREDICTED BY IDOCK:   -0.26 KCAL/MOL
REMARK 927      BINDING AFFINITY PREDICTED BY RF-SCORE:    0.00 PKD
ROOT
HETATM    1  C   UNK     1      -6.060  10.090  66.277  1.00  0.00    -0.068 C  
HETATM    2  N   UNK     1      -6.550  11.449  66.314  1.00  0.00    -0.358 NA 
HETATM    3  H   UNK     1      -6.532  11.990  65.450  1.00  0.00     0.000 HD 
HETATM    4  C   UNK     1      -7.033  12.047  67.432  1.00  0.00    -0.139 C  
HETATM    5  N   UNK     1      -7.603  13.243  67.134  1.00  0.00    -0.373 NA 
HETATM    6  N   UNK     1      -6.967  11.586  68.629  1.00  0.00    -0.082 NA 
HETATM    7  H   UNK     1      -7.767  13.508  66.163  1.00  0.00     0.000 HD 
HETATM    8  H2  UNK     1      -6.509  10.683  68.752  1.00  0.00     0.000 HD 
HETATM    9  H1  UNK     1      -7.330  12.036  69.470  1.00  0.00     0.000 HD 
ENDROOT
BRANCH   5  10
HETATM   10  C   UNK     1      -7.979  14.146  68.217  1.00  0.00    -0.140 C  
BRANCH  10  11
HETATM   11  C   UNK     1      -9.467  14.474  68.120  1.00  0.00    -0.208 C  
BRANCH  11  12
HETATM   12  C   UNK     1     -10.331  13.378  68.761  1.00  0.00    -0.164 C  
BRANCH  12  13
HETATM   13  C   UNK     1     -11.817  13.740  68.872  1.00  0.00    -0.360 C  
HETATM   14  C   UNK     1     -12.239  13.806  70.350  1.00  0.00    -0.363 C  
HETATM   15  N   UNK     1     -12.107  15.054  68.235  1.00  0.00    -0.567 NA 
HETATM   16  O   UNK     1     -12.480  12.844  71.058  1.00  0.00    -0.371 OA 
HETATM   17  O   UNK     1     -12.270  15.093  70.790  1.00  0.00    -0.289 OA 
HETATM   18  H1  UNK     1     -13.095  15.295  68.309  1.00  0.00     0.000 HD 
HETATM   19  H2  UNK     1     -11.788  15.077  67.266  1.00  0.00     0.000 HD 
ENDBRANCH  12  13
ENDBRANCH  11  12
ENDBRANCH  10  11
ENDBRANCH   5  10
TORSDOF 4
ENDMDL
MODEL      241
REMARK 921   NORMALIZED FREE ENERGY PREDICTED BY IDOCK:   -2.67 KCAL/MOL
REMARK 922        TOTAL FREE ENERGY PREDICTED BY IDOCK:   -3.73 KCAL/MOL
REMARK 923 INTER-LIGAND FREE ENERGY PREDICTED BY IDOCK:   -3.54 KCAL/MOL
REMARK 924 INTRA-LIGAND FREE ENERGY PREDICTED BY IDOCK:   -0.20 KCAL/MOL
REMARK 927      BINDING AFFINITY PREDICTED BY RF-SCORE:    0.00 PKD
ROOT
HETATM    1  C   UNK     1     -11.988  12.651  63.398  1.00  0.00    -0.528 C  
HETATM    2  N   UNK     1     -11.923  12.912  64.818  1.00  0.00    -0.372 NA 
HETATM    3  H   UNK     1     -12.659  12.528  65.411  1.00  0.00     0.000 HD 
HETATM    4  C   UNK     1     -10.941  13.637  65.408  1.00  0.00    -0.298 C  
HETATM    5  N   UNK     1     -11.022  13.552  66.762  1.00  0.00    -0.289 NA 
HETATM    6  N   UNK     1     -10.045  14.335  64.808  1.00  0.00    -0.588 NA 
HETATM    7  H   UNK     1     -11.649  12.877  67.199  1.00  0.00     0.000 HD 
HETATM    8  H2  UNK     1     -10.076  14.345  63.788  1.00  0.00     0.000 HD 
HETATM    9  H1  UNK     1      -9.307  14.881  65.251  1.00  0.00     0.000 HD 
ENDROOT
BRANCH   5  10
HETATM   10  C   UNK     1     -10.202  14.435  67.585  1.00  0.00    -0.229 C  
BRANCH  10  11
HETATM   11  C   UNK     1      -9.367  13.605  68.556  1.00  0.00    -0.128 C  
BRANCH  11  12
HETATM   12  C   UNK     1      -8.005  13.229  67.951  1.00  0.00    -0.159 C  
BRANCH  12  13
HETATM   13  C   UNK     1      -7.790  11.718  67.789  1.00  0.00    -0.135 C  
HETATM   14  C   UNK     1      -9.128  10.973  67.929  1.00  0.00    -0.147 C  
HETATM   15  N   UNK     1      -7.198  11.392  66.463  1.00  0.00    -0.303 NA 
HETATM   16  O   UNK     1      -9.689  10.721  68.981  1.00  0.00    -0.197 OA 
HETATM   17  O   UNK     1      -9.640  10.659  66.707  1.00  0.00    -0.164 OA 
HETATM   18  H1  UNK     1      -7.055  10.388  66.355  1.00  0.00     0.000 HD 
HETATM   19  H2  UNK     1      -6.336  11.911  66.301  1.00  0.00     0.000 HD 
ENDBRANCH  12  13
ENDBRANCH  11  12
ENDBRANCH  10  11
ENDBRANCH   5  10
TORSDOF 4
ENDMDL
MODEL      242
REMARK 921   NORMALIZED FREE ENERGY PREDICTED BY IDOCK:   -2.67 KCAL/MOL
REMARK 922        TOTAL FREE ENERGY PREDICTED BY IDOCK:   -3.73 KCAL/MOL
REMARK 923 INTER-LIGAND FREE ENERGY PREDICTED BY IDOCK:   -3.42 KCAL/MOL
REMARK 924 INTRA-LIGAND FREE ENERGY PREDICTED BY IDOCK:   -0.32 KCAL/MOL
REMARK 927      BINDING AFFINITY PREDICTED BY RF-SCORE:    0.00 PKD
ROOT
HETATM    1  C   UNK     1     -11.072   6.041  66.592  1.00  0.00    -0.039 C  
HETATM    2  N   UNK     1     -10.990   6.564  67.937  1.00  0.00    -0.419 NA 
HETATM    3  H   UNK     1     -11.691   6.262  68.614  1.00  0.00     0.000 HD 
HETATM    4  C   UNK     1     -10.035   7.433  68.352  1.00  0.00    -0.164 C  
HETATM    5  N   UNK     1     -10.081   7.598  69.699  1.00  0.00    -0.190 NA 
HETATM    6  N   UNK     1      -9.192   8.050  67.605  1.00  0.00    -0.133 NA 
HETATM    7  H   UNK     1     -10.662   6.986  70.273  1.00  0.00     0.000 HD 
HETATM    8  H2  UNK     1      -9.245   7.868  66.602  1.00  0.00     0.000 HD 
HETATM    9  H1  UNK     1      -8.473   8.703  67.916  1.00  0.00     0.000 HD 
ENDROOT
BRANCH   5  10
HETATM   10  C   UNK     1      -9.292   8.657  70.319  1.00  0.00    -0.167 C  
BRANCH  10  11
HETATM   11  C   UNK     1     -10.208   9.586  71.110  1.00  0.00    -0.300 C  
BRANCH  11  12
HETATM   12  C   UNK     1     -11.687   9.219  70.918  1.00  0.00    -0.360 C  
BRANCH  12  13
HETATM   13  C   UNK     1     -12.475  10.227  70.070  1.00  0.00    -0.046 C  
HETATM   14  C   UNK     1     -12.351  11.638  70.670  1.00  0.00    -0.344 C  
HETATM   15  N   UNK     1     -11.982  10.260  68.666  1.00  0.00    -0.662 NA 
HETATM   16  O   UNK     1     -12.971  12.051  71.634  1.00  0.00    -0.408 OA 
HETATM   17  O   UNK     1     -11.414  12.368  70.005  1.00  0.00    -0.182 OA 
HETATM   18  H1  UNK     1     -12.506  10.930  68.103  1.00  0.00     0.000 HD 
HETATM   19  H2  UNK     1     -11.990   9.331  68.245  1.00  0.00     0.000 HD 
ENDBRANCH  12  13
ENDBRANCH  11  12
ENDBRANCH  10  11
ENDBRANCH   5  10
TORSDOF 4
ENDMDL
MODEL      243
REMARK 921   NORMALIZED FREE ENERGY PREDICTED BY IDOCK:   -2.67 KCAL/MOL
REMARK 922        TOTAL FREE ENERGY PREDICTED BY IDOCK:   -3.73 KCAL/MOL
REMARK 923 INTER-LIGAND FREE ENERGY PREDICTED BY IDOCK:   -3.05 KCAL/MOL
REMARK 924 INTRA-LIGAND FREE ENERGY PREDICTED BY IDOCK:   -0.68 KCAL/MOL
REMARK 927      BINDING AFFINITY PREDICTED BY RF-SCORE:    0.00 PKD
ROOT
HETATM    1  C   UNK     1      -8.429   8.820  65.363  1.00  0.00    -0.170 C  
HETATM    2  N   UNK     1      -9.216   8.646  66.562  1.00  0.00    -0.173 NA 
HETATM    3  H   UNK     1      -9.244   9.413  67.234  1.00  0.00     0.000 HD 
HETATM    4  C   UNK     1      -9.919   7.522  66.847  1.00  0.00    -0.248 C  
HETATM    5  N   UNK     1     -10.717   7.711  67.930  1.00  0.00    -0.429 NA 
HETATM    6  N   UNK     1      -9.858   6.406  66.215  1.00  0.00    -0.382 NA 
HETATM    7  H   UNK     1     -10.849   8.646  68.316  1.00  0.00     0.000 HD 
HETATM    8  H2  UNK     1      -9.219   6.360  65.421  1.00  0.00     0.000 HD 
HETATM    9  H1  UNK     1     -10.387   5.560  66.429  1.00  0.00     0.000 HD 
ENDROOT
BRANCH   5  10
HETATM   10  C   UNK     1     -11.383   6.563  68.538  1.00  0.00    -0.082 C  
BRANCH  10  11
HETATM   11  C   UNK     1     -10.913   6.399  69.980  1.00  0.00    -0.397 C  
BRANCH  11  12
HETATM   12  C   UNK     1     -10.580   7.754  70.624  1.00  0.00    -0.222 C  
BRANCH  12  13
HETATM   13  C   UNK     1      -9.163   7.837  71.205  1.00  0.00    -0.141 C  
HETATM   14  C   UNK     1      -8.207   8.477  70.185  1.00  0.00    -0.121 C  
HETATM   15  N   UNK     1      -9.134   8.642  72.457  1.00  0.00    -0.367 NA 
HETATM   16  O   UNK     1      -7.717   7.909  69.225  1.00  0.00    -0.095 OA 
HETATM   17  O   UNK     1      -8.003   9.793  70.468  1.00  0.00    -0.220 OA 
HETATM   18  H1  UNK     1      -8.192   8.697  72.843  1.00  0.00     0.000 HD 
HETATM   19  H2  UNK     1      -9.800   8.288  73.144  1.00  0.00     0.000 HD 
ENDBRANCH  12  13
ENDBRANCH  11  12
ENDBRANCH  10  11
ENDBRANCH   5  10
TORSDOF 4
ENDMDL
MODEL      244
REMARK 921   NORMALIZED FREE ENERGY PREDICTED BY IDOCK:   -2.67 KCAL/MOL
REMARK 922        TOTAL FREE ENERGY PREDICTED BY IDOCK:   -3.73 KCAL/MOL
REMARK 923 INTER-LIGAND FREE ENERGY PREDICTED BY IDOCK:   -3.48 KCAL/MOL
REMARK 924 INTRA-LIGAND FREE ENERGY PREDICTED BY IDOCK:   -0.25 KCAL/MOL
REMARK 927      BINDING AFFINITY PREDICTED BY RF-SCORE:    0.00 PKD
ROOT
HETATM    1  C   UNK     1      -8.486   9.066  69.792  1.00  0.00    -0.132 C  
HETATM    2  N   UNK     1      -8.831  10.190  68.953  1.00  0.00    -0.145 NA 
HETATM    3  H   UNK     1      -9.560  10.060  68.252  1.00  0.00     0.000 HD 
HETATM    4  C   UNK     1      -8.241  11.408  69.042  1.00  0.00     0.020 C  
HETATM    5  N   UNK     1      -8.894  12.320  68.276  1.00  0.00    -0.204 NA 
HETATM    6  N   UNK     1      -7.199  11.700  69.733  1.00  0.00    -0.324 NA 
HETATM    7  H   UNK     1      -9.797  12.092  67.860  1.00  0.00     0.000 HD 
HETATM    8  H2  UNK     1      -6.773  10.942  70.266  1.00  0.00     0.000 HD 
HETATM    9  H1  UNK     1      -6.755  12.616  69.800  1.00  0.00     0.000 HD 
ENDROOT
BRANCH   5  10
HETATM   10  C   UNK     1      -8.293  13.631  68.054  1.00  0.00    -0.170 C  
BRANCH  10  11
HETATM   11  C   UNK     1      -9.120  14.411  67.036  1.00  0.00    -0.250 C  
BRANCH  11  12
HETATM   12  C   UNK     1     -10.124  13.504  66.309  1.00  0.00    -0.298 C  
BRANCH  12  13
HETATM   13  C   UNK     1     -11.568  13.646  66.808  1.00  0.00    -0.364 C  
HETATM   14  C   UNK     1     -11.848  12.623  67.922  1.00  0.00    -0.332 C  
HETATM   15  N   UNK     1     -11.830  15.012  67.337  1.00  0.00    -0.359 NA 
HETATM   16  O   UNK     1     -12.085  11.440  67.750  1.00  0.00    -0.637 OA 
HETATM   17  O   UNK     1     -11.756  13.204  69.149  1.00  0.00    -0.287 OA 
HETATM   18  H1  UNK     1     -12.790  15.106  67.669  1.00  0.00     0.000 HD 
HETATM   19  H2  UNK     1     -11.600  15.729  66.650  1.00  0.00     0.000 HD 
ENDBRANCH  12  13
ENDBRANCH  11  12
ENDBRANCH  10  11
ENDBRANCH   5  10
TORSDOF 4
ENDMDL
MODEL      245
REMARK 921   NORMALIZED FREE ENERGY PREDICTED BY IDOCK:   -2.66 KCAL/MOL
REMARK 922        TOTAL FREE ENERGY PREDICTED BY IDOCK:   -3.72 KCAL/MOL
REMARK 923 INTER-LIGAND FREE ENERGY PREDICTED BY IDOCK:   -3.58 KCAL/MOL
REMARK 924 INTRA-LIGAND FREE ENERGY PREDICTED BY IDOCK:   -0.14 KCAL/MOL
REMARK 927      BINDING AFFINITY PREDICTED BY RF-SCORE:    0.00 PKD
ROOT
HETATM    1  C   UNK     1     -11.317  11.633  67.933  1.00  0.00    -0.299 C  
HETATM    2  N   UNK     1     -10.600  11.328  69.150  1.00  0.00    -0.312 NA 
HETATM    3  H   UNK     1     -10.314  12.105  69.747  1.00  0.00     0.000 HD 
HETATM    4  C   UNK     1     -10.285  10.070  69.546  1.00  0.00    -0.234 C  
HETATM    5  N   UNK     1      -9.793  10.068  70.812  1.00  0.00    -0.249 NA 
HETATM    6  N   UNK     1     -10.406   9.000  68.846  1.00  0.00    -0.212 NA 
HETATM    7  H   UNK     1      -9.848  10.909  71.387  1.00  0.00     0.000 HD 
HETATM    8  H2  UNK     1     -10.774   9.107  67.901  1.00  0.00     0.000 HD 
HETATM    9  H1  UNK     1     -10.169   8.053  69.143  1.00  0.00     0.000 HD 
ENDROOT
BRANCH   5  10
HETATM   10  C   UNK     1      -9.186   8.853  71.343  1.00  0.00    -0.258 C  
BRANCH  10  11
HETATM   11  C   UNK     1     -10.156   8.170  72.304  1.00  0.00    -0.338 C  
BRANCH  11  12
HETATM   12  C   UNK     1      -9.771   6.703  72.548  1.00  0.00    -0.166 C  
BRANCH  12  13
HETATM   13  C   UNK     1     -10.792   5.692  72.011  1.00  0.00    -0.242 C  
HETATM   14  C   UNK     1     -11.727   6.370  70.995  1.00  0.00    -0.296 C  
HETATM   15  N   UNK     1     -10.121   4.540  71.348  1.00  0.00    -0.184 NA 
HETATM   16  O   UNK     1     -12.671   7.087  71.275  1.00  0.00    -0.377 OA 
HETATM   17  O   UNK     1     -11.337   6.098  69.720  1.00  0.00    -0.411 OA 
HETATM   18  H1  UNK     1     -10.800   3.868  70.991  1.00  0.00     0.000 HD 
HETATM   19  H2  UNK     1      -9.444   4.095  71.968  1.00  0.00     0.000 HD 
ENDBRANCH  12  13
ENDBRANCH  11  12
ENDBRANCH  10  11
ENDBRANCH   5  10
TORSDOF 4
ENDMDL
MODEL      246
REMARK 921   NORMALIZED FREE ENERGY PREDICTED BY IDOCK:   -2.66 KCAL/MOL
REMARK 922        TOTAL FREE ENERGY PREDICTED BY IDOCK:   -3.72 KCAL/MOL
REMARK 923 INTER-LIGAND FREE ENERGY PREDICTED BY IDOCK:   -3.48 KCAL/MOL
REMARK 924 INTRA-LIGAND FREE ENERGY PREDICTED BY IDOCK:   -0.24 KCAL/MOL
REMARK 927      BINDING AFFINITY PREDICTED BY RF-SCORE:    0.00 PKD
ROOT
HETATM    1  C   UNK     1      -8.676   5.146  64.071  1.00  0.00    -0.049 C  
HETATM    2  N   UNK     1      -8.522   6.562  64.318  1.00  0.00    -0.341 NA 
HETATM    3  H   UNK     1      -7.966   7.106  63.659  1.00  0.00     0.000 HD 
HETATM    4  C   UNK     1      -9.074   7.208  65.375  1.00  0.00     0.325 C  
HETATM    5  N   UNK     1      -8.935   8.553  65.247  1.00  0.00    -0.390 NA 
HETATM    6  N   UNK     1      -9.648   6.662  66.385  1.00  0.00    -0.310 NA 
HETATM    7  H   UNK     1      -8.608   8.956  64.369  1.00  0.00     0.000 HD 
HETATM    8  H2  UNK     1      -9.693   5.643  66.395  1.00  0.00     0.000 HD 
HETATM    9  H1  UNK     1     -10.063   7.148  67.180  1.00  0.00     0.000 HD 
ENDROOT
BRANCH   5  10
HETATM   10  C   UNK     1      -9.257   9.417  66.378  1.00  0.00    -0.169 C  
BRANCH  10  11
HETATM   11  C   UNK     1      -9.633  10.807  65.873  1.00  0.00    -0.252 C  
BRANCH  11  12
HETATM   12  C   UNK     1     -11.072  10.844  65.337  1.00  0.00     0.080 C  
BRANCH  12  13
HETATM   13  C   UNK     1     -11.285  11.838  64.188  1.00  0.00    -0.364 C  
HETATM   14  C   UNK     1     -11.907  13.140  64.721  1.00  0.00    -0.369 C  
HETATM   15  N   UNK     1     -10.003  12.166  63.506  1.00  0.00    -0.546 NA 
HETATM   16  O   UNK     1     -13.083  13.298  64.999  1.00  0.00    -0.737 OA 
HETATM   17  O   UNK     1     -10.957  14.100  64.887  1.00  0.00    -0.355 OA 
HETATM   18  H1  UNK     1     -10.145  12.827  62.743  1.00  0.00     0.000 HD 
HETATM   19  H2  UNK     1      -9.524  11.324  63.187  1.00  0.00     0.000 HD 
ENDBRANCH  12  13
ENDBRANCH  11  12
ENDBRANCH  10  11
ENDBRANCH   5  10
TORSDOF 4
ENDMDL
MODEL      247
REMARK 921   NORMALIZED FREE ENERGY PREDICTED BY IDOCK:   -2.65 KCAL/MOL
REMARK 922        TOTAL FREE ENERGY PREDICTED BY IDOCK:   -3.71 KCAL/MOL
REMARK 923 INTER-LIGAND FREE ENERGY PREDICTED BY IDOCK:   -3.51 KCAL/MOL
REMARK 924 INTRA-LIGAND FREE ENERGY PREDICTED BY IDOCK:   -0.20 KCAL/MOL
REMARK 927      BINDING AFFINITY PREDICTED BY RF-SCORE:    0.00 PKD
ROOT
HETATM    1  C   UNK     1      -5.990  12.421  69.003  1.00  0.00    -0.071 C  
HETATM    2  N   UNK     1      -6.482  13.147  67.854  1.00  0.00    -0.121 NA 
HETATM    3  H   UNK     1      -6.527  12.658  66.960  1.00  0.00     0.000 HD 
HETATM    4  C   UNK     1      -6.887  14.441  67.894  1.00  0.00    -0.167 C  
HETATM    5  N   UNK     1      -7.482  14.800  66.727  1.00  0.00    -0.253 NA 
HETATM    6  N   UNK     1      -6.737  15.254  68.877  1.00  0.00    -0.110 NA 
HETATM    7  H   UNK     1      -7.715  14.093  66.029  1.00  0.00     0.000 HD 
HETATM    8  H2  UNK     1      -6.267  14.893  69.707  1.00  0.00     0.000 HD 
HETATM    9  H1  UNK     1      -7.041  16.227  68.908  1.00  0.00     0.000 HD 
ENDROOT
BRANCH   5  10
HETATM   10  C   UNK     1      -7.785  16.205  66.480  1.00  0.00    -0.184 C  
BRANCH  10  11
HETATM   11  C   UNK     1      -9.251  16.353  66.081  1.00  0.00    -0.365 C  
BRANCH  11  12
HETATM   12  C   UNK     1     -10.080  16.996  67.203  1.00  0.00    -0.292 C  
BRANCH  12  13
HETATM   13  C   UNK     1     -10.305  18.504  67.027  1.00  0.00    -0.399 C  
HETATM   14  C   UNK     1      -9.063  19.284  67.489  1.00  0.00    -0.297 C  
HETATM   15  N   UNK     1     -10.586  18.851  65.607  1.00  0.00    -0.563 NA 
HETATM   16  O   UNK     1      -8.770  19.521  68.648  1.00  0.00    -0.364 OA 
HETATM   17  O   UNK     1      -8.294  19.647  66.427  1.00  0.00    -0.323 OA 
HETATM   18  H1  UNK     1     -10.735  19.853  65.491  1.00  0.00     0.000 HD 
HETATM   19  H2  UNK     1     -11.368  18.311  65.238  1.00  0.00     0.000 HD 
ENDBRANCH  12  13
ENDBRANCH  11  12
ENDBRANCH  10  11
ENDBRANCH   5  10
TORSDOF 4
ENDMDL
MODEL      248
REMARK 921   NORMALIZED FREE ENERGY PREDICTED BY IDOCK:   -2.65 KCAL/MOL
REMARK 922        TOTAL FREE ENERGY PREDICTED BY IDOCK:   -3.71 KCAL/MOL
REMARK 923 INTER-LIGAND FREE ENERGY PREDICTED BY IDOCK:   -3.38 KCAL/MOL
REMARK 924 INTRA-LIGAND FREE ENERGY PREDICTED BY IDOCK:   -0.34 KCAL/MOL
REMARK 927      BINDING AFFINITY PREDICTED BY RF-SCORE:    0.00 PKD
ROOT
HETATM    1  C   UNK     1     -10.116  11.361  68.255  1.00  0.00    -0.196 C  
HETATM    2  N   UNK     1     -10.636  12.659  67.889  1.00  0.00    -0.215 NA 
HETATM    3  H   UNK     1     -10.671  12.899  66.898  1.00  0.00     0.000 HD 
HETATM    4  C   UNK     1     -11.079  13.575  68.785  1.00  0.00    -0.264 C  
HETATM    5  N   UNK     1     -11.690  14.613  68.156  1.00  0.00    -0.367 NA 
HETATM    6  N   UNK     1     -10.947  13.517  70.061  1.00  0.00    -0.298 NA 
HETATM    7  H   UNK     1     -11.905  14.556  67.160  1.00  0.00     0.000 HD 
HETATM    8  H2  UNK     1     -10.462  12.702  70.438  1.00  0.00     0.000 HD 
HETATM    9  H1  UNK     1     -11.280  14.206  70.736  1.00  0.00     0.000 HD 
ENDROOT
BRANCH   5  10
HETATM   10  C   UNK     1     -12.036  15.808  68.917  1.00  0.00    -0.252 C  
BRANCH  10  11
HETATM   11  C   UNK     1     -10.769  16.594  69.245  1.00  0.00    -0.337 C  
BRANCH  11  12
HETATM   12  C   UNK     1     -10.365  17.522  68.090  1.00  0.00    -0.375 C  
BRANCH  12  13
HETATM   13  C   UNK     1      -9.168  17.017  67.273  1.00  0.00    -0.221 C  
HETATM   14  C   UNK     1      -8.278  16.110  68.140  1.00  0.00    -0.157 C  
HETATM   15  N   UNK     1      -9.610  16.249  66.077  1.00  0.00    -0.339 NA 
HETATM   16  O   UNK     1      -7.475  16.496  68.970  1.00  0.00    -0.212 OA 
HETATM   17  O   UNK     1      -8.534  14.796  67.891  1.00  0.00    -0.144 OA 
HETATM   18  H1  UNK     1      -8.815  15.913  65.534  1.00  0.00     0.000 HD 
HETATM   19  H2  UNK     1     -10.253  16.792  65.501  1.00  0.00     0.000 HD 
ENDBRANCH  12  13
ENDBRANCH  11  12
ENDBRANCH  10  11
ENDBRANCH   5  10
TORSDOF 4
ENDMDL
MODEL      249
REMARK 921   NORMALIZED FREE ENERGY PREDICTED BY IDOCK:   -2.65 KCAL/MOL
REMARK 922        TOTAL FREE ENERGY PREDICTED BY IDOCK:   -3.70 KCAL/MOL
REMARK 923 INTER-LIGAND FREE ENERGY PREDICTED BY IDOCK:   -3.65 KCAL/MOL
REMARK 924 INTRA-LIGAND FREE ENERGY PREDICTED BY IDOCK:   -0.05 KCAL/MOL
REMARK 927      BINDING AFFINITY PREDICTED BY RF-SCORE:    0.00 PKD
ROOT
HETATM    1  C   UNK     1      -8.230   8.056  74.157  1.00  0.00    -0.262 C  
HETATM    2  N   UNK     1      -8.298   8.653  72.843  1.00  0.00    -0.415 NA 
HETATM    3  H   UNK     1      -7.432   8.994  72.426  1.00  0.00     0.000 HD 
HETATM    4  C   UNK     1      -9.445   8.787  72.132  1.00  0.00    -0.239 C  
HETATM    5  N   UNK     1      -9.185   9.195  70.863  1.00  0.00    -0.255 NA 
HETATM    6  N   UNK     1     -10.637   8.580  72.566  1.00  0.00    -0.303 NA 
HETATM    7  H   UNK     1      -8.227   9.207  70.513  1.00  0.00     0.000 HD 
HETATM    8  H2  UNK     1     -10.729   8.287  73.538  1.00  0.00     0.000 HD 
HETATM    9  H1  UNK     1     -11.500   8.680  72.032  1.00  0.00     0.000 HD 
ENDROOT
BRANCH   5  10
HETATM   10  C   UNK     1     -10.288   9.615  70.005  1.00  0.00    -0.257 C  
BRANCH  10  11
HETATM   11  C   UNK     1     -10.005  11.006  69.446  1.00  0.00    -0.019 C  
BRANCH  11  12
HETATM   12  C   UNK     1     -10.445  11.126  67.979  1.00  0.00    -0.217 C  
BRANCH  12  13
HETATM   13  C   UNK     1     -11.621  12.087  67.758  1.00  0.00    -0.330 C  
HETATM   14  C   UNK     1     -11.184  13.535  68.037  1.00  0.00    -0.271 C  
HETATM   15  N   UNK     1     -12.136  12.004  66.364  1.00  0.00    -0.537 NA 
HETATM   16  O   UNK     1     -11.060  14.033  69.142  1.00  0.00    -0.253 OA 
HETATM   17  O   UNK     1     -10.907  14.191  66.878  1.00  0.00    -0.290 OA 
HETATM   18  H1  UNK     1     -12.918  12.643  66.217  1.00  0.00     0.000 HD 
HETATM   19  H2  UNK     1     -12.383  11.047  66.113  1.00  0.00     0.000 HD 
ENDBRANCH  12  13
ENDBRANCH  11  12
ENDBRANCH  10  11
ENDBRANCH   5  10
TORSDOF 4
ENDMDL
MODEL      250
REMARK 921   NORMALIZED FREE ENERGY PREDICTED BY IDOCK:   -2.64 KCAL/MOL
REMARK 922        TOTAL FREE ENERGY PREDICTED BY IDOCK:   -3.70 KCAL/MOL
REMARK 923 INTER-LIGAND FREE ENERGY PREDICTED BY IDOCK:   -2.87 KCAL/MOL
REMARK 924 INTRA-LIGAND FREE ENERGY PREDICTED BY IDOCK:   -0.83 KCAL/MOL
REMARK 927      BINDING AFFINITY PREDICTED BY RF-SCORE:    0.00 PKD
ROOT
HETATM    1  C   UNK     1     -10.701   5.844  67.309  1.00  0.00    -0.297 C  
HETATM    2  N   UNK     1     -10.761   7.264  67.572  1.00  0.00    -0.408 NA 
HETATM    3  H   UNK     1     -11.468   7.813  67.083  1.00  0.00     0.000 HD 
HETATM    4  C   UNK     1      -9.932   7.908  68.431  1.00  0.00    -0.180 C  
HETATM    5  N   UNK     1     -10.341   9.188  68.630  1.00  0.00    -0.205 NA 
HETATM    6  N   UNK     1      -8.885   7.418  68.989  1.00  0.00    -0.133 NA 
HETATM    7  H   UNK     1     -11.251   9.497  68.289  1.00  0.00     0.000 HD 
HETATM    8  H2  UNK     1      -8.654   6.450  68.766  1.00  0.00     0.000 HD 
HETATM    9  H1  UNK     1      -8.261   7.902  69.635  1.00  0.00     0.000 HD 
ENDROOT
BRANCH   5  10
HETATM   10  C   UNK     1      -9.466  10.117  69.338  1.00  0.00    -0.224 C  
BRANCH  10  11
HETATM   11  C   UNK     1      -9.552  11.498  68.694  1.00  0.00    -0.159 C  
BRANCH  11  12
HETATM   12  C   UNK     1      -8.686  11.587  67.429  1.00  0.00    -0.147 C  
BRANCH  12  13
HETATM   13  C   UNK     1      -9.491  11.648  66.124  1.00  0.00    -0.224 C  
HETATM   14  C   UNK     1      -9.084  10.492  65.194  1.00  0.00    -0.197 C  
HETATM   15  N   UNK     1     -10.954  11.560  66.382  1.00  0.00    -0.291 NA 
HETATM   16  O   UNK     1      -8.079  10.462  64.505  1.00  0.00    -0.164 OA 
HETATM   17  O   UNK     1      -9.979   9.470  65.268  1.00  0.00    -0.247 OA 
HETATM   18  H1  UNK     1     -11.489  11.600  65.515  1.00  0.00     0.000 HD 
HETATM   19  H2  UNK     1     -11.260  12.273  67.044  1.00  0.00     0.000 HD 
ENDBRANCH  12  13
ENDBRANCH  11  12
ENDBRANCH  10  11
ENDBRANCH   5  10
TORSDOF 4
ENDMDL
MODEL      251
REMARK 921   NORMALIZED FREE ENERGY PREDICTED BY IDOCK:   -2.64 KCAL/MOL
REMARK 922        TOTAL FREE ENERGY PREDICTED BY IDOCK:   -3.70 KCAL/MOL
REMARK 923 INTER-LIGAND FREE ENERGY PREDICTED BY IDOCK:   -3.15 KCAL/MOL
REMARK 924 INTRA-LIGAND FREE ENERGY PREDICTED BY IDOCK:   -0.55 KCAL/MOL
REMARK 927      BINDING AFFINITY PREDICTED BY RF-SCORE:    0.00 PKD
ROOT
HETATM    1  C   UNK     1      -9.205   9.320  65.417  1.00  0.00    -0.222 C  
HETATM    2  N   UNK     1     -10.198   8.714  66.274  1.00  0.00    -0.408 NA 
HETATM    3  H   UNK     1     -11.113   9.159  66.339  1.00  0.00     0.000 HD 
HETATM    4  C   UNK     1      -9.983   7.587  66.999  1.00  0.00    -0.234 C  
HETATM    5  N   UNK     1     -11.140   7.137  67.550  1.00  0.00    -0.568 NA 
HETATM    6  N   UNK     1      -8.855   7.001  67.177  1.00  0.00    -0.119 NA 
HETATM    7  H   UNK     1     -12.035   7.540  67.270  1.00  0.00     0.000 HD 
HETATM    8  H2  UNK     1      -8.040   7.423  66.730  1.00  0.00     0.000 HD 
HETATM    9  H1  UNK     1      -8.693   6.153  67.721  1.00  0.00     0.000 HD 
ENDROOT
BRANCH   5  10
HETATM   10  C   UNK     1     -11.093   6.072  68.546  1.00  0.00    -0.191 C  
BRANCH  10  11
HETATM   11  C   UNK     1     -11.255   6.667  69.943  1.00  0.00    -0.421 C  
BRANCH  11  12
HETATM   12  C   UNK     1     -10.761   5.699  71.029  1.00  0.00    -0.304 C  
BRANCH  12  13
HETATM   13  C   UNK     1      -9.670   4.731  70.554  1.00  0.00    -0.211 C  
HETATM   14  C   UNK     1      -8.280   5.358  70.752  1.00  0.00    -0.115 C  
HETATM   15  N   UNK     1      -9.723   3.443  71.300  1.00  0.00    -0.167 NA 
HETATM   16  O   UNK     1      -7.774   6.194  70.025  1.00  0.00    -0.092 OA 
HETATM   17  O   UNK     1      -7.691   4.887  71.885  1.00  0.00    -0.097 OA 
HETATM   18  H1  UNK     1      -8.998   2.800  70.984  1.00  0.00     0.000 HD 
HETATM   19  H2  UNK     1     -10.649   3.019  71.246  1.00  0.00     0.000 HD 
ENDBRANCH  12  13
ENDBRANCH  11  12
ENDBRANCH  10  11
ENDBRANCH   5  10
TORSDOF 4
ENDMDL
MODEL      252
REMARK 921   NORMALIZED FREE ENERGY PREDICTED BY IDOCK:   -2.63 KCAL/MOL
REMARK 922        TOTAL FREE ENERGY PREDICTED BY IDOCK:   -3.68 KCAL/MOL
REMARK 923 INTER-LIGAND FREE ENERGY PREDICTED BY IDOCK:   -3.48 KCAL/MOL
REMARK 924 INTRA-LIGAND FREE ENERGY PREDICTED BY IDOCK:   -0.20 KCAL/MOL
REMARK 927      BINDING AFFINITY PREDICTED BY RF-SCORE:    0.00 PKD
ROOT
HETATM    1  C   UNK     1      -7.607   7.083  64.945  1.00  0.00    -0.106 C  
HETATM    2  N   UNK     1      -7.853   7.302  66.352  1.00  0.00    -0.103 NA 
HETATM    3  H   UNK     1      -7.060   7.248  66.992  1.00  0.00     0.000 HD 
HETATM    4  C   UNK     1      -9.075   7.576  66.872  1.00  0.00    -0.141 C  
HETATM    5  N   UNK     1      -8.978   7.930  68.180  1.00  0.00    -0.132 NA 
HETATM    6  N   UNK     1     -10.198   7.508  66.252  1.00  0.00    -0.442 NA 
HETATM    7  H   UNK     1      -8.065   8.115  68.597  1.00  0.00     0.000 HD 
HETATM    8  H2  UNK     1     -10.167   7.220  65.274  1.00  0.00     0.000 HD 
HETATM    9  H1  UNK     1     -11.117   7.713  66.642  1.00  0.00     0.000 HD 
ENDROOT
BRANCH   5  10
HETATM   10  C   UNK     1     -10.191   8.045  68.983  1.00  0.00    -0.210 C  
BRANCH  10  11
HETATM   11  C   UNK     1      -9.820   8.190  70.456  1.00  0.00    -0.194 C  
BRANCH  11  12
HETATM   12  C   UNK     1     -10.540   9.382  71.105  1.00  0.00    -0.403 C  
BRANCH  12  13
HETATM   13  C   UNK     1     -11.292  10.274  70.109  1.00  0.00    -0.316 C  
HETATM   14  C   UNK     1     -12.601  10.783  70.736  1.00  0.00    -0.383 C  
HETATM   15  N   UNK     1     -10.471  11.447  69.701  1.00  0.00    -0.431 NA 
HETATM   16  O   UNK     1     -13.629  10.138  70.845  1.00  0.00    -0.274 OA 
HETATM   17  O   UNK     1     -12.456  12.054  71.201  1.00  0.00    -0.348 OA 
HETATM   18  H1  UNK     1     -10.971  12.040  69.039  1.00  0.00     0.000 HD 
HETATM   19  H2  UNK     1      -9.565  11.158  69.333  1.00  0.00     0.000 HD 
ENDBRANCH  12  13
ENDBRANCH  11  12
ENDBRANCH  10  11
ENDBRANCH   5  10
TORSDOF 4
ENDMDL
MODEL      253
REMARK 921   NORMALIZED FREE ENERGY PREDICTED BY IDOCK:   -2.62 KCAL/MOL
REMARK 922        TOTAL FREE ENERGY PREDICTED BY IDOCK:   -3.67 KCAL/MOL
REMARK 923 INTER-LIGAND FREE ENERGY PREDICTED BY IDOCK:   -3.27 KCAL/MOL
REMARK 924 INTRA-LIGAND FREE ENERGY PREDICTED BY IDOCK:   -0.40 KCAL/MOL
REMARK 927      BINDING AFFINITY PREDICTED BY RF-SCORE:    0.00 PKD
ROOT
HETATM    1  C   UNK     1     -11.517  10.709  68.431  1.00  0.00    -0.259 C  
HETATM    2  N   UNK     1     -11.701  11.191  67.081  1.00  0.00    -0.447 NA 
HETATM    3  H   UNK     1     -12.567  10.950  66.599  1.00  0.00     0.000 HD 
HETATM    4  C   UNK     1     -10.789  11.944  66.418  1.00  0.00    -0.279 C  
HETATM    5  N   UNK     1     -11.305  12.418  65.254  1.00  0.00    -0.321 NA 
HETATM    6  N   UNK     1      -9.586  12.190  66.796  1.00  0.00    -0.206 NA 
HETATM    7  H   UNK     1     -12.302  12.326  65.058  1.00  0.00     0.000 HD 
HETATM    8  H2  UNK     1      -9.288  11.779  67.681  1.00  0.00     0.000 HD 
HETATM    9  H1  UNK     1      -8.900  12.757  66.298  1.00  0.00     0.000 HD 
ENDROOT
BRANCH   5  10
HETATM   10  C   UNK     1     -10.421  13.060  64.287  1.00  0.00    -0.402 C  
BRANCH  10  11
HETATM   11  C   UNK     1     -10.812  14.526  64.126  1.00  0.00     0.402 C  
BRANCH  11  12
HETATM   12  C   UNK     1      -9.926  15.444  64.981  1.00  0.00    -0.115 C  
BRANCH  12  13
HETATM   13  C   UNK     1     -10.703  16.517  65.756  1.00  0.00    -0.225 C  
HETATM   14  C   UNK     1     -10.784  16.142  67.246  1.00  0.00    -0.277 C  
HETATM   15  N   UNK     1     -10.056  17.852  65.634  1.00  0.00    -0.553 NA 
HETATM   16  O   UNK     1     -11.548  15.324  67.727  1.00  0.00    -0.335 OA 
HETATM   17  O   UNK     1      -9.851  16.820  67.969  1.00  0.00    -0.252 OA 
HETATM   18  H1  UNK     1     -10.573  18.565  66.149  1.00  0.00     0.000 HD 
HETATM   19  H2  UNK     1      -9.927  18.117  64.658  1.00  0.00     0.000 HD 
ENDBRANCH  12  13
ENDBRANCH  11  12
ENDBRANCH  10  11
ENDBRANCH   5  10
TORSDOF 4
ENDMDL
MODEL      254
REMARK 921   NORMALIZED FREE ENERGY PREDICTED BY IDOCK:   -2.62 KCAL/MOL
REMARK 922        TOTAL FREE ENERGY PREDICTED BY IDOCK:   -3.67 KCAL/MOL
REMARK 923 INTER-LIGAND FREE ENERGY PREDICTED BY IDOCK:   -3.51 KCAL/MOL
REMARK 924 INTRA-LIGAND FREE ENERGY PREDICTED BY IDOCK:   -0.16 KCAL/MOL
REMARK 927      BINDING AFFINITY PREDICTED BY RF-SCORE:    0.00 PKD
ROOT
HETATM    1  C   UNK     1     -11.336   5.969  69.985  1.00  0.00    -0.284 C  
HETATM    2  N   UNK     1     -11.391   7.413  70.026  1.00  0.00    -0.448 NA 
HETATM    3  H   UNK     1     -11.790   7.855  70.854  1.00  0.00     0.000 HD 
HETATM    4  C   UNK     1     -10.942   8.213  69.027  1.00  0.00     0.122 C  
HETATM    5  N   UNK     1     -10.935   9.515  69.416  1.00  0.00    -0.356 NA 
HETATM    6  N   UNK     1     -10.578   7.836  67.855  1.00  0.00    -0.379 NA 
HETATM    7  H   UNK     1     -11.090   9.761  70.394  1.00  0.00     0.000 HD 
HETATM    8  H2  UNK     1     -10.631   6.837  67.655  1.00  0.00     0.000 HD 
HETATM    9  H1  UNK     1     -10.241   8.438  67.104  1.00  0.00     0.000 HD 
ENDROOT
BRANCH   5  10
HETATM   10  C   UNK     1     -10.703  10.558  68.422  1.00  0.00    -0.224 C  
BRANCH  10  11
HETATM   11  C   UNK     1     -10.971  11.927  69.041  1.00  0.00    -0.267 C  
BRANCH  11  12
HETATM   12  C   UNK     1     -11.068  13.023  67.969  1.00  0.00    -0.288 C  
BRANCH  12  13
HETATM   13  C   UNK     1      -9.927  14.047  68.017  1.00  0.00    -0.235 C  
HETATM   14  C   UNK     1     -10.373  15.305  68.781  1.00  0.00    -0.232 C  
HETATM   15  N   UNK     1      -8.720  13.486  68.686  1.00  0.00    -0.353 NA 
HETATM   16  O   UNK     1     -11.073  16.193  68.328  1.00  0.00    -0.331 OA 
HETATM   17  O   UNK     1      -9.916  15.283  70.063  1.00  0.00    -0.234 OA 
HETATM   18  H1  UNK     1      -7.962  14.166  68.718  1.00  0.00     0.000 HD 
HETATM   19  H2  UNK     1      -8.423  12.614  68.248  1.00  0.00     0.000 HD 
ENDBRANCH  12  13
ENDBRANCH  11  12
ENDBRANCH  10  11
ENDBRANCH   5  10
TORSDOF 4
ENDMDL
MODEL      255
REMARK 921   NORMALIZED FREE ENERGY PREDICTED BY IDOCK:   -2.61 KCAL/MOL
REMARK 922        TOTAL FREE ENERGY PREDICTED BY IDOCK:   -3.66 KCAL/MOL
REMARK 923 INTER-LIGAND FREE ENERGY PREDICTED BY IDOCK:   -3.51 KCAL/MOL
REMARK 924 INTRA-LIGAND FREE ENERGY PREDICTED BY IDOCK:   -0.15 KCAL/MOL
REMARK 927      BINDING AFFINITY PREDICTED BY RF-SCORE:    0.00 PKD
ROOT
HETATM    1  C   UNK     1      -7.382  11.548  66.971  1.00  0.00    -0.145 C  
HETATM    2  N   UNK     1      -8.795  11.593  67.272  1.00  0.00    -0.159 NA 
HETATM    3  H   UNK     1      -9.136  11.042  68.060  1.00  0.00     0.000 HD 
HETATM    4  C   UNK     1      -9.693  12.326  66.568  1.00  0.00    -0.234 C  
HETATM    5  N   UNK     1     -10.901  12.338  67.188  1.00  0.00    -0.236 NA 
HETATM    6  N   UNK     1      -9.477  12.930  65.455  1.00  0.00    -0.463 NA 
HETATM    7  H   UNK     1     -10.997  11.973  68.136  1.00  0.00     0.000 HD 
HETATM    8  H2  UNK     1      -8.539  12.851  65.063  1.00  0.00     0.000 HD 
HETATM    9  H1  UNK     1     -10.152  13.480  64.925  1.00  0.00     0.000 HD 
ENDROOT
BRANCH   5  10
HETATM   10  C   UNK     1     -12.062  12.877  66.487  1.00  0.00    -0.305 C  
BRANCH  10  11
HETATM   11  C   UNK     1     -11.915  14.388  66.335  1.00  0.00    -0.402 C  
BRANCH  11  12
HETATM   12  C   UNK     1     -11.540  15.056  67.666  1.00  0.00    -0.327 C  
BRANCH  12  13
HETATM   13  C   UNK     1     -10.553  16.222  67.524  1.00  0.00    -0.310 C  
HETATM   14  C   UNK     1      -9.132  15.764  67.895  1.00  0.00    -0.186 C  
HETATM   15  N   UNK     1     -10.535  16.754  66.133  1.00  0.00    -0.307 NA 
HETATM   16  O   UNK     1      -8.711  15.622  69.029  1.00  0.00    -0.202 OA 
HETATM   17  O   UNK     1      -8.402  15.491  66.779  1.00  0.00    -0.232 OA 
HETATM   18  H1  UNK     1      -9.878  17.528  66.038  1.00  0.00     0.000 HD 
HETATM   19  H2  UNK     1     -11.470  17.015  65.821  1.00  0.00     0.000 HD 
ENDBRANCH  12  13
ENDBRANCH  11  12
ENDBRANCH  10  11
ENDBRANCH   5  10
TORSDOF 4
ENDMDL
MODEL      256
REMARK 921   NORMALIZED FREE ENERGY PREDICTED BY IDOCK:   -2.59 KCAL/MOL
REMARK 922        TOTAL FREE ENERGY PREDICTED BY IDOCK:   -3.63 KCAL/MOL
REMARK 923 INTER-LIGAND FREE ENERGY PREDICTED BY IDOCK:   -3.10 KCAL/MOL
REMARK 924 INTRA-LIGAND FREE ENERGY PREDICTED BY IDOCK:   -0.53 KCAL/MOL
REMARK 927      BINDING AFFINITY PREDICTED BY RF-SCORE:    0.00 PKD
ROOT
HETATM    1  C   UNK     1     -12.586  12.262  63.302  1.00  0.00    -0.318 C  
HETATM    2  N   UNK     1     -11.566  11.621  64.100  1.00  0.00    -0.301 NA 
HETATM    3  H   UNK     1     -11.137  10.769  63.737  1.00  0.00     0.000 HD 
HETATM    4  C   UNK     1     -11.146  12.085  65.303  1.00  0.00    -0.317 C  
HETATM    5  N   UNK     1     -10.050  11.404  65.729  1.00  0.00    -0.235 NA 
HETATM    6  N   UNK     1     -11.688  13.027  65.986  1.00  0.00    -0.372 NA 
HETATM    7  H   UNK     1      -9.562  10.767  65.099  1.00  0.00     0.000 HD 
HETATM    8  H2  UNK     1     -12.515  13.469  65.586  1.00  0.00     0.000 HD 
HETATM    9  H1  UNK     1     -11.372  13.376  66.891  1.00  0.00     0.000 HD 
ENDROOT
BRANCH   5  10
HETATM   10  C   UNK     1      -9.577  11.593  67.097  1.00  0.00    -0.175 C  
BRANCH  10  11
HETATM   11  C   UNK     1      -8.277  12.392  67.086  1.00  0.00    -0.176 C  
BRANCH  11  12
HETATM   12  C   UNK     1      -8.035  13.097  68.429  1.00  0.00    -0.130 C  
BRANCH  12  13
HETATM   13  C   UNK     1      -8.147  14.626  68.360  1.00  0.00    -0.147 C  
HETATM   14  C   UNK     1      -9.605  15.063  68.578  1.00  0.00    -0.210 C  
HETATM   15  N   UNK     1      -7.293  15.281  69.388  1.00  0.00    -0.193 NA 
HETATM   16  O   UNK     1     -10.488  15.019  67.739  1.00  0.00    -0.244 OA 
HETATM   17  O   UNK     1      -9.802  15.474  69.860  1.00  0.00    -0.286 OA 
HETATM   18  H1  UNK     1      -7.367  16.297  69.342  1.00  0.00     0.000 HD 
HETATM   19  H2  UNK     1      -6.323  14.973  69.320  1.00  0.00     0.000 HD 
ENDBRANCH  12  13
ENDBRANCH  11  12
ENDBRANCH  10  11
ENDBRANCH   5  10
TORSDOF 4
ENDMDL
MODEL      257
REMARK 921   NORMALIZED FREE ENERGY PREDICTED BY IDOCK:   -2.57 KCAL/MOL
REMARK 922        TOTAL FREE ENERGY PREDICTED BY IDOCK:   -3.61 KCAL/MOL
REMARK 923 INTER-LIGAND FREE ENERGY PREDICTED BY IDOCK:   -3.33 KCAL/MOL
REMARK 924 INTRA-LIGAND FREE ENERGY PREDICTED BY IDOCK:   -0.28 KCAL/MOL
REMARK 927      BINDING AFFINITY PREDICTED BY RF-SCORE:    0.00 PKD
ROOT
HETATM    1  C   UNK     1     -13.270  10.784  71.783  1.00  0.00    -0.418 C  
HETATM    2  N   UNK     1     -12.826  10.316  70.489  1.00  0.00    -0.534 NA 
HETATM    3  H   UNK     1     -13.528   9.961  69.840  1.00  0.00     0.000 HD 
HETATM    4  C   UNK     1     -11.530  10.322  70.089  1.00  0.00    -0.309 C  
HETATM    5  N   UNK     1     -11.430  10.017  68.769  1.00  0.00    -0.498 NA 
HETATM    6  N   UNK     1     -10.507  10.562  70.827  1.00  0.00    -0.061 NA 
HETATM    7  H   UNK     1     -12.265   9.977  68.185  1.00  0.00     0.000 HD 
HETATM    8  H2  UNK     1     -10.686  10.769  71.810  1.00  0.00     0.000 HD 
HETATM    9  H1  UNK     1      -9.533  10.566  70.526  1.00  0.00     0.000 HD 
ENDROOT
BRANCH   5  10
HETATM   10  C   UNK     1     -10.115   9.749  68.194  1.00  0.00    -0.165 C  
BRANCH  10  11
HETATM   11  C   UNK     1     -10.121   8.383  67.513  1.00  0.00    -0.279 C  
BRANCH  11  12
HETATM   12  C   UNK     1      -9.851   8.503  66.005  1.00  0.00    -0.135 C  
BRANCH  12  13
HETATM   13  C   UNK     1      -9.429   9.907  65.556  1.00  0.00    -0.252 C  
HETATM   14  C   UNK     1      -8.036   9.861  64.905  1.00  0.00    -0.145 C  
HETATM   15  N   UNK     1     -10.394  10.479  64.577  1.00  0.00    -0.301 NA 
HETATM   16  O   UNK     1      -6.978   9.799  65.507  1.00  0.00    -0.089 OA 
HETATM   17  O   UNK     1      -8.133   9.856  63.548  1.00  0.00    -0.141 OA 
HETATM   18  H1  UNK     1     -10.113  11.413  64.279  1.00  0.00     0.000 HD 
HETATM   19  H2  UNK     1     -11.345  10.474  64.944  1.00  0.00     0.000 HD 
ENDBRANCH  12  13
ENDBRANCH  11  12
ENDBRANCH  10  11
ENDBRANCH   5  10
TORSDOF 4
ENDMDL
MODEL      258
REMARK 921   NORMALIZED FREE ENERGY PREDICTED BY IDOCK:   -2.57 KCAL/MOL
REMARK 922        TOTAL FREE ENERGY PREDICTED BY IDOCK:   -3.61 KCAL/MOL
REMARK 923 INTER-LIGAND FREE ENERGY PREDICTED BY IDOCK:   -3.54 KCAL/MOL
REMARK 924 INTRA-LIGAND FREE ENERGY PREDICTED BY IDOCK:   -0.06 KCAL/MOL
REMARK 927      BINDING AFFINITY PREDICTED BY RF-SCORE:    0.00 PKD
ROOT
HETATM    1  C   UNK     1     -11.478   6.175  72.001  1.00  0.00    -0.313 C  
HETATM    2  N   UNK     1     -11.688   6.961  70.806  1.00  0.00    -0.351 NA 
HETATM    3  H   UNK     1     -12.648   7.178  70.537  1.00  0.00     0.000 HD 
HETATM    4  C   UNK     1     -10.684   7.428  70.024  1.00  0.00    -0.246 C  
HETATM    5  N   UNK     1     -11.158   8.295  69.092  1.00  0.00    -0.420 NA 
HETATM    6  N   UNK     1      -9.443   7.110  70.108  1.00  0.00    -0.162 NA 
HETATM    7  H   UNK     1     -12.119   8.636  69.147  1.00  0.00     0.000 HD 
HETATM    8  H2  UNK     1      -9.187   6.440  70.835  1.00  0.00     0.000 HD 
HETATM    9  H1  UNK     1      -8.687   7.460  69.520  1.00  0.00     0.000 HD 
ENDROOT
BRANCH   5  10
HETATM   10  C   UNK     1     -10.282   8.736  68.011  1.00  0.00    -0.213 C  
BRANCH  10  11
HETATM   11  C   UNK     1     -10.655  10.156  67.593  1.00  0.00    -0.316 C  
BRANCH  11  12
HETATM   12  C   UNK     1     -11.652  10.791  68.574  1.00  0.00    -0.325 C  
BRANCH  12  13
HETATM   13  C   UNK     1     -11.023  11.809  69.533  1.00  0.00    -0.064 C  
HETATM   14  C   UNK     1     -10.428  12.986  68.742  1.00  0.00    -0.164 C  
HETATM   15  N   UNK     1     -12.024  12.340  70.498  1.00  0.00    -0.512 NA 
HETATM   16  O   UNK     1      -9.363  12.972  68.150  1.00  0.00    -0.209 OA 
HETATM   17  O   UNK     1     -11.272  14.053  68.749  1.00  0.00    -0.244 OA 
HETATM   18  H1  UNK     1     -11.605  13.017  71.135  1.00  0.00     0.000 HD 
HETATM   19  H2  UNK     1     -12.490  11.588  71.005  1.00  0.00     0.000 HD 
ENDBRANCH  12  13
ENDBRANCH  11  12
ENDBRANCH  10  11
ENDBRANCH   5  10
TORSDOF 4
ENDMDL
MODEL      259
REMARK 921   NORMALIZED FREE ENERGY PREDICTED BY IDOCK:   -2.57 KCAL/MOL
REMARK 922        TOTAL FREE ENERGY PREDICTED BY IDOCK:   -3.60 KCAL/MOL
REMARK 923 INTER-LIGAND FREE ENERGY PREDICTED BY IDOCK:   -3.46 KCAL/MOL
REMARK 924 INTRA-LIGAND FREE ENERGY PREDICTED BY IDOCK:   -0.15 KCAL/MOL
REMARK 927      BINDING AFFINITY PREDICTED BY RF-SCORE:    0.00 PKD
ROOT
HETATM    1  C   UNK     1     -10.615  16.858  68.553  1.00  0.00    -0.367 C  
HETATM    2  N   UNK     1     -10.946  15.513  68.140  1.00  0.00    -0.299 NA 
HETATM    3  H   UNK     1     -11.129  15.346  67.150  1.00  0.00     0.000 HD 
HETATM    4  C   UNK     1     -11.027  14.460  68.991  1.00  0.00    -0.256 C  
HETATM    5  N   UNK     1     -11.155  13.293  68.307  1.00  0.00    -0.253 NA 
HETATM    6  N   UNK     1     -11.003  14.515  70.273  1.00  0.00    -0.481 NA 
HETATM    7  H   UNK     1     -11.023  13.271  67.296  1.00  0.00     0.000 HD 
HETATM    8  H2  UNK     1     -10.916  15.441  70.693  1.00  0.00     0.000 HD 
HETATM    9  H1  UNK     1     -11.064  13.724  70.914  1.00  0.00     0.000 HD 
ENDROOT
BRANCH   5  10
HETATM   10  C   UNK     1     -11.484  12.070  69.033  1.00  0.00    -0.300 C  
BRANCH  10  11
HETATM   11  C   UNK     1     -11.421  10.876  68.085  1.00  0.00    -0.368 C  
BRANCH  11  12
HETATM   12  C   UNK     1     -10.295   9.906  68.470  1.00  0.00    -0.221 C  
BRANCH  12  13
HETATM   13  C   UNK     1     -10.782   8.501  68.847  1.00  0.00    -0.073 C  
HETATM   14  C   UNK     1     -10.249   7.466  67.842  1.00  0.00    -0.194 C  
HETATM   15  N   UNK     1     -10.333   8.117  70.213  1.00  0.00    -0.205 NA 
HETATM   16  O   UNK     1     -10.703   7.262  66.731  1.00  0.00    -0.311 OA 
HETATM   17  O   UNK     1      -9.159   6.822  68.341  1.00  0.00    -0.127 OA 
HETATM   18  H1  UNK     1     -10.657   7.183  70.463  1.00  0.00     0.000 HD 
HETATM   19  H2  UNK     1     -10.614   8.809  70.907  1.00  0.00     0.000 HD 
ENDBRANCH  12  13
ENDBRANCH  11  12
ENDBRANCH  10  11
ENDBRANCH   5  10
TORSDOF 4
ENDMDL
MODEL      260
REMARK 921   NORMALIZED FREE ENERGY PREDICTED BY IDOCK:   -2.55 KCAL/MOL
REMARK 922        TOTAL FREE ENERGY PREDICTED BY IDOCK:   -3.59 KCAL/MOL
REMARK 923 INTER-LIGAND FREE ENERGY PREDICTED BY IDOCK:   -3.39 KCAL/MOL
REMARK 924 INTRA-LIGAND FREE ENERGY PREDICTED BY IDOCK:   -0.19 KCAL/MOL
REMARK 927      BINDING AFFINITY PREDICTED BY RF-SCORE:    0.00 PKD
ROOT
HETATM    1  C   UNK     1      -9.237  17.291  66.661  1.00  0.00    -0.257 C  
HETATM    2  N   UNK     1      -9.502  16.097  65.891  1.00  0.00    -0.396 NA 
HETATM    3  H   UNK     1      -9.175  16.067  64.925  1.00  0.00     0.000 HD 
HETATM    4  C   UNK     1     -10.159  15.015  66.377  1.00  0.00    -0.276 C  
HETATM    5  N   UNK     1     -10.088  13.974  65.508  1.00  0.00    -0.408 NA 
HETATM    6  N   UNK     1     -10.788  14.946  67.495  1.00  0.00    -0.284 NA 
HETATM    7  H   UNK     1      -9.462  14.016  64.704  1.00  0.00     0.000 HD 
HETATM    8  H2  UNK     1     -10.793  15.787  68.073  1.00  0.00     0.000 HD 
HETATM    9  H1  UNK     1     -11.282  14.133  67.861  1.00  0.00     0.000 HD 
ENDROOT
BRANCH   5  10
HETATM   10  C   UNK     1     -10.916  12.794  65.735  1.00  0.00    -0.277 C  
BRANCH  10  11
HETATM   11  C   UNK     1     -10.030  11.607  66.104  1.00  0.00    -0.252 C  
BRANCH  11  12
HETATM   12  C   UNK     1     -10.839  10.483  66.770  1.00  0.00    -0.209 C  
BRANCH  12  13
HETATM   13  C   UNK     1      -9.976   9.404  67.436  1.00  0.00    -0.199 C  
HETATM   14  C   UNK     1     -10.190   8.048  66.741  1.00  0.00    -0.297 C  
HETATM   15  N   UNK     1      -8.529   9.748  67.374  1.00  0.00    -0.121 NA 
HETATM   16  O   UNK     1     -11.144   7.310  66.913  1.00  0.00    -0.287 OA 
HETATM   17  O   UNK     1      -9.185   7.789  65.861  1.00  0.00    -0.129 OA 
HETATM   18  H1  UNK     1      -7.955   9.030  67.817  1.00  0.00     0.000 HD 
HETATM   19  H2  UNK     1      -8.347  10.669  67.771  1.00  0.00     0.000 HD 
ENDBRANCH  12  13
ENDBRANCH  11  12
ENDBRANCH  10  11
ENDBRANCH   5  10
TORSDOF 4
ENDMDL
MODEL      261
REMARK 921   NORMALIZED FREE ENERGY PREDICTED BY IDOCK:   -2.53 KCAL/MOL
REMARK 922        TOTAL FREE ENERGY PREDICTED BY IDOCK:   -3.57 KCAL/MOL
REMARK 923 INTER-LIGAND FREE ENERGY PREDICTED BY IDOCK:   -3.38 KCAL/MOL
REMARK 924 INTRA-LIGAND FREE ENERGY PREDICTED BY IDOCK:   -0.19 KCAL/MOL
REMARK 927      BINDING AFFINITY PREDICTED BY RF-SCORE:    0.00 PKD
ROOT
HETATM    1  C   UNK     1      -9.430   9.763  64.640  1.00  0.00    -0.229 C  
HETATM    2  N   UNK     1      -9.968   9.632  65.975  1.00  0.00    -0.280 NA 
HETATM    3  H   UNK     1     -10.888  10.030  66.163  1.00  0.00     0.000 HD 
HETATM    4  C   UNK     1      -9.322   9.010  66.992  1.00  0.00    -0.150 C  
HETATM    5  N   UNK     1     -10.139   8.861  68.067  1.00  0.00    -0.186 NA 
HETATM    6  N   UNK     1      -8.101   8.612  66.987  1.00  0.00    -0.099 NA 
HETATM    7  H   UNK     1     -11.137   9.054  67.986  1.00  0.00     0.000 HD 
HETATM    8  H2  UNK     1      -7.565   8.780  66.135  1.00  0.00     0.000 HD 
HETATM    9  H1  UNK     1      -7.614   8.144  67.752  1.00  0.00     0.000 HD 
ENDROOT
BRANCH   5  10
HETATM   10  C   UNK     1      -9.576   8.422  69.340  1.00  0.00    -0.170 C  
BRANCH  10  11
HETATM   11  C   UNK     1      -9.578   9.582  70.331  1.00  0.00    -0.326 C  
BRANCH  11  12
HETATM   12  C   UNK     1     -11.000  10.101  70.591  1.00  0.00    -0.357 C  
BRANCH  12  13
HETATM   13  C   UNK     1     -12.028   8.996  70.863  1.00  0.00    -0.225 C  
HETATM   14  C   UNK     1     -11.911   8.507  72.317  1.00  0.00    -0.383 C  
HETATM   15  N   UNK     1     -13.418   9.475  70.632  1.00  0.00    -0.523 NA 
HETATM   16  O   UNK     1     -11.061   7.741  72.738  1.00  0.00    -0.342 OA 
HETATM   17  O   UNK     1     -12.865   9.080  73.101  1.00  0.00    -0.108 OA 
HETATM   18  H1  UNK     1     -14.101   8.740  70.813  1.00  0.00     0.000 HD 
HETATM   19  H2  UNK     1     -13.528   9.865  69.696  1.00  0.00     0.000 HD 
ENDBRANCH  12  13
ENDBRANCH  11  12
ENDBRANCH  10  11
ENDBRANCH   5  10
TORSDOF 4
ENDMDL
MODEL      262
REMARK 921   NORMALIZED FREE ENERGY PREDICTED BY IDOCK:   -2.53 KCAL/MOL
REMARK 922        TOTAL FREE ENERGY PREDICTED BY IDOCK:   -3.56 KCAL/MOL
REMARK 923 INTER-LIGAND FREE ENERGY PREDICTED BY IDOCK:   -3.38 KCAL/MOL
REMARK 924 INTRA-LIGAND FREE ENERGY PREDICTED BY IDOCK:   -0.19 KCAL/MOL
REMARK 927      BINDING AFFINITY PREDICTED BY RF-SCORE:    0.00 PKD
ROOT
HETATM    1  C   UNK     1      -6.249  15.845  67.547  1.00  0.00    -0.158 C  
HETATM    2  N   UNK     1      -6.539  14.461  67.250  1.00  0.00    -0.379 NA 
HETATM    3  H   UNK     1      -5.754  13.824  67.118  1.00  0.00     0.000 HD 
HETATM    4  C   UNK     1      -7.794  13.960  67.138  1.00  0.00    -0.012 C  
HETATM    5  N   UNK     1      -7.770  12.604  67.055  1.00  0.00    -0.376 NA 
HETATM    6  N   UNK     1      -8.884  14.639  67.098  1.00  0.00    -0.209 NA 
HETATM    7  H   UNK     1      -6.906  12.093  67.236  1.00  0.00     0.000 HD 
HETATM    8  H2  UNK     1      -8.797  15.654  67.157  1.00  0.00     0.000 HD 
HETATM    9  H1  UNK     1      -9.828  14.263  67.014  1.00  0.00     0.000 HD 
ENDROOT
BRANCH   5  10
HETATM   10  C   UNK     1      -8.990  11.886  66.703  1.00  0.00    -0.198 C  
BRANCH  10  11
HETATM   11  C   UNK     1      -8.926  10.463  67.252  1.00  0.00    -0.142 C  
BRANCH  11  12
HETATM   12  C   UNK     1      -9.327  10.411  68.734  1.00  0.00    -0.175 C  
BRANCH  12  13
HETATM   13  C   UNK     1     -10.703   9.780  68.987  1.00  0.00    -0.217 C  
HETATM   14  C   UNK     1     -10.853   9.409  70.472  1.00  0.00    -0.277 C  
HETATM   15  N   UNK     1     -11.805  10.709  68.613  1.00  0.00    -0.708 NA 
HETATM   16  O   UNK     1     -10.368   8.427  71.006  1.00  0.00    -0.190 OA 
HETATM   17  O   UNK     1     -11.572  10.353  71.138  1.00  0.00    -0.333 OA 
HETATM   18  H1  UNK     1     -12.719  10.289  68.781  1.00  0.00     0.000 HD 
HETATM   19  H2  UNK     1     -11.712  11.029  67.649  1.00  0.00     0.000 HD 
ENDBRANCH  12  13
ENDBRANCH  11  12
ENDBRANCH  10  11
ENDBRANCH   5  10
TORSDOF 4
ENDMDL
MODEL      263
REMARK 921   NORMALIZED FREE ENERGY PREDICTED BY IDOCK:   -2.53 KCAL/MOL
REMARK 922        TOTAL FREE ENERGY PREDICTED BY IDOCK:   -3.56 KCAL/MOL
REMARK 923 INTER-LIGAND FREE ENERGY PREDICTED BY IDOCK:   -3.94 KCAL/MOL
REMARK 924 INTRA-LIGAND FREE ENERGY PREDICTED BY IDOCK:    0.38 KCAL/MOL
REMARK 927      BINDING AFFINITY PREDICTED BY RF-SCORE:    0.00 PKD
ROOT
HETATM    1  C   UNK     1      -8.245  16.822  68.876  1.00  0.00    -0.224 C  
HETATM    2  N   UNK     1      -9.488  16.299  68.358  1.00  0.00    -0.211 NA 
HETATM    3  H   UNK     1      -9.836  16.675  67.476  1.00  0.00     0.000 HD 
HETATM    4  C   UNK     1     -10.219  15.337  68.975  1.00  0.00    -0.239 C  
HETATM    5  N   UNK     1     -11.224  14.901  68.172  1.00  0.00    -0.286 NA 
HETATM    6  N   UNK     1     -10.029  14.882  70.161  1.00  0.00    -0.452 NA 
HETATM    7  H   UNK     1     -11.255  15.177  67.190  1.00  0.00     0.000 HD 
HETATM    8  H2  UNK     1      -9.254  15.282  70.690  1.00  0.00     0.000 HD 
HETATM    9  H1  UNK     1     -10.578  14.159  70.626  1.00  0.00     0.000 HD 
ENDROOT
BRANCH   5  10
HETATM   10  C   UNK     1     -12.259  14.034  68.726  1.00  0.00    -0.202 C  
BRANCH  10  11
HETATM   11  C   UNK     1     -11.631  12.735  69.222  1.00  0.00    -0.372 C  
BRANCH  11  12
HETATM   12  C   UNK     1     -12.641  11.881  70.003  1.00  0.00     0.026 C  
BRANCH  12  13
HETATM   13  C   UNK     1     -12.515  12.003  71.527  1.00  0.00    -0.059 C  
HETATM   14  C   UNK     1     -13.057  13.363  71.998  1.00  0.00    -0.377 C  
HETATM   15  N   UNK     1     -13.266  10.923  72.224  1.00  0.00    -0.556 NA 
HETATM   16  O   UNK     1     -12.462  14.424  71.922  1.00  0.00    -0.332 OA 
HETATM   17  O   UNK     1     -14.323  13.241  72.481  1.00  0.00    -0.662 OA 
HETATM   18  H1  UNK     1     -13.182  11.004  73.237  1.00  0.00     0.000 HD 
HETATM   19  H2  UNK     1     -12.980  10.000  71.898  1.00  0.00     0.000 HD 
ENDBRANCH  12  13
ENDBRANCH  11  12
ENDBRANCH  10  11
ENDBRANCH   5  10
TORSDOF 4
ENDMDL
MODEL      264
REMARK 921   NORMALIZED FREE ENERGY PREDICTED BY IDOCK:   -2.52 KCAL/MOL
REMARK 922        TOTAL FREE ENERGY PREDICTED BY IDOCK:   -3.55 KCAL/MOL
REMARK 923 INTER-LIGAND FREE ENERGY PREDICTED BY IDOCK:   -3.13 KCAL/MOL
REMARK 924 INTRA-LIGAND FREE ENERGY PREDICTED BY IDOCK:   -0.42 KCAL/MOL
REMARK 927      BINDING AFFINITY PREDICTED BY RF-SCORE:    0.00 PKD
ROOT
HETATM    1  C   UNK     1     -11.679  15.226  64.560  1.00  0.00    -0.305 C  
HETATM    2  N   UNK     1     -11.548  13.929  65.184  1.00  0.00    -0.323 NA 
HETATM    3  H   UNK     1     -12.040  13.767  66.062  1.00  0.00     0.000 HD 
HETATM    4  C   UNK     1     -10.808  12.915  64.670  1.00  0.00    -0.342 C  
HETATM    5  N   UNK     1     -11.025  11.761  65.354  1.00  0.00    -0.305 NA 
HETATM    6  N   UNK     1      -9.991  12.994  63.683  1.00  0.00    -0.658 NA 
HETATM    7  H   UNK     1     -11.783  11.700  66.033  1.00  0.00     0.000 HD 
HETATM    8  H2  UNK     1      -9.888  13.909  63.242  1.00  0.00     0.000 HD 
HETATM    9  H1  UNK     1      -9.434  12.232  63.296  1.00  0.00     0.000 HD 
ENDROOT
BRANCH   5  10
HETATM   10  C   UNK     1     -10.162  10.610  65.108  1.00  0.00    -0.299 C  
BRANCH  10  11
HETATM   11  C   UNK     1      -9.517  10.162  66.416  1.00  0.00    -0.223 C  
BRANCH  11  12
HETATM   12  C   UNK     1      -8.276  11.004  66.752  1.00  0.00    -0.149 C  
BRANCH  12  13
HETATM   13  C   UNK     1      -8.531  12.104  67.790  1.00  0.00    -0.160 C  
HETATM   14  C   UNK     1      -7.414  12.106  68.848  1.00  0.00    -0.027 C  
HETATM   15  N   UNK     1      -8.588  13.450  67.155  1.00  0.00    -0.265 NA 
HETATM   16  O   UNK     1      -7.325  11.327  69.781  1.00  0.00     0.001 OA 
HETATM   17  O   UNK     1      -6.497  13.076  68.585  1.00  0.00    -0.075 OA 
HETATM   18  H1  UNK     1      -8.757  14.181  67.845  1.00  0.00     0.000 HD 
HETATM   19  H2  UNK     1      -9.277  13.478  66.403  1.00  0.00     0.000 HD 
ENDBRANCH  12  13
ENDBRANCH  11  12
ENDBRANCH  10  11
ENDBRANCH   5  10
TORSDOF 4
ENDMDL
MODEL      265
REMARK 921   NORMALIZED FREE ENERGY PREDICTED BY IDOCK:   -2.52 KCAL/MOL
REMARK 922        TOTAL FREE ENERGY PREDICTED BY IDOCK:   -3.54 KCAL/MOL
REMARK 923 INTER-LIGAND FREE ENERGY PREDICTED BY IDOCK:   -3.06 KCAL/MOL
REMARK 924 INTRA-LIGAND FREE ENERGY PREDICTED BY IDOCK:   -0.48 KCAL/MOL
REMARK 927      BINDING AFFINITY PREDICTED BY RF-SCORE:    0.00 PKD
ROOT
HETATM    1  C   UNK     1     -12.232  13.371  63.687  1.00  0.00    -0.414 C  
HETATM    2  N   UNK     1     -12.107  12.721  64.972  1.00  0.00    -0.415 NA 
HETATM    3  H   UNK     1     -12.538  11.804  65.089  1.00  0.00     0.000 HD 
HETATM    4  C   UNK     1     -11.451  13.258  66.030  1.00  0.00    -0.330 C  
HETATM    5  N   UNK     1     -11.322  12.351  67.033  1.00  0.00    -0.306 NA 
HETATM    6  N   UNK     1     -11.007  14.460  66.119  1.00  0.00    -0.315 NA 
HETATM    7  H   UNK     1     -11.553  11.371  66.873  1.00  0.00     0.000 HD 
HETATM    8  H2  UNK     1     -11.164  15.070  65.316  1.00  0.00     0.000 HD 
HETATM    9  H1  UNK     1     -10.514  14.865  66.914  1.00  0.00     0.000 HD 
ENDROOT
BRANCH   5  10
HETATM   10  C   UNK     1     -10.849  12.792  68.341  1.00  0.00    -0.249 C  
BRANCH  10  11
HETATM   11  C   UNK     1      -9.431  12.277  68.576  1.00  0.00    -0.115 C  
BRANCH  11  12
HETATM   12  C   UNK     1      -8.378  13.259  68.041  1.00  0.00    -0.162 C  
BRANCH  12  13
HETATM   13  C   UNK     1      -8.457  14.659  68.661  1.00  0.00    -0.164 C  
HETATM   14  C   UNK     1      -7.097  15.052  69.263  1.00  0.00    -0.170 C  
HETATM   15  N   UNK     1      -8.844  15.682  67.651  1.00  0.00    -0.174 NA 
HETATM   16  O   UNK     1      -6.662  14.665  70.334  1.00  0.00    -0.146 OA 
HETATM   17  O   UNK     1      -6.408  15.866  68.418  1.00  0.00    -0.104 OA 
HETATM   18  H1  UNK     1      -8.897  16.613  68.064  1.00  0.00     0.000 HD 
HETATM   19  H2  UNK     1      -9.714  15.431  67.181  1.00  0.00     0.000 HD 
ENDBRANCH  12  13
ENDBRANCH  11  12
ENDBRANCH  10  11
ENDBRANCH   5  10
TORSDOF 4
ENDMDL
MODEL      266
REMARK 921   NORMALIZED FREE ENERGY PREDICTED BY IDOCK:   -2.52 KCAL/MOL
REMARK 922        TOTAL FREE ENERGY PREDICTED BY IDOCK:   -3.54 KCAL/MOL
REMARK 923 INTER-LIGAND FREE ENERGY PREDICTED BY IDOCK:   -2.96 KCAL/MOL
REMARK 924 INTRA-LIGAND FREE ENERGY PREDICTED BY IDOCK:   -0.58 KCAL/MOL
REMARK 927      BINDING AFFINITY PREDICTED BY RF-SCORE:    0.00 PKD
ROOT
HETATM    1  C   UNK     1      -5.748  12.793  70.734  1.00  0.00    -0.131 C  
HETATM    2  N   UNK     1      -5.960  11.365  70.804  1.00  0.00    -0.379 NA 
HETATM    3  H   UNK     1      -5.366  10.821  71.429  1.00  0.00     0.000 HD 
HETATM    4  C   UNK     1      -6.905  10.707  70.087  1.00  0.00    -0.113 C  
HETATM    5  N   UNK     1      -7.012   9.416  70.497  1.00  0.00    -0.092 NA 
HETATM    6  N   UNK     1      -7.613  11.194  69.133  1.00  0.00    -0.242 NA 
HETATM    7  H   UNK     1      -6.542   9.105  71.347  1.00  0.00     0.000 HD 
HETATM    8  H2  UNK     1      -7.450  12.172  68.891  1.00  0.00     0.000 HD 
HETATM    9  H1  UNK     1      -8.324  10.699  68.594  1.00  0.00     0.000 HD 
ENDROOT
BRANCH   5  10
HETATM   10  C   UNK     1      -7.806   8.478  69.709  1.00  0.00    -0.094 C  
BRANCH  10  11
HETATM   11  C   UNK     1      -9.037   8.053  70.504  1.00  0.00    -0.153 C  
BRANCH  11  12
HETATM   12  C   UNK     1     -10.331   8.585  69.869  1.00  0.00    -0.210 C  
BRANCH  12  13
HETATM   13  C   UNK     1     -10.771   9.954  70.402  1.00  0.00    -0.318 C  
HETATM   14  C   UNK     1     -11.151  10.882  69.235  1.00  0.00    -0.248 C  
HETATM   15  N   UNK     1     -11.939   9.833  71.316  1.00  0.00    -0.357 NA 
HETATM   16  O   UNK     1     -10.364  11.477  68.522  1.00  0.00    -0.197 OA 
HETATM   17  O   UNK     1     -12.501  10.924  69.068  1.00  0.00    -0.425 OA 
HETATM   18  H1  UNK     1     -12.231  10.744  71.671  1.00  0.00     0.000 HD 
HETATM   19  H2  UNK     1     -11.753   9.179  72.076  1.00  0.00     0.000 HD 
ENDBRANCH  12  13
ENDBRANCH  11  12
ENDBRANCH  10  11
ENDBRANCH   5  10
TORSDOF 4
ENDMDL
MODEL      267
REMARK 921   NORMALIZED FREE ENERGY PREDICTED BY IDOCK:   -2.51 KCAL/MOL
REMARK 922        TOTAL FREE ENERGY PREDICTED BY IDOCK:   -3.54 KCAL/MOL
REMARK 923 INTER-LIGAND FREE ENERGY PREDICTED BY IDOCK:   -3.40 KCAL/MOL
REMARK 924 INTRA-LIGAND FREE ENERGY PREDICTED BY IDOCK:   -0.15 KCAL/MOL
REMARK 927      BINDING AFFINITY PREDICTED BY RF-SCORE:    0.00 PKD
ROOT
HETATM    1  C   UNK     1      -8.374   4.826  64.973  1.00  0.00    -0.132 C  
HETATM    2  N   UNK     1      -9.200   5.888  65.501  1.00  0.00    -0.360 NA 
HETATM    3  H   UNK     1     -10.089   5.635  65.933  1.00  0.00     0.000 HD 
HETATM    4  C   UNK     1      -8.863   7.201  65.456  1.00  0.00     0.046 C  
HETATM    5  N   UNK     1      -9.721   7.948  66.197  1.00  0.00    -0.444 NA 
HETATM    6  N   UNK     1      -7.882   7.712  64.803  1.00  0.00    -0.123 NA 
HETATM    7  H   UNK     1     -10.395   7.496  66.816  1.00  0.00     0.000 HD 
HETATM    8  H2  UNK     1      -7.301   7.068  64.266  1.00  0.00     0.000 HD 
HETATM    9  H1  UNK     1      -7.628   8.699  64.768  1.00  0.00     0.000 HD 
ENDROOT
BRANCH   5  10
HETATM   10  C   UNK     1      -9.672   9.403  66.101  1.00  0.00    -0.265 C  
BRANCH  10  11
HETATM   11  C   UNK     1     -10.539  10.021  67.193  1.00  0.00    -0.296 C  
BRANCH  11  12
HETATM   12  C   UNK     1     -10.307  11.535  67.311  1.00  0.00    -0.236 C  
BRANCH  12  13
HETATM   13  C   UNK     1     -11.593  12.351  67.499  1.00  0.00    -0.365 C  
HETATM   14  C   UNK     1     -11.729  12.797  68.964  1.00  0.00    -0.323 C  
HETATM   15  N   UNK     1     -11.603  13.559  66.629  1.00  0.00    -0.346 NA 
HETATM   16  O   UNK     1     -12.110  12.094  69.883  1.00  0.00    -0.298 OA 
HETATM   17  O   UNK     1     -11.325  14.087  69.120  1.00  0.00    -0.254 OA 
HETATM   18  H1  UNK     1     -12.458  14.102  66.755  1.00  0.00     0.000 HD 
HETATM   19  H2  UNK     1     -11.455  13.316  65.650  1.00  0.00     0.000 HD 
ENDBRANCH  12  13
ENDBRANCH  11  12
ENDBRANCH  10  11
ENDBRANCH   5  10
TORSDOF 4
ENDMDL
MODEL      268
REMARK 921   NORMALIZED FREE ENERGY PREDICTED BY IDOCK:   -2.49 KCAL/MOL
REMARK 922        TOTAL FREE ENERGY PREDICTED BY IDOCK:   -3.51 KCAL/MOL
REMARK 923 INTER-LIGAND FREE ENERGY PREDICTED BY IDOCK:   -3.00 KCAL/MOL
REMARK 924 INTRA-LIGAND FREE ENERGY PREDICTED BY IDOCK:   -0.51 KCAL/MOL
REMARK 927      BINDING AFFINITY PREDICTED BY RF-SCORE:    0.00 PKD
ROOT
HETATM    1  C   UNK     1      -8.985   4.477  70.919  1.00  0.00    -0.119 C  
HETATM    2  N   UNK     1      -8.684   5.456  69.899  1.00  0.00    -0.119 NA 
HETATM    3  H   UNK     1      -8.802   5.184  68.923  1.00  0.00     0.000 HD 
HETATM    4  C   UNK     1      -8.255   6.715  70.164  1.00  0.00    -0.133 C  
HETATM    5  N   UNK     1      -8.244   7.471  69.036  1.00  0.00    -0.126 NA 
HETATM    6  N   UNK     1      -7.887   7.167  71.308  1.00  0.00    -0.097 NA 
HETATM    7  H   UNK     1      -8.679   7.126  68.180  1.00  0.00     0.000 HD 
HETATM    8  H2  UNK     1      -7.920   6.517  72.094  1.00  0.00     0.000 HD 
HETATM    9  H1  UNK     1      -7.564   8.114  71.508  1.00  0.00     0.000 HD 
ENDROOT
BRANCH   5  10
HETATM   10  C   UNK     1      -7.605   8.782  69.059  1.00  0.00    -0.090 C  
BRANCH  10  11
HETATM   11  C   UNK     1      -8.654   9.870  68.846  1.00  0.00    -0.135 C  
BRANCH  11  12
HETATM   12  C   UNK     1      -9.553  10.037  70.079  1.00  0.00    -0.205 C  
BRANCH  12  13
HETATM   13  C   UNK     1     -11.007   9.600  69.856  1.00  0.00    -0.252 C  
HETATM   14  C   UNK     1     -11.921  10.831  69.744  1.00  0.00    -0.325 C  
HETATM   15  N   UNK     1     -11.146   8.788  68.616  1.00  0.00    -0.422 NA 
HETATM   16  O   UNK     1     -12.327  11.496  70.682  1.00  0.00    -0.361 OA 
HETATM   17  O   UNK     1     -12.194  11.118  68.442  1.00  0.00    -0.610 OA 
HETATM   18  H1  UNK     1     -12.112   8.497  68.468  1.00  0.00     0.000 HD 
HETATM   19  H2  UNK     1     -10.512   7.989  68.619  1.00  0.00     0.000 HD 
ENDBRANCH  12  13
ENDBRANCH  11  12
ENDBRANCH  10  11
ENDBRANCH   5  10
TORSDOF 4
ENDMDL
MODEL      269
REMARK 921   NORMALIZED FREE ENERGY PREDICTED BY IDOCK:   -2.48 KCAL/MOL
REMARK 922        TOTAL FREE ENERGY PREDICTED BY IDOCK:   -3.50 KCAL/MOL
REMARK 923 INTER-LIGAND FREE ENERGY PREDICTED BY IDOCK:   -3.36 KCAL/MOL
REMARK 924 INTRA-LIGAND FREE ENERGY PREDICTED BY IDOCK:   -0.14 KCAL/MOL
REMARK 927      BINDING AFFINITY PREDICTED BY RF-SCORE:    0.00 PKD
ROOT
HETATM    1  C   UNK     1      -6.557  19.130  66.719  1.00  0.00    -0.189 C  
HETATM    2  N   UNK     1      -7.861  18.523  66.581  1.00  0.00    -0.243 NA 
HETATM    3  H   UNK     1      -8.674  19.137  66.533  1.00  0.00     0.000 HD 
HETATM    4  C   UNK     1      -8.068  17.184  66.513  1.00  0.00    -0.283 C  
HETATM    5  N   UNK     1      -9.357  16.908  66.188  1.00  0.00    -0.424 NA 
HETATM    6  N   UNK     1      -7.195  16.268  66.733  1.00  0.00    -0.211 NA 
HETATM    7  H   UNK     1      -9.981  17.654  65.879  1.00  0.00     0.000 HD 
HETATM    8  H2  UNK     1      -6.255  16.577  66.983  1.00  0.00     0.000 HD 
HETATM    9  H1  UNK     1      -7.349  15.261  66.682  1.00  0.00     0.000 HD 
ENDROOT
BRANCH   5  10
HETATM   10  C   UNK     1      -9.842  15.535  66.284  1.00  0.00    -0.294 C  
BRANCH  10  11
HETATM   11  C   UNK     1     -10.827  15.417  67.443  1.00  0.00    -0.309 C  
BRANCH  11  12
HETATM   12  C   UNK     1     -11.230  13.957  67.696  1.00  0.00    -0.316 C  
BRANCH  12  13
HETATM   13  C   UNK     1     -10.315  13.219  68.683  1.00  0.00    -0.196 C  
HETATM   14  C   UNK     1      -9.725  11.962  68.021  1.00  0.00    -0.191 C  
HETATM   15  N   UNK     1      -9.196  14.088  69.141  1.00  0.00    -0.380 NA 
HETATM   16  O   UNK     1     -10.311  10.906  67.865  1.00  0.00    -0.175 OA 
HETATM   17  O   UNK     1      -8.456  12.193  67.586  1.00  0.00    -0.145 OA 
HETATM   18  H1  UNK     1      -8.588  13.597  69.797  1.00  0.00     0.000 HD 
HETATM   19  H2  UNK     1      -9.540  14.964  69.534  1.00  0.00     0.000 HD 
ENDBRANCH  12  13
ENDBRANCH  11  12
ENDBRANCH  10  11
ENDBRANCH   5  10
TORSDOF 4
ENDMDL
MODEL      270
REMARK 921   NORMALIZED FREE ENERGY PREDICTED BY IDOCK:   -2.45 KCAL/MOL
REMARK 922        TOTAL FREE ENERGY PREDICTED BY IDOCK:   -3.46 KCAL/MOL
REMARK 923 INTER-LIGAND FREE ENERGY PREDICTED BY IDOCK:   -3.59 KCAL/MOL
REMARK 924 INTRA-LIGAND FREE ENERGY PREDICTED BY IDOCK:    0.14 KCAL/MOL
REMARK 927      BINDING AFFINITY PREDICTED BY RF-SCORE:    0.00 PKD
ROOT
HETATM    1  C   UNK     1      -8.544  16.755  68.127  1.00  0.00    -0.218 C  
HETATM    2  N   UNK     1      -9.811  16.148  67.784  1.00  0.00    -0.230 NA 
HETATM    3  H   UNK     1     -10.661  16.565  68.163  1.00  0.00     0.000 HD 
HETATM    4  C   UNK     1      -9.934  15.057  66.988  1.00  0.00    -0.242 C  
HETATM    5  N   UNK     1     -11.236  14.829  66.676  1.00  0.00    -0.341 NA 
HETATM    6  N   UNK     1      -8.978  14.306  66.573  1.00  0.00    -0.450 NA 
HETATM    7  H   UNK     1     -11.949  15.524  66.900  1.00  0.00     0.000 HD 
HETATM    8  H2  UNK     1      -8.035  14.554  66.872  1.00  0.00     0.000 HD 
HETATM    9  H1  UNK     1      -9.070  13.485  65.975  1.00  0.00     0.000 HD 
ENDROOT
BRANCH   5  10
HETATM   10  C   UNK     1     -11.607  13.580  66.020  1.00  0.00    -0.338 C  
BRANCH  10  11
HETATM   11  C   UNK     1     -11.920  12.518  67.071  1.00  0.00    -0.295 C  
BRANCH  11  12
HETATM   12  C   UNK     1     -10.990  11.302  66.940  1.00  0.00    -0.348 C  
BRANCH  12  13
HETATM   13  C   UNK     1     -10.740  10.563  68.260  1.00  0.00    -0.229 C  
HETATM   14  C   UNK     1     -11.754  11.017  69.324  1.00  0.00    -0.326 C  
HETATM   15  N   UNK     1     -10.857   9.088  68.090  1.00  0.00    -0.463 NA 
HETATM   16  O   UNK     1     -11.691  12.055  69.960  1.00  0.00    -0.312 OA 
HETATM   17  O   UNK     1     -12.772  10.122  69.441  1.00  0.00     0.201 OA 
HETATM   18  H1  UNK     1     -10.691   8.597  68.968  1.00  0.00     0.000 HD 
HETATM   19  H2  UNK     1     -10.244   8.749  67.349  1.00  0.00     0.000 HD 
ENDBRANCH  12  13
ENDBRANCH  11  12
ENDBRANCH  10  11
ENDBRANCH   5  10
TORSDOF 4
ENDMDL
MODEL      271
REMARK 921   NORMALIZED FREE ENERGY PREDICTED BY IDOCK:   -2.43 KCAL/MOL
REMARK 922        TOTAL FREE ENERGY PREDICTED BY IDOCK:   -3.44 KCAL/MOL
REMARK 923 INTER-LIGAND FREE ENERGY PREDICTED BY IDOCK:   -3.58 KCAL/MOL
REMARK 924 INTRA-LIGAND FREE ENERGY PREDICTED BY IDOCK:    0.14 KCAL/MOL
REMARK 927      BINDING AFFINITY PREDICTED BY RF-SCORE:    0.00 PKD
ROOT
HETATM    1  C   UNK     1     -14.407   8.324  71.945  1.00  0.00    -0.476 C  
HETATM    2  N   UNK     1     -13.477   7.793  70.974  1.00  0.00    -0.573 NA 
HETATM    3  H   UNK     1     -13.551   8.118  70.011  1.00  0.00     0.000 HD 
HETATM    4  C   UNK     1     -12.513   6.886  71.271  1.00  0.00    -0.361 C  
HETATM    5  N   UNK     1     -11.667   6.718  70.222  1.00  0.00    -0.530 NA 
HETATM    6  N   UNK     1     -12.388   6.242  72.375  1.00  0.00    -0.550 NA 
HETATM    7  H   UNK     1     -11.708   7.348  69.421  1.00  0.00     0.000 HD 
HETATM    8  H2  UNK     1     -13.082   6.430  73.099  1.00  0.00     0.000 HD 
HETATM    9  H1  UNK     1     -11.663   5.560  72.598  1.00  0.00     0.000 HD 
ENDROOT
BRANCH   5  10
HETATM   10  C   UNK     1     -10.698   5.627  70.251  1.00  0.00    -0.294 C  
BRANCH  10  11
HETATM   11  C   UNK     1     -10.070   5.459  68.870  1.00  0.00    -0.265 C  
BRANCH  11  12
HETATM   12  C   UNK     1      -8.653   4.874  68.960  1.00  0.00    -0.093 C  
BRANCH  12  13
HETATM   13  C   UNK     1      -7.603   5.654  68.158  1.00  0.00    -0.081 C  
HETATM   14  C   UNK     1      -8.056   7.111  67.965  1.00  0.00    -0.120 C  
HETATM   15  N   UNK     1      -6.281   5.652  68.844  1.00  0.00    -0.028 NA 
HETATM   16  O   UNK     1      -8.878   7.492  67.150  1.00  0.00    -0.122 OA 
HETATM   17  O   UNK     1      -7.446   7.933  68.862  1.00  0.00    -0.090 OA 
HETATM   18  H1  UNK     1      -5.584   6.170  68.310  1.00  0.00     0.000 HD 
HETATM   19  H2  UNK     1      -5.968   4.703  69.047  1.00  0.00     0.000 HD 
ENDBRANCH  12  13
ENDBRANCH  11  12
ENDBRANCH  10  11
ENDBRANCH   5  10
TORSDOF 4
ENDMDL
MODEL      272
REMARK 921   NORMALIZED FREE ENERGY PREDICTED BY IDOCK:   -2.42 KCAL/MOL
REMARK 922        TOTAL FREE ENERGY PREDICTED BY IDOCK:   -3.42 KCAL/MOL
REMARK 923 INTER-LIGAND FREE ENERGY PREDICTED BY IDOCK:   -3.83 KCAL/MOL
REMARK 924 INTRA-LIGAND FREE ENERGY PREDICTED BY IDOCK:    0.41 KCAL/MOL
REMARK 927      BINDING AFFINITY PREDICTED BY RF-SCORE:    0.00 PKD
ROOT
HETATM    1  C   UNK     1     -10.839  11.872  63.158  1.00  0.00    -0.223 C  
HETATM    2  N   UNK     1     -10.597  11.375  64.494  1.00  0.00    -0.311 NA 
HETATM    3  H   UNK     1      -9.822  10.725  64.631  1.00  0.00     0.000 HD 
HETATM    4  C   UNK     1     -11.339  11.721  65.574  1.00  0.00    -0.223 C  
HETATM    5  N   UNK     1     -10.769  11.267  66.720  1.00  0.00    -0.264 NA 
HETATM    6  N   UNK     1     -12.443  12.377  65.560  1.00  0.00    -0.591 NA 
HETATM    7  H   UNK     1      -9.825  10.881  66.708  1.00  0.00     0.000 HD 
HETATM    8  H2  UNK     1     -12.796  12.665  64.647  1.00  0.00     0.000 HD 
HETATM    9  H1  UNK     1     -13.002  12.638  66.373  1.00  0.00     0.000 HD 
ENDROOT
BRANCH   5  10
HETATM   10  C   UNK     1     -11.519  11.336  67.970  1.00  0.00    -0.298 C  
BRANCH  10  11
HETATM   11  C   UNK     1     -12.014  12.762  68.196  1.00  0.00    -0.295 C  
BRANCH  11  12
HETATM   12  C   UNK     1     -10.848  13.735  68.429  1.00  0.00    -0.268 C  
BRANCH  12  13
HETATM   13  C   UNK     1     -11.057  15.121  67.806  1.00  0.00    -0.313 C  
HETATM   14  C   UNK     1     -10.192  16.165  68.532  1.00  0.00    -0.241 C  
HETATM   15  N   UNK     1     -10.702  15.128  66.361  1.00  0.00    -0.312 NA 
HETATM   16  O   UNK     1     -10.453  16.673  69.608  1.00  0.00    -0.296 OA 
HETATM   17  O   UNK     1      -9.055  16.427  67.830  1.00  0.00    -0.198 OA 
HETATM   18  H1  UNK     1     -10.840  16.049  65.947  1.00  0.00     0.000 HD 
HETATM   19  H2  UNK     1     -11.209  14.407  65.848  1.00  0.00     0.000 HD 
ENDBRANCH  12  13
ENDBRANCH  11  12
ENDBRANCH  10  11
ENDBRANCH   5  10
TORSDOF 4
ENDMDL
MODEL      273
REMARK 921   NORMALIZED FREE ENERGY PREDICTED BY IDOCK:   -2.41 KCAL/MOL
REMARK 922        TOTAL FREE ENERGY PREDICTED BY IDOCK:   -3.41 KCAL/MOL
REMARK 923 INTER-LIGAND FREE ENERGY PREDICTED BY IDOCK:   -2.91 KCAL/MOL
REMARK 924 INTRA-LIGAND FREE ENERGY PREDICTED BY IDOCK:   -0.51 KCAL/MOL
REMARK 927      BINDING AFFINITY PREDICTED BY RF-SCORE:    0.00 PKD
ROOT
HETATM    1  C   UNK     1      -9.292   9.336  65.998  1.00  0.00    -0.223 C  
HETATM    2  N   UNK     1      -9.283   8.145  66.816  1.00  0.00    -0.154 NA 
HETATM    3  H   UNK     1      -9.959   7.412  66.604  1.00  0.00     0.000 HD 
HETATM    4  C   UNK     1      -8.428   7.947  67.851  1.00  0.00    -0.126 C  
HETATM    5  N   UNK     1      -8.510   6.671  68.309  1.00  0.00    -0.120 NA 
HETATM    6  N   UNK     1      -7.642   8.822  68.366  1.00  0.00    -0.094 NA 
HETATM    7  H   UNK     1      -9.033   5.968  67.786  1.00  0.00     0.000 HD 
HETATM    8  H2  UNK     1      -7.662   9.757  67.959  1.00  0.00     0.000 HD 
HETATM    9  H1  UNK     1      -6.999   8.673  69.144  1.00  0.00     0.000 HD 
ENDROOT
BRANCH   5  10
HETATM   10  C   UNK     1      -7.843   6.314  69.557  1.00  0.00    -0.101 C  
BRANCH  10  11
HETATM   11  C   UNK     1      -8.883   6.083  70.649  1.00  0.00    -0.142 C  
BRANCH  11  12
HETATM   12  C   UNK     1     -10.169   5.461  70.084  1.00  0.00    -0.342 C  
BRANCH  12  13
HETATM   13  C   UNK     1     -11.416   6.336  70.264  1.00  0.00    -0.358 C  
HETATM   14  C   UNK     1     -11.629   6.658  71.753  1.00  0.00    -0.304 C  
HETATM   15  N   UNK     1     -11.299   7.614  69.510  1.00  0.00    -0.445 NA 
HETATM   16  O   UNK     1     -12.111   5.901  72.576  1.00  0.00    -0.241 OA 
HETATM   17  O   UNK     1     -11.165   7.902  72.051  1.00  0.00    -0.256 OA 
HETATM   18  H1  UNK     1     -12.129   8.195  69.630  1.00  0.00     0.000 HD 
HETATM   19  H2  UNK     1     -11.097   7.449  68.524  1.00  0.00     0.000 HD 
ENDBRANCH  12  13
ENDBRANCH  11  12
ENDBRANCH  10  11
ENDBRANCH   5  10
TORSDOF 4
ENDMDL
MODEL      274
REMARK 921   NORMALIZED FREE ENERGY PREDICTED BY IDOCK:   -2.41 KCAL/MOL
REMARK 922        TOTAL FREE ENERGY PREDICTED BY IDOCK:   -3.41 KCAL/MOL
REMARK 923 INTER-LIGAND FREE ENERGY PREDICTED BY IDOCK:   -3.21 KCAL/MOL
REMARK 924 INTRA-LIGAND FREE ENERGY PREDICTED BY IDOCK:   -0.20 KCAL/MOL
REMARK 927      BINDING AFFINITY PREDICTED BY RF-SCORE:    0.00 PKD
ROOT
HETATM    1  C   UNK     1     -14.258   8.294  71.859  1.00  0.00    -0.454 C  
HETATM    2  N   UNK     1     -13.284   7.835  70.895  1.00  0.00    -0.536 NA 
HETATM    3  H   UNK     1     -13.301   8.246  69.962  1.00  0.00     0.000 HD 
HETATM    4  C   UNK     1     -12.348   6.890  71.160  1.00  0.00    -0.370 C  
HETATM    5  N   UNK     1     -11.449   6.800  70.146  1.00  0.00    -0.441 NA 
HETATM    6  N   UNK     1     -12.291   6.148  72.207  1.00  0.00    -0.496 NA 
HETATM    7  H   UNK     1     -11.439   7.500  69.403  1.00  0.00     0.000 HD 
HETATM    8  H2  UNK     1     -13.020   6.282  72.907  1.00  0.00     0.000 HD 
HETATM    9  H1  UNK     1     -11.587   5.437  72.406  1.00  0.00     0.000 HD 
ENDROOT
BRANCH   5  10
HETATM   10  C   UNK     1     -10.496   5.695  70.128  1.00  0.00    -0.296 C  
BRANCH  10  11
HETATM   11  C   UNK     1      -9.376   5.996  69.136  1.00  0.00    -0.136 C  
BRANCH  11  12
HETATM   12  C   UNK     1      -8.728   4.709  68.607  1.00  0.00    -0.115 C  
BRANCH  12  13
HETATM   13  C   UNK     1      -8.792   3.529  69.586  1.00  0.00    -0.091 C  
HETATM   14  C   UNK     1      -8.875   2.201  68.814  1.00  0.00    -0.098 C  
HETATM   15  N   UNK     1      -7.597   3.492  70.473  1.00  0.00    -0.041 NA 
HETATM   16  O   UNK     1      -9.880   1.749  68.294  1.00  0.00    -0.091 OA 
HETATM   17  O   UNK     1      -7.655   1.602  68.745  1.00  0.00    -0.043 OA 
HETATM   18  H1  UNK     1      -7.639   2.708  71.123  1.00  0.00     0.000 HD 
HETATM   19  H2  UNK     1      -7.467   4.377  70.962  1.00  0.00     0.000 HD 
ENDBRANCH  12  13
ENDBRANCH  11  12
ENDBRANCH  10  11
ENDBRANCH   5  10
TORSDOF 4
ENDMDL
MODEL      275
REMARK 921   NORMALIZED FREE ENERGY PREDICTED BY IDOCK:   -2.41 KCAL/MOL
REMARK 922        TOTAL FREE ENERGY PREDICTED BY IDOCK:   -3.41 KCAL/MOL
REMARK 923 INTER-LIGAND FREE ENERGY PREDICTED BY IDOCK:   -2.68 KCAL/MOL
REMARK 924 INTRA-LIGAND FREE ENERGY PREDICTED BY IDOCK:   -0.73 KCAL/MOL
REMARK 927      BINDING AFFINITY PREDICTED BY RF-SCORE:    0.00 PKD
ROOT
HETATM    1  C   UNK     1     -11.052   6.186  70.968  1.00  0.00    -0.297 C  
HETATM    2  N   UNK     1     -10.600   6.430  69.617  1.00  0.00    -0.228 NA 
HETATM    3  H   UNK     1     -11.071   5.939  68.857  1.00  0.00     0.000 HD 
HETATM    4  C   UNK     1      -9.585   7.272  69.301  1.00  0.00    -0.156 C  
HETATM    5  N   UNK     1      -9.509   7.457  67.957  1.00  0.00    -0.140 NA 
HETATM    6  N   UNK     1      -8.774   7.830  70.126  1.00  0.00    -0.139 NA 
HETATM    7  H   UNK     1     -10.254   7.119  67.348  1.00  0.00     0.000 HD 
HETATM    8  H2  UNK     1      -8.906   7.618  71.115  1.00  0.00     0.000 HD 
HETATM    9  H1  UNK     1      -8.011   8.463  69.889  1.00  0.00     0.000 HD 
ENDROOT
BRANCH   5  10
HETATM   10  C   UNK     1      -8.352   8.145  67.393  1.00  0.00    -0.122 C  
BRANCH  10  11
HETATM   11  C   UNK     1      -8.817   9.349  66.577  1.00  0.00    -0.155 C  
BRANCH  11  12
HETATM   12  C   UNK     1      -8.330  10.670  67.192  1.00  0.00    -0.125 C  
BRANCH  12  13
HETATM   13  C   UNK     1      -9.356  11.346  68.110  1.00  0.00    -0.181 C  
HETATM   14  C   UNK     1     -10.784  11.061  67.612  1.00  0.00    -0.238 C  
HETATM   15  N   UNK     1      -9.235  10.863  69.513  1.00  0.00    -0.385 NA 
HETATM   16  O   UNK     1     -11.332  11.624  66.681  1.00  0.00    -0.324 OA 
HETATM   17  O   UNK     1     -11.356  10.054  68.327  1.00  0.00    -0.192 OA 
HETATM   18  H1  UNK     1      -9.917  11.313  70.123  1.00  0.00     0.000 HD 
HETATM   19  H2  UNK     1      -8.285  10.977  69.866  1.00  0.00     0.000 HD 
ENDBRANCH  12  13
ENDBRANCH  11  12
ENDBRANCH  10  11
ENDBRANCH   5  10
TORSDOF 4
ENDMDL
MODEL      276
REMARK 921   NORMALIZED FREE ENERGY PREDICTED BY IDOCK:   -2.38 KCAL/MOL
REMARK 922        TOTAL FREE ENERGY PREDICTED BY IDOCK:   -3.38 KCAL/MOL
REMARK 923 INTER-LIGAND FREE ENERGY PREDICTED BY IDOCK:   -3.11 KCAL/MOL
REMARK 924 INTRA-LIGAND FREE ENERGY PREDICTED BY IDOCK:   -0.27 KCAL/MOL
REMARK 927      BINDING AFFINITY PREDICTED BY RF-SCORE:    0.00 PKD
ROOT
HETATM    1  C   UNK     1     -12.557  15.043  72.634  1.00  0.00    -0.370 C  
HETATM    2  N   UNK     1     -11.546  15.339  71.645  1.00  0.00    -0.381 NA 
HETATM    3  H   UNK     1     -10.938  16.142  71.805  1.00  0.00     0.000 HD 
HETATM    4  C   UNK     1     -11.359  14.612  70.515  1.00  0.00    -0.160 C  
HETATM    5  N   UNK     1     -10.223  14.993  69.876  1.00  0.00    -0.461 NA 
HETATM    6  N   UNK     1     -12.132  13.689  70.068  1.00  0.00    -0.338 NA 
HETATM    7  H   UNK     1      -9.561  15.622  70.332  1.00  0.00     0.000 HD 
HETATM    8  H2  UNK     1     -12.968  13.483  70.615  1.00  0.00     0.000 HD 
HETATM    9  H1  UNK     1     -11.991  13.142  69.219  1.00  0.00     0.000 HD 
ENDROOT
BRANCH   5  10
HETATM   10  C   UNK     1      -9.956  14.495  68.530  1.00  0.00    -0.238 C  
BRANCH  10  11
HETATM   11  C   UNK     1      -8.953  13.347  68.596  1.00  0.00     0.018 C  
BRANCH  11  12
HETATM   12  C   UNK     1      -9.526  12.061  67.980  1.00  0.00    -0.199 C  
BRANCH  12  13
HETATM   13  C   UNK     1      -9.232  10.794  68.794  1.00  0.00    -0.189 C  
HETATM   14  C   UNK     1     -10.529  10.003  69.031  1.00  0.00    -0.214 C  
HETATM   15  N   UNK     1      -8.255   9.913  68.098  1.00  0.00    -0.108 NA 
HETATM   16  O   UNK     1     -11.378  10.271  69.863  1.00  0.00    -0.254 OA 
HETATM   17  O   UNK     1     -10.635   8.969  68.152  1.00  0.00    -0.219 OA 
HETATM   18  H1  UNK     1      -8.061   9.071  68.639  1.00  0.00     0.000 HD 
HETATM   19  H2  UNK     1      -7.399  10.415  67.866  1.00  0.00     0.000 HD 
ENDBRANCH  12  13
ENDBRANCH  11  12
ENDBRANCH  10  11
ENDBRANCH   5  10
TORSDOF 4
ENDMDL
MODEL      277
REMARK 921   NORMALIZED FREE ENERGY PREDICTED BY IDOCK:   -2.37 KCAL/MOL
REMARK 922        TOTAL FREE ENERGY PREDICTED BY IDOCK:   -3.36 KCAL/MOL
REMARK 923 INTER-LIGAND FREE ENERGY PREDICTED BY IDOCK:   -3.18 KCAL/MOL
REMARK 924 INTRA-LIGAND FREE ENERGY PREDICTED BY IDOCK:   -0.18 KCAL/MOL
REMARK 927      BINDING AFFINITY PREDICTED BY RF-SCORE:    0.00 PKD
ROOT
HETATM    1  C   UNK     1      -8.502   8.486  65.424  1.00  0.00    -0.173 C  
HETATM    2  N   UNK     1      -8.581   7.627  66.584  1.00  0.00    -0.127 NA 
HETATM    3  H   UNK     1      -8.862   6.657  66.445  1.00  0.00     0.000 HD 
HETATM    4  C   UNK     1      -8.303   8.037  67.847  1.00  0.00    -0.129 C  
HETATM    5  N   UNK     1      -8.265   6.982  68.702  1.00  0.00    -0.121 NA 
HETATM    6  N   UNK     1      -8.108   9.248  68.228  1.00  0.00    -0.106 NA 
HETATM    7  H   UNK     1      -8.278   6.028  68.343  1.00  0.00     0.000 HD 
HETATM    8  H2  UNK     1      -8.169   9.972  67.512  1.00  0.00     0.000 HD 
HETATM    9  H1  UNK     1      -7.899   9.557  69.177  1.00  0.00     0.000 HD 
ENDROOT
BRANCH   5  10
HETATM   10  C   UNK     1      -8.205   7.227  70.139  1.00  0.00    -0.134 C  
BRANCH  10  11
HETATM   11  C   UNK     1      -9.620   7.333  70.702  1.00  0.00    -0.172 C  
BRANCH  11  12
HETATM   12  C   UNK     1      -9.783   8.576  71.590  1.00  0.00    -0.322 C  
BRANCH  12  13
HETATM   13  C   UNK     1     -11.074   8.586  72.418  1.00  0.00    -0.327 C  
HETATM   14  C   UNK     1     -12.296   8.739  71.496  1.00  0.00    -0.328 C  
HETATM   15  N   UNK     1     -11.226   7.333  73.207  1.00  0.00    -0.587 NA 
HETATM   16  O   UNK     1     -12.676   9.783  70.996  1.00  0.00    -0.322 OA 
HETATM   17  O   UNK     1     -12.886   7.534  71.268  1.00  0.00    -0.334 OA 
HETATM   18  H1  UNK     1     -12.085   7.340  73.757  1.00  0.00     0.000 HD 
HETATM   19  H2  UNK     1     -10.409   7.158  73.791  1.00  0.00     0.000 HD 
ENDBRANCH  12  13
ENDBRANCH  11  12
ENDBRANCH  10  11
ENDBRANCH   5  10
TORSDOF 4
ENDMDL
MODEL      278
REMARK 921   NORMALIZED FREE ENERGY PREDICTED BY IDOCK:   -2.37 KCAL/MOL
REMARK 922        TOTAL FREE ENERGY PREDICTED BY IDOCK:   -3.36 KCAL/MOL
REMARK 923 INTER-LIGAND FREE ENERGY PREDICTED BY IDOCK:   -3.15 KCAL/MOL
REMARK 924 INTRA-LIGAND FREE ENERGY PREDICTED BY IDOCK:   -0.21 KCAL/MOL
REMARK 927      BINDING AFFINITY PREDICTED BY RF-SCORE:    0.00 PKD
ROOT
HETATM    1  C   UNK     1      -5.557  14.191  71.861  1.00  0.00    -0.196 C  
HETATM    2  N   UNK     1      -6.393  13.535  70.881  1.00  0.00    -0.482 NA 
HETATM    3  H   UNK     1      -6.467  12.518  70.917  1.00  0.00     0.000 HD 
HETATM    4  C   UNK     1      -7.084  14.192  69.917  1.00  0.00     0.171 C  
HETATM    5  N   UNK     1      -7.933  13.352  69.271  1.00  0.00    -0.205 NA 
HETATM    6  N   UNK     1      -6.972  15.435  69.615  1.00  0.00    -0.188 NA 
HETATM    7  H   UNK     1      -8.102  12.413  69.632  1.00  0.00     0.000 HD 
HETATM    8  H2  UNK     1      -6.298  15.981  70.151  1.00  0.00     0.000 HD 
HETATM    9  H1  UNK     1      -7.492  15.930  68.890  1.00  0.00     0.000 HD 
ENDROOT
BRANCH   5  10
HETATM   10  C   UNK     1      -8.602  13.804  68.055  1.00  0.00    -0.177 C  
BRANCH  10  11
HETATM   11  C   UNK     1      -9.810  12.916  67.771  1.00  0.00    -0.221 C  
BRANCH  11  12
HETATM   12  C   UNK     1     -10.678  12.725  69.024  1.00  0.00    -0.136 C  
BRANCH  12  13
HETATM   13  C   UNK     1     -11.788  13.772  69.181  1.00  0.00    -0.354 C  
HETATM   14  C   UNK     1     -11.225  15.050  69.826  1.00  0.00    -0.277 C  
HETATM   15  N   UNK     1     -12.391  14.127  67.867  1.00  0.00    -0.533 NA 
HETATM   16  O   UNK     1     -10.997  15.198  71.014  1.00  0.00    -0.283 OA 
HETATM   17  O   UNK     1     -10.969  15.998  68.884  1.00  0.00    -0.269 OA 
HETATM   18  H1  UNK     1     -13.129  14.823  67.971  1.00  0.00     0.000 HD 
HETATM   19  H2  UNK     1     -12.725  13.299  67.373  1.00  0.00     0.000 HD 
ENDBRANCH  12  13
ENDBRANCH  11  12
ENDBRANCH  10  11
ENDBRANCH   5  10
TORSDOF 4
ENDMDL
MODEL      279
REMARK 921   NORMALIZED FREE ENERGY PREDICTED BY IDOCK:   -2.36 KCAL/MOL
REMARK 922        TOTAL FREE ENERGY PREDICTED BY IDOCK:   -3.36 KCAL/MOL
REMARK 923 INTER-LIGAND FREE ENERGY PREDICTED BY IDOCK:   -4.54 KCAL/MOL
REMARK 924 INTRA-LIGAND FREE ENERGY PREDICTED BY IDOCK:    1.19 KCAL/MOL
REMARK 927      BINDING AFFINITY PREDICTED BY RF-SCORE:    0.00 PKD
ROOT
HETATM    1  C   UNK     1     -13.518  14.138  72.468  1.00  0.00    -0.534 C  
HETATM    2  N   UNK     1     -12.355  14.799  71.922  1.00  0.00    -0.335 NA 
HETATM    3  H   UNK     1     -11.790  15.372  72.548  1.00  0.00     0.000 HD 
HETATM    4  C   UNK     1     -11.972  14.703  70.624  1.00  0.00    -0.315 C  
HETATM    5  N   UNK     1     -10.746  15.258  70.438  1.00  0.00    -0.455 NA 
HETATM    6  N   UNK     1     -12.650  14.179  69.668  1.00  0.00    -0.459 NA 
HETATM    7  H   UNK     1     -10.177  15.530  71.240  1.00  0.00     0.000 HD 
HETATM    8  H2  UNK     1     -13.566  13.799  69.906  1.00  0.00     0.000 HD 
HETATM    9  H1  UNK     1     -12.363  14.107  68.692  1.00  0.00     0.000 HD 
ENDROOT
BRANCH   5  10
HETATM   10  C   UNK     1     -10.250  15.460  69.081  1.00  0.00    -0.239 C  
BRANCH  10  11
HETATM   11  C   UNK     1     -11.272  16.253  68.272  1.00  0.00    -0.324 C  
BRANCH  11  12
HETATM   12  C   UNK     1     -10.662  17.539  67.693  1.00  0.00    -0.306 C  
BRANCH  12  13
HETATM   13  C   UNK     1      -9.808  18.329  68.693  1.00  0.00    -0.380 C  
HETATM   14  C   UNK     1      -8.331  17.914  68.575  1.00  0.00    -0.300 C  
HETATM   15  N   UNK     1      -9.911  19.795  68.458  1.00  0.00    -0.430 NA 
HETATM   16  O   UNK     1      -7.843  16.902  69.047  1.00  0.00    -0.240 OA 
HETATM   17  O   UNK     1      -7.632  18.812  67.830  1.00  0.00    -0.226 OA 
HETATM   18  H1  UNK     1      -9.343  20.320  69.123  1.00  0.00     0.000 HD 
HETATM   19  H2  UNK     1     -10.882  20.107  68.468  1.00  0.00     0.000 HD 
ENDBRANCH  12  13
ENDBRANCH  11  12
ENDBRANCH  10  11
ENDBRANCH   5  10
TORSDOF 4
ENDMDL
MODEL      280
REMARK 921   NORMALIZED FREE ENERGY PREDICTED BY IDOCK:   -2.36 KCAL/MOL
REMARK 922        TOTAL FREE ENERGY PREDICTED BY IDOCK:   -3.35 KCAL/MOL
REMARK 923 INTER-LIGAND FREE ENERGY PREDICTED BY IDOCK:   -3.17 KCAL/MOL
REMARK 924 INTRA-LIGAND FREE ENERGY PREDICTED BY IDOCK:   -0.19 KCAL/MOL
REMARK 927      BINDING AFFINITY PREDICTED BY RF-SCORE:    0.00 PKD
ROOT
HETATM    1  C   UNK     1     -12.526  13.167  64.899  1.00  0.00    -0.433 C  
HETATM    2  N   UNK     1     -11.878  12.115  65.648  1.00  0.00    -0.475 NA 
HETATM    3  H   UNK     1     -12.377  11.715  66.443  1.00  0.00     0.000 HD 
HETATM    4  C   UNK     1     -10.646  11.628  65.356  1.00  0.00    -0.280 C  
HETATM    5  N   UNK     1     -10.376  10.520  66.094  1.00  0.00    -0.233 NA 
HETATM    6  N   UNK     1      -9.812  12.124  64.515  1.00  0.00    -0.454 NA 
HETATM    7  H   UNK     1     -11.112  10.072  66.640  1.00  0.00     0.000 HD 
HETATM    8  H2  UNK     1     -10.104  12.966  64.018  1.00  0.00     0.000 HD 
HETATM    9  H1  UNK     1      -8.886  11.759  64.295  1.00  0.00     0.000 HD 
ENDROOT
BRANCH   5  10
HETATM   10  C   UNK     1      -9.022   9.975  66.097  1.00  0.00    -0.149 C  
BRANCH  10  11
HETATM   11  C   UNK     1      -8.783   9.199  67.390  1.00  0.00    -0.118 C  
BRANCH  11  12
HETATM   12  C   UNK     1      -7.377   9.455  67.951  1.00  0.00    -0.083 C  
BRANCH  12  13
HETATM   13  C   UNK     1      -7.088   8.725  69.269  1.00  0.00    -0.062 C  
HETATM   14  C   UNK     1      -7.309   9.673  70.461  1.00  0.00    -0.131 C  
HETATM   15  N   UNK     1      -7.967   7.535  69.437  1.00  0.00    -0.121 NA 
HETATM   16  O   UNK     1      -6.529  10.532  70.833  1.00  0.00    -0.344 OA 
HETATM   17  O   UNK     1      -8.525   9.458  71.034  1.00  0.00    -0.285 OA 
HETATM   18  H1  UNK     1      -7.775   7.050  70.313  1.00  0.00     0.000 HD 
HETATM   19  H2  UNK     1      -7.898   6.905  68.638  1.00  0.00     0.000 HD 
ENDBRANCH  12  13
ENDBRANCH  11  12
ENDBRANCH  10  11
ENDBRANCH   5  10
TORSDOF 4
ENDMDL
MODEL      281
REMARK 921   NORMALIZED FREE ENERGY PREDICTED BY IDOCK:   -2.36 KCAL/MOL
REMARK 922        TOTAL FREE ENERGY PREDICTED BY IDOCK:   -3.34 KCAL/MOL
REMARK 923 INTER-LIGAND FREE ENERGY PREDICTED BY IDOCK:   -2.69 KCAL/MOL
REMARK 924 INTRA-LIGAND FREE ENERGY PREDICTED BY IDOCK:   -0.66 KCAL/MOL
REMARK 927      BINDING AFFINITY PREDICTED BY RF-SCORE:    0.00 PKD
ROOT
HETATM    1  C   UNK     1      -8.966   6.880  65.725  1.00  0.00    -0.009 C  
HETATM    2  N   UNK     1      -9.264   8.294  65.719  1.00  0.00    -0.387 NA 
HETATM    3  H   UNK     1      -8.720   8.897  65.101  1.00  0.00     0.000 HD 
HETATM    4  C   UNK     1     -10.224   8.867  66.486  1.00  0.00    -0.249 C  
HETATM    5  N   UNK     1     -10.419  10.163  66.132  1.00  0.00    -0.154 NA 
HETATM    6  N   UNK     1     -10.876   8.301  67.438  1.00  0.00    -0.497 NA 
HETATM    7  H   UNK     1      -9.993  10.535  65.283  1.00  0.00     0.000 HD 
HETATM    8  H2  UNK     1     -10.649   7.326  67.636  1.00  0.00     0.000 HD 
HETATM    9  H1  UNK     1     -11.598   8.731  68.015  1.00  0.00     0.000 HD 
ENDROOT
BRANCH   5  10
HETATM   10  C   UNK     1     -11.244  11.021  66.978  1.00  0.00    -0.181 C  
BRANCH  10  11
HETATM   11  C   UNK     1     -10.352  11.827  67.918  1.00  0.00    -0.209 C  
BRANCH  11  12
HETATM   12  C   UNK     1      -9.381  12.729  67.142  1.00  0.00    -0.216 C  
BRANCH  12  13
HETATM   13  C   UNK     1      -7.945  12.192  67.080  1.00  0.00    -0.170 C  
HETATM   14  C   UNK     1      -7.663  11.287  68.292  1.00  0.00    -0.122 C  
HETATM   15  N   UNK     1      -7.708  11.410  65.835  1.00  0.00    -0.366 NA 
HETATM   16  O   UNK     1      -7.408  11.675  69.418  1.00  0.00    -0.039 OA 
HETATM   17  O   UNK     1      -7.778   9.973  67.954  1.00  0.00    -0.089 OA 
HETATM   18  H1  UNK     1      -6.754  11.053  65.795  1.00  0.00     0.000 HD 
HETATM   19  H2  UNK     1      -7.941  11.953  65.004  1.00  0.00     0.000 HD 
ENDBRANCH  12  13
ENDBRANCH  11  12
ENDBRANCH  10  11
ENDBRANCH   5  10
TORSDOF 4
ENDMDL
MODEL      282
REMARK 921   NORMALIZED FREE ENERGY PREDICTED BY IDOCK:   -2.34 KCAL/MOL
REMARK 922        TOTAL FREE ENERGY PREDICTED BY IDOCK:   -3.33 KCAL/MOL
REMARK 923 INTER-LIGAND FREE ENERGY PREDICTED BY IDOCK:   -3.06 KCAL/MOL
REMARK 924 INTRA-LIGAND FREE ENERGY PREDICTED BY IDOCK:   -0.27 KCAL/MOL
REMARK 927      BINDING AFFINITY PREDICTED BY RF-SCORE:    0.00 PKD
ROOT
HETATM    1  C   UNK     1     -12.602   8.911  72.187  1.00  0.00    -0.399 C  
HETATM    2  N   UNK     1     -12.362   9.000  70.764  1.00  0.00    -0.490 NA 
HETATM    3  H   UNK     1     -13.147   8.839  70.134  1.00  0.00     0.000 HD 
HETATM    4  C   UNK     1     -11.153   9.283  70.219  1.00  0.00    -0.251 C  
HETATM    5  N   UNK     1     -11.261   9.498  68.883  1.00  0.00    -0.457 NA 
HETATM    6  N   UNK     1     -10.031   9.338  70.843  1.00  0.00    -0.283 NA 
HETATM    7  H   UNK     1     -12.180   9.591  68.449  1.00  0.00     0.000 HD 
HETATM    8  H2  UNK     1     -10.051   9.150  71.845  1.00  0.00     0.000 HD 
HETATM    9  H1  UNK     1      -9.122   9.551  70.434  1.00  0.00     0.000 HD 
ENDROOT
BRANCH   5  10
HETATM   10  C   UNK     1     -10.052   9.594  68.071  1.00  0.00    -0.178 C  
BRANCH  10  11
HETATM   11  C   UNK     1     -10.281   8.917  66.723  1.00  0.00    -0.348 C  
BRANCH  11  12
HETATM   12  C   UNK     1      -9.009   8.219  66.218  1.00  0.00    -0.221 C  
BRANCH  12  13
HETATM   13  C   UNK     1      -7.966   7.955  67.311  1.00  0.00    -0.118 C  
HETATM   14  C   UNK     1      -7.749   6.442  67.485  1.00  0.00    -0.101 C  
HETATM   15  N   UNK     1      -6.660   8.590  66.983  1.00  0.00    -0.057 NA 
HETATM   16  O   UNK     1      -8.489   5.688  68.091  1.00  0.00    -0.100 OA 
HETATM   17  O   UNK     1      -6.628   6.034  66.830  1.00  0.00    -0.052 OA 
HETATM   18  H1  UNK     1      -5.966   8.414  67.709  1.00  0.00     0.000 HD 
HETATM   19  H2  UNK     1      -6.766   9.588  66.800  1.00  0.00     0.000 HD 
ENDBRANCH  12  13
ENDBRANCH  11  12
ENDBRANCH  10  11
ENDBRANCH   5  10
TORSDOF 4
ENDMDL
MODEL      283
REMARK 921   NORMALIZED FREE ENERGY PREDICTED BY IDOCK:   -2.33 KCAL/MOL
REMARK 922        TOTAL FREE ENERGY PREDICTED BY IDOCK:   -3.31 KCAL/MOL
REMARK 923 INTER-LIGAND FREE ENERGY PREDICTED BY IDOCK:   -3.52 KCAL/MOL
REMARK 924 INTRA-LIGAND FREE ENERGY PREDICTED BY IDOCK:    0.20 KCAL/MOL
REMARK 927      BINDING AFFINITY PREDICTED BY RF-SCORE:    0.00 PKD
ROOT
HETATM    1  C   UNK     1     -11.274   5.730  72.336  1.00  0.00    -0.290 C  
HETATM    2  N   UNK     1     -11.535   6.358  71.061  1.00  0.00    -0.328 NA 
HETATM    3  H   UNK     1     -12.473   6.278  70.669  1.00  0.00     0.000 HD 
HETATM    4  C   UNK     1     -10.605   7.049  70.355  1.00  0.00    -0.223 C  
HETATM    5  N   UNK     1     -11.174   7.693  69.303  1.00  0.00    -0.433 NA 
HETATM    6  N   UNK     1      -9.346   7.102  70.604  1.00  0.00    -0.158 NA 
HETATM    7  H   UNK     1     -12.190   7.748  69.222  1.00  0.00     0.000 HD 
HETATM    8  H2  UNK     1      -9.013   6.573  71.410  1.00  0.00     0.000 HD 
HETATM    9  H1  UNK     1      -8.646   7.621  70.073  1.00  0.00     0.000 HD 
ENDROOT
BRANCH   5  10
HETATM   10  C   UNK     1     -10.320   8.305  68.291  1.00  0.00    -0.198 C  
BRANCH  10  11
HETATM   11  C   UNK     1     -10.543   9.815  68.275  1.00  0.00    -0.271 C  
BRANCH  11  12
HETATM   12  C   UNK     1      -9.845  10.477  67.077  1.00  0.00    -0.223 C  
BRANCH  12  13
HETATM   13  C   UNK     1     -10.247   9.888  65.718  1.00  0.00    -0.181 C  
HETATM   14  C   UNK     1     -10.017  10.922  64.602  1.00  0.00    -0.310 C  
HETATM   15  N   UNK     1      -9.463   8.663  65.402  1.00  0.00    -0.436 NA 
HETATM   16  O   UNK     1     -10.752  11.860  64.348  1.00  0.00    -0.284 OA 
HETATM   17  O   UNK     1      -8.849  10.680  63.948  1.00  0.00    -0.180 OA 
HETATM   18  H1  UNK     1      -9.730   8.272  64.499  1.00  0.00     0.000 HD 
HETATM   19  H2  UNK     1      -9.538   7.970  66.146  1.00  0.00     0.000 HD 
ENDBRANCH  12  13
ENDBRANCH  11  12
ENDBRANCH  10  11
ENDBRANCH   5  10
TORSDOF 4
ENDMDL
MODEL      284
REMARK 921   NORMALIZED FREE ENERGY PREDICTED BY IDOCK:   -2.32 KCAL/MOL
REMARK 922        TOTAL FREE ENERGY PREDICTED BY IDOCK:   -3.30 KCAL/MOL
REMARK 923 INTER-LIGAND FREE ENERGY PREDICTED BY IDOCK:   -3.06 KCAL/MOL
REMARK 924 INTRA-LIGAND FREE ENERGY PREDICTED BY IDOCK:   -0.23 KCAL/MOL
REMARK 927      BINDING AFFINITY PREDICTED BY RF-SCORE:    0.00 PKD
ROOT
HETATM    1  C   UNK     1     -13.285  10.469  71.561  1.00  0.00    -0.371 C  
HETATM    2  N   UNK     1     -12.128   9.633  71.786  1.00  0.00    -0.386 NA 
HETATM    3  H   UNK     1     -11.245  10.088  72.019  1.00  0.00     0.000 HD 
HETATM    4  C   UNK     1     -12.147   8.280  71.706  1.00  0.00    -0.319 C  
HETATM    5  N   UNK     1     -10.980   7.751  72.157  1.00  0.00    -0.248 NA 
HETATM    6  N   UNK     1     -13.109   7.558  71.257  1.00  0.00    -0.530 NA 
HETATM    7  H   UNK     1     -10.300   8.339  72.639  1.00  0.00     0.000 HD 
HETATM    8  H2  UNK     1     -13.941   8.050  70.929  1.00  0.00     0.000 HD 
HETATM    9  H1  UNK     1     -13.124   6.540  71.196  1.00  0.00     0.000 HD 
ENDROOT
BRANCH   5  10
HETATM   10  C   UNK     1     -10.708   6.332  71.947  1.00  0.00    -0.230 C  
BRANCH  10  11
HETATM   11  C   UNK     1      -9.652   5.858  72.942  1.00  0.00    -0.161 C  
BRANCH  11  12
HETATM   12  C   UNK     1      -8.287   5.660  72.266  1.00  0.00    -0.119 C  
BRANCH  12  13
HETATM   13  C   UNK     1      -7.567   6.969  71.917  1.00  0.00    -0.092 C  
HETATM   14  C   UNK     1      -7.496   7.882  73.152  1.00  0.00    -0.118 C  
HETATM   15  N   UNK     1      -6.183   6.716  71.430  1.00  0.00    -0.040 NA 
HETATM   16  O   UNK     1      -8.411   8.566  73.577  1.00  0.00    -0.381 OA 
HETATM   17  O   UNK     1      -6.276   7.799  73.749  1.00  0.00    -0.071 OA 
HETATM   18  H1  UNK     1      -5.705   7.587  71.198  1.00  0.00     0.000 HD 
HETATM   19  H2  UNK     1      -6.176   6.065  70.645  1.00  0.00     0.000 HD 
ENDBRANCH  12  13
ENDBRANCH  11  12
ENDBRANCH  10  11
ENDBRANCH   5  10
TORSDOF 4
ENDMDL
MODEL      285
REMARK 921   NORMALIZED FREE ENERGY PREDICTED BY IDOCK:   -2.29 KCAL/MOL
REMARK 922        TOTAL FREE ENERGY PREDICTED BY IDOCK:   -3.27 KCAL/MOL
REMARK 923 INTER-LIGAND FREE ENERGY PREDICTED BY IDOCK:   -2.75 KCAL/MOL
REMARK 924 INTRA-LIGAND FREE ENERGY PREDICTED BY IDOCK:   -0.52 KCAL/MOL
REMARK 927      BINDING AFFINITY PREDICTED BY RF-SCORE:    0.00 PKD
ROOT
HETATM    1  C   UNK     1      -8.872  10.945  62.392  1.00  0.00    -0.313 C  
HETATM    2  N   UNK     1      -8.871  10.991  63.837  1.00  0.00    -0.367 NA 
HETATM    3  H   UNK     1      -8.019  10.715  64.325  1.00  0.00     0.000 HD 
HETATM    4  C   UNK     1      -9.935  11.381  64.581  1.00  0.00    -0.268 C  
HETATM    5  N   UNK     1      -9.590  11.517  65.887  1.00  0.00    -0.225 NA 
HETATM    6  N   UNK     1     -11.128  11.589  64.151  1.00  0.00    -0.359 NA 
HETATM    7  H   UNK     1      -8.609  11.487  66.166  1.00  0.00     0.000 HD 
HETATM    8  H2  UNK     1     -11.290  11.448  63.154  1.00  0.00     0.000 HD 
HETATM    9  H1  UNK     1     -11.929  11.882  64.711  1.00  0.00     0.000 HD 
ENDROOT
BRANCH   5  10
HETATM   10  C   UNK     1     -10.635  11.708  66.888  1.00  0.00    -0.241 C  
BRANCH  10  11
HETATM   11  C   UNK     1     -10.486  10.666  67.993  1.00  0.00    -0.228 C  
BRANCH  11  12
HETATM   12  C   UNK     1     -11.199   9.354  67.632  1.00  0.00     0.271 C  
BRANCH  12  13
HETATM   13  C   UNK     1     -10.250   8.224  67.211  1.00  0.00    -0.274 C  
HETATM   14  C   UNK     1     -10.859   6.858  67.573  1.00  0.00    -0.292 C  
HETATM   15  N   UNK     1      -9.981   8.254  65.747  1.00  0.00    -0.285 NA 
HETATM   16  O   UNK     1     -10.865   6.361  68.685  1.00  0.00    -0.256 OA 
HETATM   17  O   UNK     1     -11.437   6.280  66.485  1.00  0.00     0.090 OA 
HETATM   18  H1  UNK     1      -9.351   7.502  65.469  1.00  0.00     0.000 HD 
HETATM   19  H2  UNK     1      -9.632   9.165  65.451  1.00  0.00     0.000 HD 
ENDBRANCH  12  13
ENDBRANCH  11  12
ENDBRANCH  10  11
ENDBRANCH   5  10
TORSDOF 4
ENDMDL
MODEL      286
REMARK 921   NORMALIZED FREE ENERGY PREDICTED BY IDOCK:   -2.29 KCAL/MOL
REMARK 922        TOTAL FREE ENERGY PREDICTED BY IDOCK:   -3.26 KCAL/MOL
REMARK 923 INTER-LIGAND FREE ENERGY PREDICTED BY IDOCK:   -2.99 KCAL/MOL
REMARK 924 INTRA-LIGAND FREE ENERGY PREDICTED BY IDOCK:   -0.27 KCAL/MOL
REMARK 927      BINDING AFFINITY PREDICTED BY RF-SCORE:    0.00 PKD
ROOT
HETATM    1  C   UNK     1     -14.388   8.195  71.762  1.00  0.00    -0.484 C  
HETATM    2  N   UNK     1     -13.309   7.902  70.846  1.00  0.00    -0.477 NA 
HETATM    3  H   UNK     1     -13.454   8.097  69.856  1.00  0.00     0.000 HD 
HETATM    4  C   UNK     1     -12.115   7.383  71.228  1.00  0.00    -0.328 C  
HETATM    5  N   UNK     1     -11.229   7.398  70.198  1.00  0.00    -0.374 NA 
HETATM    6  N   UNK     1     -11.824   6.916  72.388  1.00  0.00    -0.455 NA 
HETATM    7  H   UNK     1     -11.445   7.906  69.340  1.00  0.00     0.000 HD 
HETATM    8  H2  UNK     1     -12.562   6.938  73.092  1.00  0.00     0.000 HD 
HETATM    9  H1  UNK     1     -10.927   6.526  72.675  1.00  0.00     0.000 HD 
ENDROOT
BRANCH   5  10
HETATM   10  C   UNK     1      -9.964   6.682  70.331  1.00  0.00    -0.175 C  
BRANCH  10  11
HETATM   11  C   UNK     1      -9.241   6.661  68.987  1.00  0.00    -0.131 C  
BRANCH  11  12
HETATM   12  C   UNK     1      -8.317   7.877  68.824  1.00  0.00    -0.128 C  
BRANCH  12  13
HETATM   13  C   UNK     1      -7.741   8.405  70.144  1.00  0.00    -0.083 C  
HETATM   14  C   UNK     1      -6.237   8.095  70.228  1.00  0.00    -0.032 C  
HETATM   15  N   UNK     1      -7.933   9.876  70.273  1.00  0.00    -0.270 NA 
HETATM   16  O   UNK     1      -5.754   7.014  70.517  1.00  0.00    -0.023 OA 
HETATM   17  O   UNK     1      -5.496   9.187  69.894  1.00  0.00    -0.029 OA 
HETATM   18  H1  UNK     1      -7.549  10.226  71.150  1.00  0.00     0.000 HD 
HETATM   19  H2  UNK     1      -8.913  10.135  70.163  1.00  0.00     0.000 HD 
ENDBRANCH  12  13
ENDBRANCH  11  12
ENDBRANCH  10  11
ENDBRANCH   5  10
TORSDOF 4
ENDMDL
MODEL      287
REMARK 921   NORMALIZED FREE ENERGY PREDICTED BY IDOCK:   -2.27 KCAL/MOL
REMARK 922        TOTAL FREE ENERGY PREDICTED BY IDOCK:   -3.24 KCAL/MOL
REMARK 923 INTER-LIGAND FREE ENERGY PREDICTED BY IDOCK:   -3.10 KCAL/MOL
REMARK 924 INTRA-LIGAND FREE ENERGY PREDICTED BY IDOCK:   -0.14 KCAL/MOL
REMARK 927      BINDING AFFINITY PREDICTED BY RF-SCORE:    0.00 PKD
ROOT
HETATM    1  C   UNK     1      -5.318  14.105  73.133  1.00  0.00    -0.243 C  
HETATM    2  N   UNK     1      -5.674  13.324  71.970  1.00  0.00    -0.469 NA 
HETATM    3  H   UNK     1      -5.704  12.309  72.065  1.00  0.00     0.000 HD 
HETATM    4  C   UNK     1      -5.968  13.861  70.760  1.00  0.00    -0.170 C  
HETATM    5  N   UNK     1      -6.456  12.916  69.916  1.00  0.00    -0.343 NA 
HETATM    6  N   UNK     1      -5.810  15.088  70.414  1.00  0.00    -0.144 NA 
HETATM    7  H   UNK     1      -6.704  11.991  70.266  1.00  0.00     0.000 HD 
HETATM    8  H2  UNK     1      -5.426  15.719  71.117  1.00  0.00     0.000 HD 
HETATM    9  H1  UNK     1      -6.032  15.492  69.504  1.00  0.00     0.000 HD 
ENDROOT
BRANCH   5  10
HETATM   10  C   UNK     1      -6.622  13.236  68.502  1.00  0.00    -0.089 C  
BRANCH  10  11
HETATM   11  C   UNK     1      -8.108  13.300  68.159  1.00  0.00    -0.159 C  
BRANCH  11  12
HETATM   12  C   UNK     1      -8.480  14.639  67.505  1.00  0.00    -0.200 C  
BRANCH  12  13
HETATM   13  C   UNK     1      -9.971  14.987  67.600  1.00  0.00    -0.225 C  
HETATM   14  C   UNK     1     -10.822  13.831  67.046  1.00  0.00    -0.284 C  
HETATM   15  N   UNK     1     -10.381  15.249  69.007  1.00  0.00    -0.232 NA 
HETATM   16  O   UNK     1     -11.011  13.597  65.866  1.00  0.00    -0.282 OA 
HETATM   17  O   UNK     1     -11.314  13.062  68.056  1.00  0.00    -0.256 OA 
HETATM   18  H1  UNK     1     -11.372  15.480  69.070  1.00  0.00     0.000 HD 
HETATM   19  H2  UNK     1      -9.801  15.970  69.436  1.00  0.00     0.000 HD 
ENDBRANCH  12  13
ENDBRANCH  11  12
ENDBRANCH  10  11
ENDBRANCH   5  10
TORSDOF 4
ENDMDL
MODEL      288
REMARK 921   NORMALIZED FREE ENERGY PREDICTED BY IDOCK:   -2.26 KCAL/MOL
REMARK 922        TOTAL FREE ENERGY PREDICTED BY IDOCK:   -3.22 KCAL/MOL
REMARK 923 INTER-LIGAND FREE ENERGY PREDICTED BY IDOCK:   -2.84 KCAL/MOL
REMARK 924 INTRA-LIGAND FREE ENERGY PREDICTED BY IDOCK:   -0.38 KCAL/MOL
REMARK 927      BINDING AFFINITY PREDICTED BY RF-SCORE:    0.00 PKD
ROOT
HETATM    1  C   UNK     1      -6.793  10.570  69.856  1.00  0.00    -0.149 C  
HETATM    2  N   UNK     1      -6.540  11.790  69.122  1.00  0.00    -0.094 NA 
HETATM    3  H   UNK     1      -6.538  11.746  68.103  1.00  0.00     0.000 HD 
HETATM    4  C   UNK     1      -6.307  12.989  69.710  1.00  0.00    -0.063 C  
HETATM    5  N   UNK     1      -6.302  13.988  68.790  1.00  0.00    -0.084 NA 
HETATM    6  N   UNK     1      -6.099  13.196  70.961  1.00  0.00    -0.541 NA 
HETATM    7  H   UNK     1      -6.613  13.810  67.835  1.00  0.00     0.000 HD 
HETATM    8  H2  UNK     1      -6.111  12.379  71.571  1.00  0.00     0.000 HD 
HETATM    9  H1  UNK     1      -5.924  14.098  71.403  1.00  0.00     0.000 HD 
ENDROOT
BRANCH   5  10
HETATM   10  C   UNK     1      -5.847  15.319  69.178  1.00  0.00    -0.099 C  
BRANCH  10  11
HETATM   11  C   UNK     1      -7.051  16.231  69.398  1.00  0.00    -0.204 C  
BRANCH  11  12
HETATM   12  C   UNK     1      -8.238  15.822  68.514  1.00  0.00    -0.166 C  
BRANCH  12  13
HETATM   13  C   UNK     1      -9.378  15.136  69.277  1.00  0.00    -0.207 C  
HETATM   14  C   UNK     1     -10.686  15.927  69.104  1.00  0.00    -0.259 C  
HETATM   15  N   UNK     1      -9.596  13.743  68.797  1.00  0.00    -0.401 NA 
HETATM   16  O   UNK     1     -10.977  16.948  69.702  1.00  0.00    -0.236 OA 
HETATM   17  O   UNK     1     -11.475  15.359  68.152  1.00  0.00    -0.335 OA 
HETATM   18  H1  UNK     1     -10.354  13.288  69.304  1.00  0.00     0.000 HD 
HETATM   19  H2  UNK     1      -8.737  13.196  68.837  1.00  0.00     0.000 HD 
ENDBRANCH  12  13
ENDBRANCH  11  12
ENDBRANCH  10  11
ENDBRANCH   5  10
TORSDOF 4
ENDMDL
MODEL      289
REMARK 921   NORMALIZED FREE ENERGY PREDICTED BY IDOCK:   -2.24 KCAL/MOL
REMARK 922        TOTAL FREE ENERGY PREDICTED BY IDOCK:   -3.21 KCAL/MOL
REMARK 923 INTER-LIGAND FREE ENERGY PREDICTED BY IDOCK:   -3.17 KCAL/MOL
REMARK 924 INTRA-LIGAND FREE ENERGY PREDICTED BY IDOCK:   -0.04 KCAL/MOL
REMARK 927      BINDING AFFINITY PREDICTED BY RF-SCORE:    0.00 PKD
ROOT
HETATM    1  C   UNK     1     -11.679  15.329  64.878  1.00  0.00    -0.230 C  
HETATM    2  N   UNK     1     -12.071  14.292  65.805  1.00  0.00    -0.407 NA 
HETATM    3  H   UNK     1     -12.928  13.773  65.611  1.00  0.00     0.000 HD 
HETATM    4  C   UNK     1     -11.367  13.968  66.918  1.00  0.00    -0.329 C  
HETATM    5  N   UNK     1     -11.855  12.836  67.488  1.00  0.00    -0.363 NA 
HETATM    6  N   UNK     1     -10.377  14.623  67.408  1.00  0.00    -0.241 NA 
HETATM    7  H   UNK     1     -12.542  12.266  66.995  1.00  0.00     0.000 HD 
HETATM    8  H2  UNK     1     -10.092  15.468  66.912  1.00  0.00     0.000 HD 
HETATM    9  H1  UNK     1      -9.847  14.380  68.245  1.00  0.00     0.000 HD 
ENDROOT
BRANCH   5  10
HETATM   10  C   UNK     1     -11.386  12.443  68.813  1.00  0.00    -0.293 C  
BRANCH  10  11
HETATM   11  C   UNK     1     -10.792  11.038  68.753  1.00  0.00    -0.253 C  
BRANCH  11  12
HETATM   12  C   UNK     1      -9.264  11.077  68.604  1.00  0.00    -0.186 C  
BRANCH  12  13
HETATM   13  C   UNK     1      -8.679   9.874  67.853  1.00  0.00    -0.129 C  
HETATM   14  C   UNK     1      -9.650   8.682  67.920  1.00  0.00    -0.149 C  
HETATM   15  N   UNK     1      -8.421  10.198  66.423  1.00  0.00    -0.129 NA 
HETATM   16  O   UNK     1      -9.792   7.942  68.878  1.00  0.00    -0.166 OA 
HETATM   17  O   UNK     1     -10.374   8.580  66.773  1.00  0.00    -0.295 OA 
HETATM   18  H1  UNK     1      -8.032   9.398  65.924  1.00  0.00     0.000 HD 
HETATM   19  H2  UNK     1      -7.827  11.022  66.328  1.00  0.00     0.000 HD 
ENDBRANCH  12  13
ENDBRANCH  11  12
ENDBRANCH  10  11
ENDBRANCH   5  10
TORSDOF 4
ENDMDL
MODEL      290
REMARK 921   NORMALIZED FREE ENERGY PREDICTED BY IDOCK:   -2.23 KCAL/MOL
REMARK 922        TOTAL FREE ENERGY PREDICTED BY IDOCK:   -3.19 KCAL/MOL
REMARK 923 INTER-LIGAND FREE ENERGY PREDICTED BY IDOCK:   -3.00 KCAL/MOL
REMARK 924 INTRA-LIGAND FREE ENERGY PREDICTED BY IDOCK:   -0.19 KCAL/MOL
REMARK 927      BINDING AFFINITY PREDICTED BY RF-SCORE:    0.00 PKD
ROOT
HETATM    1  C   UNK     1     -10.716   3.411  63.779  1.00  0.00    -0.244 C  
HETATM    2  N   UNK     1     -11.115   4.410  64.745  1.00  0.00    -0.836 NA 
HETATM    3  H   UNK     1     -11.921   4.995  64.525  1.00  0.00     0.000 HD 
HETATM    4  C   UNK     1     -10.479   4.615  65.925  1.00  0.00    -0.268 C  
HETATM    5  N   UNK     1     -11.182   5.470  66.712  1.00  0.00    -0.352 NA 
HETATM    6  N   UNK     1      -9.358   4.102  66.284  1.00  0.00    -0.156 NA 
HETATM    7  H   UNK     1     -12.132   5.741  66.458  1.00  0.00     0.000 HD 
HETATM    8  H2  UNK     1      -8.901   3.480  65.617  1.00  0.00     0.000 HD 
HETATM    9  H1  UNK     1      -8.879   4.256  67.172  1.00  0.00     0.000 HD 
ENDROOT
BRANCH   5  10
HETATM   10  C   UNK     1     -10.566   5.998  67.925  1.00  0.00    -0.267 C  
BRANCH  10  11
HETATM   11  C   UNK     1     -11.189   7.347  68.274  1.00  0.00     0.274 C  
BRANCH  11  12
HETATM   12  C   UNK     1     -10.490   7.998  69.477  1.00  0.00    -0.226 C  
BRANCH  12  13
HETATM   13  C   UNK     1     -10.058   9.451  69.236  1.00  0.00    -0.196 C  
HETATM   14  C   UNK     1      -8.563   9.620  69.556  1.00  0.00    -0.172 C  
HETATM   15  N   UNK     1     -10.293   9.862  67.824  1.00  0.00    -0.205 NA 
HETATM   16  O   UNK     1      -8.089   9.726  70.674  1.00  0.00    -0.264 OA 
HETATM   17  O   UNK     1      -7.816   9.596  68.419  1.00  0.00    -0.085 OA 
HETATM   18  H1  UNK     1     -10.005  10.827  67.664  1.00  0.00     0.000 HD 
HETATM   19  H2  UNK     1     -11.262   9.710  67.547  1.00  0.00     0.000 HD 
ENDBRANCH  12  13
ENDBRANCH  11  12
ENDBRANCH  10  11
ENDBRANCH   5  10
TORSDOF 4
ENDMDL
MODEL      291
REMARK 921   NORMALIZED FREE ENERGY PREDICTED BY IDOCK:   -2.22 KCAL/MOL
REMARK 922        TOTAL FREE ENERGY PREDICTED BY IDOCK:   -3.18 KCAL/MOL
REMARK 923 INTER-LIGAND FREE ENERGY PREDICTED BY IDOCK:   -2.72 KCAL/MOL
REMARK 924 INTRA-LIGAND FREE ENERGY PREDICTED BY IDOCK:   -0.45 KCAL/MOL
REMARK 927      BINDING AFFINITY PREDICTED BY RF-SCORE:    0.00 PKD
ROOT
HETATM    1  C   UNK     1      -8.179   7.376  64.969  1.00  0.00    -0.098 C  
HETATM    2  N   UNK     1      -8.310   6.891  66.325  1.00  0.00    -0.120 NA 
HETATM    3  H   UNK     1      -7.494   6.945  66.934  1.00  0.00     0.000 HD 
HETATM    4  C   UNK     1      -9.454   6.370  66.833  1.00  0.00    -0.143 C  
HETATM    5  N   UNK     1      -9.349   6.184  68.174  1.00  0.00    -0.116 NA 
HETATM    6  N   UNK     1     -10.511   6.066  66.170  1.00  0.00    -0.451 NA 
HETATM    7  H   UNK     1      -8.555   6.570  68.687  1.00  0.00     0.000 HD 
HETATM    8  H2  UNK     1     -10.488   6.232  65.164  1.00  0.00     0.000 HD 
HETATM    9  H1  UNK     1     -11.372   5.674  66.551  1.00  0.00     0.000 HD 
ENDROOT
BRANCH   5  10
HETATM   10  C   UNK     1     -10.380   5.427  68.876  1.00  0.00    -0.190 C  
BRANCH  10  11
HETATM   11  C   UNK     1     -10.908   6.245  70.052  1.00  0.00    -0.387 C  
BRANCH  11  12
HETATM   12  C   UNK     1      -9.780   6.641  71.016  1.00  0.00    -0.185 C  
BRANCH  12  13
HETATM   13  C   UNK     1      -9.691   8.149  71.286  1.00  0.00    -0.164 C  
HETATM   14  C   UNK     1      -8.755   8.422  72.475  1.00  0.00    -0.206 C  
HETATM   15  N   UNK     1      -9.181   8.886  70.098  1.00  0.00    -0.169 NA 
HETATM   16  O   UNK     1      -9.049   8.287  73.650  1.00  0.00    -0.222 OA 
HETATM   17  O   UNK     1      -7.520   8.799  72.045  1.00  0.00    -0.271 OA 
HETATM   18  H1  UNK     1      -9.122   9.888  70.278  1.00  0.00     0.000 HD 
HETATM   19  H2  UNK     1      -9.738   8.688  69.267  1.00  0.00     0.000 HD 
ENDBRANCH  12  13
ENDBRANCH  11  12
ENDBRANCH  10  11
ENDBRANCH   5  10
TORSDOF 4
ENDMDL
MODEL      292
REMARK 921   NORMALIZED FREE ENERGY PREDICTED BY IDOCK:   -2.21 KCAL/MOL
REMARK 922        TOTAL FREE ENERGY PREDICTED BY IDOCK:   -3.17 KCAL/MOL
REMARK 923 INTER-LIGAND FREE ENERGY PREDICTED BY IDOCK:   -2.98 KCAL/MOL
REMARK 924 INTRA-LIGAND FREE ENERGY PREDICTED BY IDOCK:   -0.19 KCAL/MOL
REMARK 927      BINDING AFFINITY PREDICTED BY RF-SCORE:    0.00 PKD
ROOT
HETATM    1  C   UNK     1      -6.810   7.201  63.692  1.00  0.00    -0.052 C  
HETATM    2  N   UNK     1      -7.043   8.136  64.769  1.00  0.00    -0.077 NA 
HETATM    3  H   UNK     1      -6.626   9.064  64.698  1.00  0.00     0.000 HD 
HETATM    4  C   UNK     1      -7.785   7.851  65.868  1.00  0.00    -0.093 C  
HETATM    5  N   UNK     1      -8.000   8.968  66.611  1.00  0.00    -0.100 NA 
HETATM    6  N   UNK     1      -8.231   6.695  66.206  1.00  0.00    -0.115 NA 
HETATM    7  H   UNK     1      -7.758   9.887  66.240  1.00  0.00     0.000 HD 
HETATM    8  H2  UNK     1      -8.006   5.915  65.587  1.00  0.00     0.000 HD 
HETATM    9  H1  UNK     1      -8.789   6.480  67.032  1.00  0.00     0.000 HD 
ENDROOT
BRANCH   5  10
HETATM   10  C   UNK     1      -8.580   8.841  67.944  1.00  0.00    -0.130 C  
BRANCH  10  11
HETATM   11  C   UNK     1      -9.860   9.668  68.029  1.00  0.00    -0.175 C  
BRANCH  11  12
HETATM   12  C   UNK     1      -9.860  10.584  69.262  1.00  0.00    -0.225 C  
BRANCH  12  13
HETATM   13  C   UNK     1     -11.189  11.313  69.498  1.00  0.00    -0.272 C  
HETATM   14  C   UNK     1     -11.292  12.541  68.578  1.00  0.00    -0.297 C  
HETATM   15  N   UNK     1     -12.353  10.422  69.237  1.00  0.00    -0.682 NA 
HETATM   16  O   UNK     1     -10.739  13.610  68.764  1.00  0.00    -0.247 OA 
HETATM   17  O   UNK     1     -12.058  12.268  67.487  1.00  0.00    -0.514 OA 
HETATM   18  H1  UNK     1     -13.236  10.907  69.394  1.00  0.00     0.000 HD 
HETATM   19  H2  UNK     1     -12.296   9.563  69.784  1.00  0.00     0.000 HD 
ENDBRANCH  12  13
ENDBRANCH  11  12
ENDBRANCH  10  11
ENDBRANCH   5  10
TORSDOF 4
ENDMDL
MODEL      293
REMARK 921   NORMALIZED FREE ENERGY PREDICTED BY IDOCK:   -2.21 KCAL/MOL
REMARK 922        TOTAL FREE ENERGY PREDICTED BY IDOCK:   -3.16 KCAL/MOL
REMARK 923 INTER-LIGAND FREE ENERGY PREDICTED BY IDOCK:   -2.94 KCAL/MOL
REMARK 924 INTRA-LIGAND FREE ENERGY PREDICTED BY IDOCK:   -0.22 KCAL/MOL
REMARK 927      BINDING AFFINITY PREDICTED BY RF-SCORE:    0.00 PKD
ROOT
HETATM    1  C   UNK     1      -7.131  11.158  67.767  1.00  0.00    -0.086 C  
HETATM    2  N   UNK     1      -7.674  10.742  69.040  1.00  0.00    -0.124 NA 
HETATM    3  H   UNK     1      -8.343  11.359  69.501  1.00  0.00     0.000 HD 
HETATM    4  C   UNK     1      -7.347   9.579  69.657  1.00  0.00    -0.084 C  
HETATM    5  N   UNK     1      -8.150   9.356  70.729  1.00  0.00    -0.260 NA 
HETATM    6  N   UNK     1      -6.404   8.777  69.316  1.00  0.00    -0.041 NA 
HETATM    7  H   UNK     1      -8.976   9.935  70.883  1.00  0.00     0.000 HD 
HETATM    8  H2  UNK     1      -5.848   9.038  68.502  1.00  0.00     0.000 HD 
HETATM    9  H1  UNK     1      -6.158   7.902  69.780  1.00  0.00     0.000 HD 
ENDROOT
BRANCH   5  10
HETATM   10  C   UNK     1      -7.822   8.281  71.659  1.00  0.00    -0.114 C  
BRANCH  10  11
HETATM   11  C   UNK     1      -9.039   7.956  72.521  1.00  0.00    -0.245 C  
BRANCH  11  12
HETATM   12  C   UNK     1     -10.342   8.432  71.862  1.00  0.00    -0.353 C  
BRANCH  12  13
HETATM   13  C   UNK     1     -10.965   7.411  70.901  1.00  0.00    -0.253 C  
HETATM   14  C   UNK     1     -12.108   6.654  71.598  1.00  0.00    -0.355 C  
HETATM   15  N   UNK     1     -11.505   8.071  69.680  1.00  0.00    -0.380 NA 
HETATM   16  O   UNK     1     -11.967   5.737  72.388  1.00  0.00    -0.275 OA 
HETATM   17  O   UNK     1     -13.317   7.170  71.249  1.00  0.00    -0.368 OA 
HETATM   18  H1  UNK     1     -11.919   7.392  69.042  1.00  0.00     0.000 HD 
HETATM   19  H2  UNK     1     -10.794   8.636  69.216  1.00  0.00     0.000 HD 
ENDBRANCH  12  13
ENDBRANCH  11  12
ENDBRANCH  10  11
ENDBRANCH   5  10
TORSDOF 4
ENDMDL
MODEL      294
REMARK 921   NORMALIZED FREE ENERGY PREDICTED BY IDOCK:   -2.20 KCAL/MOL
REMARK 922        TOTAL FREE ENERGY PREDICTED BY IDOCK:   -3.15 KCAL/MOL
REMARK 923 INTER-LIGAND FREE ENERGY PREDICTED BY IDOCK:   -2.98 KCAL/MOL
REMARK 924 INTRA-LIGAND FREE ENERGY PREDICTED BY IDOCK:   -0.16 KCAL/MOL
REMARK 927      BINDING AFFINITY PREDICTED BY RF-SCORE:    0.00 PKD
ROOT
HETATM    1  C   UNK     1      -6.747  10.500  69.836  1.00  0.00    -0.142 C  
HETATM    2  N   UNK     1      -6.537  11.672  69.017  1.00  0.00    -0.083 NA 
HETATM    3  H   UNK     1      -6.545  11.558  68.004  1.00  0.00     0.000 HD 
HETATM    4  C   UNK     1      -6.329  12.915  69.518  1.00  0.00    -0.103 C  
HETATM    5  N   UNK     1      -6.363  13.848  68.531  1.00  0.00    -0.085 NA 
HETATM    6  N   UNK     1      -6.113  13.213  70.748  1.00  0.00    -0.494 NA 
HETATM    7  H   UNK     1      -6.680  13.595  67.594  1.00  0.00     0.000 HD 
HETATM    8  H2  UNK     1      -6.096  12.440  71.414  1.00  0.00     0.000 HD 
HETATM    9  H1  UNK     1      -5.957  14.148  71.125  1.00  0.00     0.000 HD 
ENDROOT
BRANCH   5  10
HETATM   10  C   UNK     1      -5.940  15.214  68.821  1.00  0.00    -0.088 C  
BRANCH  10  11
HETATM   11  C   UNK     1      -7.161  16.076  69.129  1.00  0.00    -0.208 C  
BRANCH  11  12
HETATM   12  C   UNK     1      -8.395  15.610  68.341  1.00  0.00    -0.162 C  
BRANCH  12  13
HETATM   13  C   UNK     1      -9.339  16.747  67.929  1.00  0.00    -0.229 C  
HETATM   14  C   UNK     1      -9.412  16.847  66.396  1.00  0.00    -0.283 C  
HETATM   15  N   UNK     1     -10.713  16.534  68.460  1.00  0.00    -0.318 NA 
HETATM   16  O   UNK     1      -8.571  17.364  65.682  1.00  0.00    -0.456 OA 
HETATM   17  O   UNK     1     -10.534  16.239  65.923  1.00  0.00    -0.334 OA 
HETATM   18  H1  UNK     1     -11.340  17.290  68.186  1.00  0.00     0.000 HD 
HETATM   19  H2  UNK     1     -10.706  16.402  69.471  1.00  0.00     0.000 HD 
ENDBRANCH  12  13
ENDBRANCH  11  12
ENDBRANCH  10  11
ENDBRANCH   5  10
TORSDOF 4
ENDMDL
MODEL      295
REMARK 921   NORMALIZED FREE ENERGY PREDICTED BY IDOCK:   -2.19 KCAL/MOL
REMARK 922        TOTAL FREE ENERGY PREDICTED BY IDOCK:   -3.14 KCAL/MOL
REMARK 923 INTER-LIGAND FREE ENERGY PREDICTED BY IDOCK:   -2.96 KCAL/MOL
REMARK 924 INTRA-LIGAND FREE ENERGY PREDICTED BY IDOCK:   -0.19 KCAL/MOL
REMARK 927      BINDING AFFINITY PREDICTED BY RF-SCORE:    0.00 PKD
ROOT
HETATM    1  C   UNK     1      -5.423  13.027  70.861  1.00  0.00    -0.187 C  
HETATM    2  N   UNK     1      -5.436  11.637  71.258  1.00  0.00    -0.355 NA 
HETATM    3  H   UNK     1      -4.674  11.299  71.845  1.00  0.00     0.000 HD 
HETATM    4  C   UNK     1      -6.402  10.757  70.895  1.00  0.00     0.272 C  
HETATM    5  N   UNK     1      -6.268   9.585  71.568  1.00  0.00    -0.252 NA 
HETATM    6  N   UNK     1      -7.327  10.959  70.027  1.00  0.00    -0.426 NA 
HETATM    7  H   UNK     1      -5.617   9.512  72.350  1.00  0.00     0.000 HD 
HETATM    8  H2  UNK     1      -7.337  11.869  69.566  1.00  0.00     0.000 HD 
HETATM    9  H1  UNK     1      -8.054  10.297  69.754  1.00  0.00     0.000 HD 
ENDROOT
BRANCH   5  10
HETATM   10  C   UNK     1      -7.064   8.431  71.163  1.00  0.00    -0.066 C  
BRANCH  10  11
HETATM   11  C   UNK     1      -7.962   7.995  72.317  1.00  0.00    -0.161 C  
BRANCH  11  12
HETATM   12  C   UNK     1      -9.159   7.170  71.821  1.00  0.00    -0.146 C  
BRANCH  12  13
HETATM   13  C   UNK     1     -10.524   7.785  72.156  1.00  0.00    -0.231 C  
HETATM   14  C   UNK     1     -11.390   7.880  70.888  1.00  0.00    -0.277 C  
HETATM   15  N   UNK     1     -11.252   6.976  73.172  1.00  0.00    -0.530 NA 
HETATM   16  O   UNK     1     -11.283   8.732  70.023  1.00  0.00    -0.215 OA 
HETATM   17  O   UNK     1     -12.280   6.852  70.829  1.00  0.00    -0.381 OA 
HETATM   18  H1  UNK     1     -12.159   7.385  73.394  1.00  0.00     0.000 HD 
HETATM   19  H2  UNK     1     -10.689   6.836  74.010  1.00  0.00     0.000 HD 
ENDBRANCH  12  13
ENDBRANCH  11  12
ENDBRANCH  10  11
ENDBRANCH   5  10
TORSDOF 4
ENDMDL
MODEL      296
REMARK 921   NORMALIZED FREE ENERGY PREDICTED BY IDOCK:   -2.19 KCAL/MOL
REMARK 922        TOTAL FREE ENERGY PREDICTED BY IDOCK:   -3.14 KCAL/MOL
REMARK 923 INTER-LIGAND FREE ENERGY PREDICTED BY IDOCK:   -2.88 KCAL/MOL
REMARK 924 INTRA-LIGAND FREE ENERGY PREDICTED BY IDOCK:   -0.26 KCAL/MOL
REMARK 927      BINDING AFFINITY PREDICTED BY RF-SCORE:    0.00 PKD
ROOT
HETATM    1  C   UNK     1     -10.079   3.898  64.225  1.00  0.00    -0.211 C  
HETATM    2  N   UNK     1     -10.548   4.244  65.547  1.00  0.00    -0.502 NA 
HETATM    3  H   UNK     1     -11.386   3.778  65.896  1.00  0.00     0.000 HD 
HETATM    4  C   UNK     1      -9.940   5.152  66.350  1.00  0.00    -0.213 C  
HETATM    5  N   UNK     1     -10.475   5.129  67.599  1.00  0.00    -0.114 NA 
HETATM    6  N   UNK     1      -8.994   5.952  66.013  1.00  0.00    -0.152 NA 
HETATM    7  H   UNK     1     -11.118   4.386  67.870  1.00  0.00     0.000 HD 
HETATM    8  H2  UNK     1      -8.668   5.900  65.048  1.00  0.00     0.000 HD 
HETATM    9  H1  UNK     1      -8.536   6.635  66.617  1.00  0.00     0.000 HD 
ENDROOT
BRANCH   5  10
HETATM   10  C   UNK     1     -10.120   6.179  68.549  1.00  0.00    -0.162 C  
BRANCH  10  11
HETATM   11  C   UNK     1     -11.353   6.583  69.353  1.00  0.00    -0.395 C  
BRANCH  11  12
HETATM   12  C   UNK     1     -11.249   6.126  70.815  1.00  0.00    -0.373 C  
BRANCH  12  13
HETATM   13  C   UNK     1      -9.896   5.500  71.179  1.00  0.00    -0.181 C  
HETATM   14  C   UNK     1      -9.308   6.191  72.421  1.00  0.00    -0.145 C  
HETATM   15  N   UNK     1     -10.028   4.044  71.461  1.00  0.00    -0.176 NA 
HETATM   16  O   UNK     1      -8.744   7.271  72.426  1.00  0.00    -0.118 OA 
HETATM   17  O   UNK     1      -9.535   5.454  73.542  1.00  0.00    -0.137 OA 
HETATM   18  H1  UNK     1      -9.129   3.629  71.703  1.00  0.00     0.000 HD 
HETATM   19  H2  UNK     1     -10.471   3.553  70.685  1.00  0.00     0.000 HD 
ENDBRANCH  12  13
ENDBRANCH  11  12
ENDBRANCH  10  11
ENDBRANCH   5  10
TORSDOF 4
ENDMDL
MODEL      297
REMARK 921   NORMALIZED FREE ENERGY PREDICTED BY IDOCK:   -2.17 KCAL/MOL
REMARK 922        TOTAL FREE ENERGY PREDICTED BY IDOCK:   -3.12 KCAL/MOL
REMARK 923 INTER-LIGAND FREE ENERGY PREDICTED BY IDOCK:   -3.26 KCAL/MOL
REMARK 924 INTRA-LIGAND FREE ENERGY PREDICTED BY IDOCK:    0.15 KCAL/MOL
REMARK 927      BINDING AFFINITY PREDICTED BY RF-SCORE:    0.00 PKD
ROOT
HETATM    1  C   UNK     1     -12.246  13.564  70.929  1.00  0.00    -0.305 C  
HETATM    2  N   UNK     1     -11.902  13.573  69.525  1.00  0.00    -0.316 NA 
HETATM    3  H   UNK     1     -12.324  14.287  68.932  1.00  0.00     0.000 HD 
HETATM    4  C   UNK     1     -11.051  12.686  68.952  1.00  0.00    -0.259 C  
HETATM    5  N   UNK     1     -10.761  13.049  67.675  1.00  0.00    -0.225 NA 
HETATM    6  N   UNK     1     -10.573  11.627  69.499  1.00  0.00    -0.441 NA 
HETATM    7  H   UNK     1     -11.039  13.966  67.325  1.00  0.00     0.000 HD 
HETATM    8  H2  UNK     1     -10.861  11.434  70.458  1.00  0.00     0.000 HD 
HETATM    9  H1  UNK     1      -9.934  10.960  69.068  1.00  0.00     0.000 HD 
ENDROOT
BRANCH   5  10
HETATM   10  C   UNK     1     -10.047  12.116  66.810  1.00  0.00    -0.200 C  
BRANCH  10  11
HETATM   11  C   UNK     1     -10.874  10.847  66.627  1.00  0.00    -0.258 C  
BRANCH  11  12
HETATM   12  C   UNK     1     -10.159   9.831  65.724  1.00  0.00    -0.308 C  
BRANCH  12  13
HETATM   13  C   UNK     1      -9.179   8.916  66.469  1.00  0.00    -0.183 C  
HETATM   14  C   UNK     1      -9.899   8.191  67.619  1.00  0.00    -0.169 C  
HETATM   15  N   UNK     1      -8.586   7.897  65.560  1.00  0.00    -0.238 NA 
HETATM   16  O   UNK     1     -10.173   8.681  68.700  1.00  0.00    -0.187 OA 
HETATM   17  O   UNK     1     -10.236   6.922  67.259  1.00  0.00    -0.174 OA 
HETATM   18  H1  UNK     1      -7.935   7.289  66.055  1.00  0.00     0.000 HD 
HETATM   19  H2  UNK     1      -8.148   8.331  64.748  1.00  0.00     0.000 HD 
ENDBRANCH  12  13
ENDBRANCH  11  12
ENDBRANCH  10  11
ENDBRANCH   5  10
TORSDOF 4
ENDMDL
MODEL      298
REMARK 921   NORMALIZED FREE ENERGY PREDICTED BY IDOCK:   -2.17 KCAL/MOL
REMARK 922        TOTAL FREE ENERGY PREDICTED BY IDOCK:   -3.11 KCAL/MOL
REMARK 923 INTER-LIGAND FREE ENERGY PREDICTED BY IDOCK:   -2.93 KCAL/MOL
REMARK 924 INTRA-LIGAND FREE ENERGY PREDICTED BY IDOCK:   -0.19 KCAL/MOL
REMARK 927      BINDING AFFINITY PREDICTED BY RF-SCORE:    0.00 PKD
ROOT
HETATM    1  C   UNK     1      -7.910   7.922  73.570  1.00  0.00    -0.167 C  
HETATM    2  N   UNK     1      -8.012   7.088  72.394  1.00  0.00    -0.095 NA 
HETATM    3  H   UNK     1      -7.227   7.079  71.743  1.00  0.00     0.000 HD 
HETATM    4  C   UNK     1      -9.090   6.317  72.107  1.00  0.00    -0.141 C  
HETATM    5  N   UNK     1      -8.832   5.495  71.057  1.00  0.00    -0.138 NA 
HETATM    6  N   UNK     1     -10.223   6.338  72.711  1.00  0.00    -0.181 NA 
HETATM    7  H   UNK     1      -7.882   5.401  70.698  1.00  0.00     0.000 HD 
HETATM    8  H2  UNK     1     -10.322   6.999  73.482  1.00  0.00     0.000 HD 
HETATM    9  H1  UNK     1     -11.034   5.758  72.495  1.00  0.00     0.000 HD 
ENDROOT
BRANCH   5  10
HETATM   10  C   UNK     1      -9.927   4.749  70.446  1.00  0.00    -0.245 C  
BRANCH  10  11
HETATM   11  C   UNK     1      -9.947   5.003  68.941  1.00  0.00    -0.236 C  
BRANCH  11  12
HETATM   12  C   UNK     1      -9.589   6.460  68.610  1.00  0.00    -0.121 C  
BRANCH  12  13
HETATM   13  C   UNK     1     -10.730   7.250  67.956  1.00  0.00    -0.146 C  
HETATM   14  C   UNK     1     -10.208   8.596  67.425  1.00  0.00    -0.262 C  
HETATM   15  N   UNK     1     -11.338   6.495  66.827  1.00  0.00    -0.800 NA 
HETATM   16  O   UNK     1      -9.989   9.585  68.103  1.00  0.00    -0.154 OA 
HETATM   17  O   UNK     1      -9.977   8.534  66.086  1.00  0.00    -0.239 OA 
HETATM   18  H1  UNK     1     -12.097   7.021  66.393  1.00  0.00     0.000 HD 
HETATM   19  H2  UNK     1     -11.646   5.568  67.120  1.00  0.00     0.000 HD 
ENDBRANCH  12  13
ENDBRANCH  11  12
ENDBRANCH  10  11
ENDBRANCH   5  10
TORSDOF 4
ENDMDL
MODEL      299
REMARK 921   NORMALIZED FREE ENERGY PREDICTED BY IDOCK:   -2.17 KCAL/MOL
REMARK 922        TOTAL FREE ENERGY PREDICTED BY IDOCK:   -3.11 KCAL/MOL
REMARK 923 INTER-LIGAND FREE ENERGY PREDICTED BY IDOCK:   -2.86 KCAL/MOL
REMARK 924 INTRA-LIGAND FREE ENERGY PREDICTED BY IDOCK:   -0.25 KCAL/MOL
REMARK 927      BINDING AFFINITY PREDICTED BY RF-SCORE:    0.00 PKD
ROOT
HETATM    1  C   UNK     1      -5.161  13.123  71.171  1.00  0.00    -0.178 C  
HETATM    2  N   UNK     1      -5.640  11.759  71.204  1.00  0.00    -0.372 NA 
HETATM    3  H   UNK     1      -5.201  11.112  71.859  1.00  0.00     0.000 HD 
HETATM    4  C   UNK     1      -6.639  11.291  70.415  1.00  0.00     0.266 C  
HETATM    5  N   UNK     1      -7.012  10.042  70.796  1.00  0.00    -0.332 NA 
HETATM    6  N   UNK     1      -7.176  11.905  69.424  1.00  0.00    -0.335 NA 
HETATM    7  H   UNK     1      -6.669   9.646  71.671  1.00  0.00     0.000 HD 
HETATM    8  H2  UNK     1      -6.818  12.836  69.208  1.00  0.00     0.000 HD 
HETATM    9  H1  UNK     1      -7.927  11.553  68.830  1.00  0.00     0.000 HD 
ENDROOT
BRANCH   5  10
HETATM   10  C   UNK     1      -7.910   9.271  69.942  1.00  0.00    -0.109 C  
BRANCH  10  11
HETATM   11  C   UNK     1      -9.270   9.129  70.621  1.00  0.00    -0.310 C  
BRANCH  11  12
HETATM   12  C   UNK     1      -9.789   7.685  70.551  1.00  0.00    -0.183 C  
BRANCH  12  13
HETATM   13  C   UNK     1     -10.851   7.455  69.468  1.00  0.00    -0.189 C  
HETATM   14  C   UNK     1     -10.232   6.724  68.264  1.00  0.00    -0.175 C  
HETATM   15  N   UNK     1     -11.989   6.645  69.984  1.00  0.00    -0.636 NA 
HETATM   16  O   UNK     1      -9.547   7.243  67.401  1.00  0.00    -0.134 OA 
HETATM   17  O   UNK     1     -10.514   5.393  68.306  1.00  0.00    -0.178 OA 
HETATM   18  H1  UNK     1     -12.694   6.492  69.264  1.00  0.00     0.000 HD 
HETATM   19  H2  UNK     1     -12.394   7.062  70.822  1.00  0.00     0.000 HD 
ENDBRANCH  12  13
ENDBRANCH  11  12
ENDBRANCH  10  11
ENDBRANCH   5  10
TORSDOF 4
ENDMDL
MODEL      300
REMARK 921   NORMALIZED FREE ENERGY PREDICTED BY IDOCK:   -2.17 KCAL/MOL
REMARK 922        TOTAL FREE ENERGY PREDICTED BY IDOCK:   -3.11 KCAL/MOL
REMARK 923 INTER-LIGAND FREE ENERGY PREDICTED BY IDOCK:   -2.58 KCAL/MOL
REMARK 924 INTRA-LIGAND FREE ENERGY PREDICTED BY IDOCK:   -0.53 KCAL/MOL
REMARK 927      BINDING AFFINITY PREDICTED BY RF-SCORE:    0.00 PKD
ROOT
HETATM    1  C   UNK     1      -9.789  11.185  68.671  1.00  0.00    -0.202 C  
HETATM    2  N   UNK     1      -9.645  10.456  69.911  1.00  0.00    -0.411 NA 
HETATM    3  H   UNK     1      -8.866  10.697  70.522  1.00  0.00     0.000 HD 
HETATM    4  C   UNK     1     -10.487   9.469  70.308  1.00  0.00    -0.268 C  
HETATM    5  N   UNK     1     -10.233   9.102  71.590  1.00  0.00    -0.341 NA 
HETATM    6  N   UNK     1     -11.404   8.919  69.596  1.00  0.00    -0.431 NA 
HETATM    7  H   UNK     1      -9.601   9.656  72.169  1.00  0.00     0.000 HD 
HETATM    8  H2  UNK     1     -11.509   9.257  68.639  1.00  0.00     0.000 HD 
HETATM    9  H1  UNK     1     -12.037   8.177  69.894  1.00  0.00     0.000 HD 
ENDROOT
BRANCH   5  10
HETATM   10  C   UNK     1     -10.871   7.907  72.133  1.00  0.00    -0.269 C  
BRANCH  10  11
HETATM   11  C   UNK     1      -9.822   6.825  72.371  1.00  0.00    -0.169 C  
BRANCH  11  12
HETATM   12  C   UNK     1      -8.408   7.420  72.467  1.00  0.00    -0.128 C  
BRANCH  12  13
HETATM   13  C   UNK     1      -7.414   6.832  71.456  1.00  0.00    -0.087 C  
HETATM   14  C   UNK     1      -7.355   7.712  70.196  1.00  0.00    -0.076 C  
HETATM   15  N   UNK     1      -6.045   6.734  72.034  1.00  0.00    -0.038 NA 
HETATM   16  O   UNK     1      -8.179   7.713  69.298  1.00  0.00    -0.128 OA 
HETATM   17  O   UNK     1      -6.272   8.535  70.228  1.00  0.00    -0.034 OA 
HETATM   18  H1  UNK     1      -5.385   6.343  71.362  1.00  0.00     0.000 HD 
HETATM   19  H2  UNK     1      -6.046   6.207  72.907  1.00  0.00     0.000 HD 
ENDBRANCH  12  13
ENDBRANCH  11  12
ENDBRANCH  10  11
ENDBRANCH   5  10
TORSDOF 4
ENDMDL
MODEL      301
REMARK 921   NORMALIZED FREE ENERGY PREDICTED BY IDOCK:   -2.16 KCAL/MOL
REMARK 922        TOTAL FREE ENERGY PREDICTED BY IDOCK:   -3.11 KCAL/MOL
REMARK 923 INTER-LIGAND FREE ENERGY PREDICTED BY IDOCK:   -2.93 KCAL/MOL
REMARK 924 INTRA-LIGAND FREE ENERGY PREDICTED BY IDOCK:   -0.18 KCAL/MOL
REMARK 927      BINDING AFFINITY PREDICTED BY RF-SCORE:    0.00 PKD
ROOT
HETATM    1  C   UNK     1      -6.587   6.865  64.004  1.00  0.00    -0.039 C  
HETATM    2  N   UNK     1      -7.062   6.606  65.344  1.00  0.00    -0.062 NA 
HETATM    3  H   UNK     1      -6.445   6.833  66.124  1.00  0.00     0.000 HD 
HETATM    4  C   UNK     1      -8.280   6.079  65.624  1.00  0.00    -0.139 C  
HETATM    5  N   UNK     1      -8.535   6.131  66.957  1.00  0.00    -0.105 NA 
HETATM    6  N   UNK     1      -9.104   5.575  64.778  1.00  0.00    -0.360 NA 
HETATM    7  H   UNK     1      -7.927   6.666  67.578  1.00  0.00     0.000 HD 
HETATM    8  H2  UNK     1      -8.815   5.571  63.800  1.00  0.00     0.000 HD 
HETATM    9  H1  UNK     1     -10.019   5.178  64.989  1.00  0.00     0.000 HD 
ENDROOT
BRANCH   5  10
HETATM   10  C   UNK     1      -9.688   5.415  67.495  1.00  0.00    -0.137 C  
BRANCH  10  11
HETATM   11  C   UNK     1     -10.794   6.407  67.841  1.00  0.00    -0.404 C  
BRANCH  11  12
HETATM   12  C   UNK     1     -11.410   6.109  69.217  1.00  0.00    -0.361 C  
BRANCH  12  13
HETATM   13  C   UNK     1     -11.444   7.319  70.160  1.00  0.00    -0.165 C  
HETATM   14  C   UNK     1     -12.194   6.962  71.455  1.00  0.00    -0.372 C  
HETATM   15  N   UNK     1     -10.071   7.773  70.513  1.00  0.00    -0.192 NA 
HETATM   16  O   UNK     1     -13.405   6.906  71.576  1.00  0.00    -0.329 OA 
HETATM   17  O   UNK     1     -11.321   6.669  72.457  1.00  0.00    -0.259 OA 
HETATM   18  H1  UNK     1     -10.094   8.577  71.140  1.00  0.00     0.000 HD 
HETATM   19  H2  UNK     1      -9.515   7.964  69.680  1.00  0.00     0.000 HD 
ENDBRANCH  12  13
ENDBRANCH  11  12
ENDBRANCH  10  11
ENDBRANCH   5  10
TORSDOF 4
ENDMDL
MODEL      302
REMARK 921   NORMALIZED FREE ENERGY PREDICTED BY IDOCK:   -2.16 KCAL/MOL
REMARK 922        TOTAL FREE ENERGY PREDICTED BY IDOCK:   -3.10 KCAL/MOL
REMARK 923 INTER-LIGAND FREE ENERGY PREDICTED BY IDOCK:   -2.81 KCAL/MOL
REMARK 924 INTRA-LIGAND FREE ENERGY PREDICTED BY IDOCK:   -0.29 KCAL/MOL
REMARK 927      BINDING AFFINITY PREDICTED BY RF-SCORE:    0.00 PKD
ROOT
HETATM    1  C   UNK     1      -7.351  11.170  66.588  1.00  0.00    -0.145 C  
HETATM    2  N   UNK     1      -7.812  10.219  67.575  1.00  0.00    -0.102 NA 
HETATM    3  H   UNK     1      -7.164   9.938  68.310  1.00  0.00     0.000 HD 
HETATM    4  C   UNK     1      -9.056   9.680  67.580  1.00  0.00    -0.130 C  
HETATM    5  N   UNK     1      -9.277   8.981  68.723  1.00  0.00    -0.133 NA 
HETATM    6  N   UNK     1      -9.932   9.780  66.646  1.00  0.00    -0.215 NA 
HETATM    7  H   UNK     1      -8.620   9.045  69.501  1.00  0.00     0.000 HD 
HETATM    8  H2  UNK     1      -9.667  10.317  65.820  1.00  0.00     0.000 HD 
HETATM    9  H1  UNK     1     -10.868   9.374  66.649  1.00  0.00     0.000 HD 
ENDROOT
BRANCH   5  10
HETATM   10  C   UNK     1     -10.464   8.138  68.830  1.00  0.00    -0.185 C  
BRANCH  10  11
HETATM   11  C   UNK     1     -10.073   6.674  68.646  1.00  0.00    -0.169 C  
BRANCH  11  12
HETATM   12  C   UNK     1     -10.498   5.820  69.850  1.00  0.00    -0.360 C  
BRANCH  12  13
HETATM   13  C   UNK     1     -10.511   6.582  71.182  1.00  0.00    -0.220 C  
HETATM   14  C   UNK     1     -11.846   6.353  71.911  1.00  0.00    -0.329 C  
HETATM   15  N   UNK     1      -9.400   6.143  72.071  1.00  0.00    -0.150 NA 
HETATM   16  O   UNK     1     -12.897   6.910  71.649  1.00  0.00    -0.373 OA 
HETATM   17  O   UNK     1     -11.716   5.404  72.877  1.00  0.00    -0.297 OA 
HETATM   18  H1  UNK     1      -9.409   6.649  72.956  1.00  0.00     0.000 HD 
HETATM   19  H2  UNK     1      -8.496   6.220  71.605  1.00  0.00     0.000 HD 
ENDBRANCH  12  13
ENDBRANCH  11  12
ENDBRANCH  10  11
ENDBRANCH   5  10
TORSDOF 4
ENDMDL
MODEL      303
REMARK 921   NORMALIZED FREE ENERGY PREDICTED BY IDOCK:   -2.15 KCAL/MOL
REMARK 922        TOTAL FREE ENERGY PREDICTED BY IDOCK:   -3.09 KCAL/MOL
REMARK 923 INTER-LIGAND FREE ENERGY PREDICTED BY IDOCK:   -2.89 KCAL/MOL
REMARK 924 INTRA-LIGAND FREE ENERGY PREDICTED BY IDOCK:   -0.21 KCAL/MOL
REMARK 927      BINDING AFFINITY PREDICTED BY RF-SCORE:    0.00 PKD
ROOT
HETATM    1  C   UNK     1      -6.272  13.572  69.803  1.00  0.00    -0.116 C  
HETATM    2  N   UNK     1      -6.736  12.211  69.950  1.00  0.00    -0.358 NA 
HETATM    3  H   UNK     1      -6.223  11.594  70.579  1.00  0.00     0.000 HD 
HETATM    4  C   UNK     1      -7.815  11.707  69.300  1.00  0.00     0.222 C  
HETATM    5  N   UNK     1      -8.136  10.476  69.776  1.00  0.00    -0.374 NA 
HETATM    6  N   UNK     1      -8.464  12.277  68.350  1.00  0.00    -0.250 NA 
HETATM    7  H   UNK     1      -7.693  10.120  70.623  1.00  0.00     0.000 HD 
HETATM    8  H2  UNK     1      -8.138  13.197  68.055  1.00  0.00     0.000 HD 
HETATM    9  H1  UNK     1      -9.275  11.898  67.861  1.00  0.00     0.000 HD 
ENDROOT
BRANCH   5  10
HETATM   10  C   UNK     1      -9.120   9.667  69.064  1.00  0.00    -0.148 C  
BRANCH  10  11
HETATM   11  C   UNK     1      -9.361   8.365  69.822  1.00  0.00    -0.158 C  
BRANCH  11  12
HETATM   12  C   UNK     1     -10.859   8.040  69.924  1.00  0.00    -0.217 C  
BRANCH  12  13
HETATM   13  C   UNK     1     -11.392   7.999  71.362  1.00  0.00    -0.256 C  
HETATM   14  C   UNK     1     -12.338   9.186  71.612  1.00  0.00    -0.360 C  
HETATM   15  N   UNK     1     -12.130   6.735  71.633  1.00  0.00    -0.344 NA 
HETATM   16  O   UNK     1     -11.988  10.331  71.836  1.00  0.00    -0.164 OA 
HETATM   17  O   UNK     1     -13.639   8.801  71.509  1.00  0.00    -0.362 OA 
HETATM   18  H1  UNK     1     -12.485   6.708  72.589  1.00  0.00     0.000 HD 
HETATM   19  H2  UNK     1     -11.560   5.916  71.423  1.00  0.00     0.000 HD 
ENDBRANCH  12  13
ENDBRANCH  11  12
ENDBRANCH  10  11
ENDBRANCH   5  10
TORSDOF 4
ENDMDL
MODEL      304
REMARK 921   NORMALIZED FREE ENERGY PREDICTED BY IDOCK:   -2.15 KCAL/MOL
REMARK 922        TOTAL FREE ENERGY PREDICTED BY IDOCK:   -3.09 KCAL/MOL
REMARK 923 INTER-LIGAND FREE ENERGY PREDICTED BY IDOCK:   -3.07 KCAL/MOL
REMARK 924 INTRA-LIGAND FREE ENERGY PREDICTED BY IDOCK:   -0.02 KCAL/MOL
REMARK 927      BINDING AFFINITY PREDICTED BY RF-SCORE:    0.00 PKD
ROOT
HETATM    1  C   UNK     1      -9.108  10.207  69.449  1.00  0.00    -0.203 C  
HETATM    2  N   UNK     1      -9.324   9.326  70.575  1.00  0.00    -0.246 NA 
HETATM    3  H   UNK     1      -8.505   8.946  71.050  1.00  0.00     0.000 HD 
HETATM    4  C   UNK     1     -10.550   8.975  71.034  1.00  0.00    -0.271 C  
HETATM    5  N   UNK     1     -10.453   8.306  72.212  1.00  0.00    -0.295 NA 
HETATM    6  N   UNK     1     -11.674   9.211  70.459  1.00  0.00    -0.428 NA 
HETATM    7  H   UNK     1      -9.564   8.265  72.710  1.00  0.00     0.000 HD 
HETATM    8  H2  UNK     1     -11.641   9.710  69.571  1.00  0.00     0.000 HD 
HETATM    9  H1  UNK     1     -12.597   8.947  70.805  1.00  0.00     0.000 HD 
ENDROOT
BRANCH   5  10
HETATM   10  C   UNK     1     -11.633   7.645  72.760  1.00  0.00    -0.281 C  
BRANCH  10  11
HETATM   11  C   UNK     1     -11.955   6.401  71.938  1.00  0.00    -0.381 C  
BRANCH  11  12
HETATM   12  C   UNK     1     -10.682   5.635  71.549  1.00  0.00    -0.306 C  
BRANCH  12  13
HETATM   13  C   UNK     1     -10.086   4.796  72.687  1.00  0.00    -0.176 C  
HETATM   14  C   UNK     1      -9.485   3.494  72.130  1.00  0.00    -0.127 C  
HETATM   15  N   UNK     1      -9.020   5.541  73.413  1.00  0.00    -0.130 NA 
HETATM   16  O   UNK     1     -10.120   2.505  71.811  1.00  0.00    -0.160 OA 
HETATM   17  O   UNK     1      -8.135   3.600  71.995  1.00  0.00    -0.069 OA 
HETATM   18  H1  UNK     1      -8.624   4.983  74.169  1.00  0.00     0.000 HD 
HETATM   19  H2  UNK     1      -9.358   6.442  73.750  1.00  0.00     0.000 HD 
ENDBRANCH  12  13
ENDBRANCH  11  12
ENDBRANCH  10  11
ENDBRANCH   5  10
TORSDOF 4
ENDMDL
MODEL      305
REMARK 921   NORMALIZED FREE ENERGY PREDICTED BY IDOCK:   -2.11 KCAL/MOL
REMARK 922        TOTAL FREE ENERGY PREDICTED BY IDOCK:   -3.04 KCAL/MOL
REMARK 923 INTER-LIGAND FREE ENERGY PREDICTED BY IDOCK:   -2.85 KCAL/MOL
REMARK 924 INTRA-LIGAND FREE ENERGY PREDICTED BY IDOCK:   -0.20 KCAL/MOL
REMARK 927      BINDING AFFINITY PREDICTED BY RF-SCORE:    0.00 PKD
ROOT
HETATM    1  C   UNK     1      -9.157   9.690  65.350  1.00  0.00    -0.215 C  
HETATM    2  N   UNK     1      -9.937   8.994  66.349  1.00  0.00    -0.294 NA 
HETATM    3  H   UNK     1     -10.707   8.406  66.032  1.00  0.00     0.000 HD 
HETATM    4  C   UNK     1      -9.703   9.077  67.682  1.00  0.00    -0.156 C  
HETATM    5  N   UNK     1     -10.453   8.173  68.363  1.00  0.00    -0.316 NA 
HETATM    6  N   UNK     1      -8.902   9.895  68.264  1.00  0.00    -0.119 NA 
HETATM    7  H   UNK     1     -10.964   7.446  67.862  1.00  0.00     0.000 HD 
HETATM    8  H2  UNK     1      -8.392  10.545  67.666  1.00  0.00     0.000 HD 
HETATM    9  H1  UNK     1      -8.727   9.958  69.267  1.00  0.00     0.000 HD 
ENDROOT
BRANCH   5  10
HETATM   10  C   UNK     1     -10.521   8.249  69.819  1.00  0.00    -0.220 C  
BRANCH  10  11
HETATM   11  C   UNK     1     -11.368   7.098  70.356  1.00  0.00    -0.325 C  
BRANCH  11  12
HETATM   12  C   UNK     1     -10.544   5.810  70.501  1.00  0.00    -0.359 C  
BRANCH  12  13
HETATM   13  C   UNK     1      -9.401   5.912  71.519  1.00  0.00    -0.146 C  
HETATM   14  C   UNK     1      -9.946   5.747  72.948  1.00  0.00    -0.176 C  
HETATM   15  N   UNK     1      -8.365   4.869  71.280  1.00  0.00    -0.112 NA 
HETATM   16  O   UNK     1     -10.516   6.611  73.589  1.00  0.00    -0.281 OA 
HETATM   17  O   UNK     1      -9.746   4.479  73.401  1.00  0.00    -0.126 OA 
HETATM   18  H1  UNK     1      -7.605   4.937  71.957  1.00  0.00     0.000 HD 
HETATM   19  H2  UNK     1      -8.016   4.902  70.322  1.00  0.00     0.000 HD 
ENDBRANCH  12  13
ENDBRANCH  11  12
ENDBRANCH  10  11
ENDBRANCH   5  10
TORSDOF 4
ENDMDL
MODEL      306
REMARK 921   NORMALIZED FREE ENERGY PREDICTED BY IDOCK:   -2.11 KCAL/MOL
REMARK 922        TOTAL FREE ENERGY PREDICTED BY IDOCK:   -3.04 KCAL/MOL
REMARK 923 INTER-LIGAND FREE ENERGY PREDICTED BY IDOCK:   -2.75 KCAL/MOL
REMARK 924 INTRA-LIGAND FREE ENERGY PREDICTED BY IDOCK:   -0.29 KCAL/MOL
REMARK 927      BINDING AFFINITY PREDICTED BY RF-SCORE:    0.00 PKD
ROOT
HETATM    1  C   UNK     1      -5.795  12.180  69.195  1.00  0.00    -0.070 C  
HETATM    2  N   UNK     1      -6.309  13.226  68.341  1.00  0.00    -0.078 NA 
HETATM    3  H   UNK     1      -6.384  13.036  67.342  1.00  0.00     0.000 HD 
HETATM    4  C   UNK     1      -6.699  14.444  68.791  1.00  0.00    -0.093 C  
HETATM    5  N   UNK     1      -7.321  15.147  67.809  1.00  0.00    -0.147 NA 
HETATM    6  N   UNK     1      -6.514  14.914  69.971  1.00  0.00    -0.165 NA 
HETATM    7  H   UNK     1      -7.580  14.691  66.934  1.00  0.00     0.000 HD 
HETATM    8  H2  UNK     1      -6.025  14.313  70.635  1.00  0.00     0.000 HD 
HETATM    9  H1  UNK     1      -6.807  15.831  70.310  1.00  0.00     0.000 HD 
ENDROOT
BRANCH   5  10
HETATM   10  C   UNK     1      -7.616  16.561  68.017  1.00  0.00    -0.161 C  
BRANCH  10  11
HETATM   11  C   UNK     1      -9.091  16.827  67.731  1.00  0.00    -0.221 C  
BRANCH  11  12
HETATM   12  C   UNK     1      -9.935  16.771  69.013  1.00  0.00    -0.272 C  
BRANCH  12  13
HETATM   13  C   UNK     1     -10.601  15.412  69.264  1.00  0.00    -0.252 C  
HETATM   14  C   UNK     1     -11.362  15.432  70.600  1.00  0.00    -0.332 C  
HETATM   15  N   UNK     1     -11.556  15.065  68.176  1.00  0.00    -0.337 NA 
HETATM   16  O   UNK     1     -10.855  15.321  71.702  1.00  0.00    -0.202 OA 
HETATM   17  O   UNK     1     -12.693  15.634  70.399  1.00  0.00    -0.425 OA 
HETATM   18  H1  UNK     1     -11.999  14.162  68.343  1.00  0.00     0.000 HD 
HETATM   19  H2  UNK     1     -11.108  15.099  67.261  1.00  0.00     0.000 HD 
ENDBRANCH  12  13
ENDBRANCH  11  12
ENDBRANCH  10  11
ENDBRANCH   5  10
TORSDOF 4
ENDMDL
MODEL      307
REMARK 921   NORMALIZED FREE ENERGY PREDICTED BY IDOCK:   -2.09 KCAL/MOL
REMARK 922        TOTAL FREE ENERGY PREDICTED BY IDOCK:   -3.02 KCAL/MOL
REMARK 923 INTER-LIGAND FREE ENERGY PREDICTED BY IDOCK:   -2.83 KCAL/MOL
REMARK 924 INTRA-LIGAND FREE ENERGY PREDICTED BY IDOCK:   -0.19 KCAL/MOL
REMARK 927      BINDING AFFINITY PREDICTED BY RF-SCORE:    0.00 PKD
ROOT
HETATM    1  C   UNK     1      -6.001   6.788  69.476  1.00  0.00    -0.018 C  
HETATM    2  N   UNK     1      -7.000   7.787  69.169  1.00  0.00    -0.063 NA 
HETATM    3  H   UNK     1      -6.999   8.197  68.235  1.00  0.00     0.000 HD 
HETATM    4  C   UNK     1      -7.940   8.210  70.051  1.00  0.00    -0.105 C  
HETATM    5  N   UNK     1      -8.862   8.997  69.437  1.00  0.00    -0.140 NA 
HETATM    6  N   UNK     1      -7.982   7.939  71.305  1.00  0.00    -0.089 NA 
HETATM    7  H   UNK     1      -8.880   9.070  68.420  1.00  0.00     0.000 HD 
HETATM    8  H2  UNK     1      -7.237   7.349  71.675  1.00  0.00     0.000 HD 
HETATM    9  H1  UNK     1      -8.689   8.257  71.969  1.00  0.00     0.000 HD 
ENDROOT
BRANCH   5  10
HETATM   10  C   UNK     1      -9.825   9.736  70.246  1.00  0.00    -0.240 C  
BRANCH  10  11
HETATM   11  C   UNK     1     -11.149   9.847  69.495  1.00  0.00    -0.255 C  
BRANCH  11  12
HETATM   12  C   UNK     1     -11.050  10.826  68.316  1.00  0.00    -0.327 C  
BRANCH  12  13
HETATM   13  C   UNK     1     -10.731  12.269  68.727  1.00  0.00    -0.214 C  
HETATM   14  C   UNK     1     -10.847  13.206  67.513  1.00  0.00    -0.255 C  
HETATM   15  N   UNK     1     -11.655  12.749  69.791  1.00  0.00    -0.480 NA 
HETATM   16  O   UNK     1     -10.010  13.332  66.637  1.00  0.00    -0.258 OA 
HETATM   17  O   UNK     1     -12.041  13.859  67.515  1.00  0.00    -0.389 OA 
HETATM   18  H1  UNK     1     -11.443  13.709  70.064  1.00  0.00     0.000 HD 
HETATM   19  H2  UNK     1     -11.656  12.123  70.595  1.00  0.00     0.000 HD 
ENDBRANCH  12  13
ENDBRANCH  11  12
ENDBRANCH  10  11
ENDBRANCH   5  10
TORSDOF 4
ENDMDL
MODEL      308
REMARK 921   NORMALIZED FREE ENERGY PREDICTED BY IDOCK:   -2.07 KCAL/MOL
REMARK 922        TOTAL FREE ENERGY PREDICTED BY IDOCK:   -2.99 KCAL/MOL
REMARK 923 INTER-LIGAND FREE ENERGY PREDICTED BY IDOCK:   -3.11 KCAL/MOL
REMARK 924 INTRA-LIGAND FREE ENERGY PREDICTED BY IDOCK:    0.12 KCAL/MOL
REMARK 927      BINDING AFFINITY PREDICTED BY RF-SCORE:    0.00 PKD
ROOT
HETATM    1  C   UNK     1      -6.436  15.501  67.651  1.00  0.00    -0.168 C  
HETATM    2  N   UNK     1      -7.033  14.284  67.152  1.00  0.00    -0.383 NA 
HETATM    3  H   UNK     1      -6.415  13.509  66.911  1.00  0.00     0.000 HD 
HETATM    4  C   UNK     1      -8.368  14.111  66.985  1.00  0.00    -0.118 C  
HETATM    5  N   UNK     1      -8.657  12.815  66.695  1.00  0.00    -0.420 NA 
HETATM    6  N   UNK     1      -9.269  15.022  67.067  1.00  0.00    -0.218 NA 
HETATM    7  H   UNK     1      -7.939  12.096  66.782  1.00  0.00     0.000 HD 
HETATM    8  H2  UNK     1      -8.951  15.968  67.278  1.00  0.00     0.000 HD 
HETATM    9  H1  UNK     1     -10.273  14.893  66.942  1.00  0.00     0.000 HD 
ENDROOT
BRANCH   5  10
HETATM   10  C   UNK     1     -10.004  12.462  66.258  1.00  0.00    -0.246 C  
BRANCH  10  11
HETATM   11  C   UNK     1     -10.099  10.953  66.053  1.00  0.00    -0.303 C  
BRANCH  11  12
HETATM   12  C   UNK     1     -10.990  10.293  67.116  1.00  0.00    -0.233 C  
BRANCH  12  13
HETATM   13  C   UNK     1     -10.426   8.981  67.677  1.00  0.00    -0.260 C  
HETATM   14  C   UNK     1      -8.893   8.966  67.554  1.00  0.00    -0.130 C  
HETATM   15  N   UNK     1     -10.792   8.798  69.108  1.00  0.00    -0.412 NA 
HETATM   16  O   UNK     1      -8.269   8.731  66.534  1.00  0.00    -0.108 OA 
HETATM   17  O   UNK     1      -8.307   9.295  68.737  1.00  0.00    -0.114 OA 
HETATM   18  H1  UNK     1     -10.417   7.926  69.480  1.00  0.00     0.000 HD 
HETATM   19  H2  UNK     1     -11.800   8.861  69.247  1.00  0.00     0.000 HD 
ENDBRANCH  12  13
ENDBRANCH  11  12
ENDBRANCH  10  11
ENDBRANCH   5  10
TORSDOF 4
ENDMDL
MODEL      309
REMARK 921   NORMALIZED FREE ENERGY PREDICTED BY IDOCK:   -2.07 KCAL/MOL
REMARK 922        TOTAL FREE ENERGY PREDICTED BY IDOCK:   -2.99 KCAL/MOL
REMARK 923 INTER-LIGAND FREE ENERGY PREDICTED BY IDOCK:   -2.82 KCAL/MOL
REMARK 924 INTRA-LIGAND FREE ENERGY PREDICTED BY IDOCK:   -0.17 KCAL/MOL
REMARK 927      BINDING AFFINITY PREDICTED BY RF-SCORE:    0.00 PKD
ROOT
HETATM    1  C   UNK     1      -6.960  10.120  63.079  1.00  0.00    -0.133 C  
HETATM    2  N   UNK     1      -8.128  10.306  63.909  1.00  0.00    -0.189 NA 
HETATM    3  H   UNK     1      -9.004  10.565  63.454  1.00  0.00     0.000 HD 
HETATM    4  C   UNK     1      -8.129  10.157  65.257  1.00  0.00    -0.151 C  
HETATM    5  N   UNK     1      -9.394  10.196  65.749  1.00  0.00    -0.175 NA 
HETATM    6  N   UNK     1      -7.096  10.011  66.006  1.00  0.00    -0.105 NA 
HETATM    7  H   UNK     1     -10.194  10.166  65.116  1.00  0.00     0.000 HD 
HETATM    8  H2  UNK     1      -6.187  10.006  65.543  1.00  0.00     0.000 HD 
HETATM    9  H1  UNK     1      -7.096   9.899  67.020  1.00  0.00     0.000 HD 
ENDROOT
BRANCH   5  10
HETATM   10  C   UNK     1      -9.600  10.280  67.191  1.00  0.00    -0.168 C  
BRANCH  10  11
HETATM   11  C   UNK     1     -10.720   9.331  67.608  1.00  0.00    -0.276 C  
BRANCH  11  12
HETATM   12  C   UNK     1     -10.314   8.475  68.817  1.00  0.00    -0.233 C  
BRANCH  12  13
HETATM   13  C   UNK     1     -10.173   6.980  68.504  1.00  0.00    -0.172 C  
HETATM   14  C   UNK     1      -9.926   6.187  69.799  1.00  0.00    -0.170 C  
HETATM   15  N   UNK     1     -11.394   6.444  67.842  1.00  0.00    -0.625 NA 
HETATM   16  O   UNK     1      -8.860   6.106  70.384  1.00  0.00    -0.146 OA 
HETATM   17  O   UNK     1     -11.076   5.610  70.242  1.00  0.00    -0.278 OA 
HETATM   18  H1  UNK     1     -11.299   5.450  67.634  1.00  0.00     0.000 HD 
HETATM   19  H2  UNK     1     -11.631   6.979  67.007  1.00  0.00     0.000 HD 
ENDBRANCH  12  13
ENDBRANCH  11  12
ENDBRANCH  10  11
ENDBRANCH   5  10
TORSDOF 4
ENDMDL
MODEL      310
REMARK 921   NORMALIZED FREE ENERGY PREDICTED BY IDOCK:   -2.05 KCAL/MOL
REMARK 922        TOTAL FREE ENERGY PREDICTED BY IDOCK:   -2.97 KCAL/MOL
REMARK 923 INTER-LIGAND FREE ENERGY PREDICTED BY IDOCK:   -2.12 KCAL/MOL
REMARK 924 INTRA-LIGAND FREE ENERGY PREDICTED BY IDOCK:   -0.85 KCAL/MOL
REMARK 927      BINDING AFFINITY PREDICTED BY RF-SCORE:    0.00 PKD
ROOT
HETATM    1  C   UNK     1     -10.840   6.286  67.056  1.00  0.00    -0.383 C  
HETATM    2  N   UNK     1     -10.088   5.059  66.925  1.00  0.00    -0.209 NA 
HETATM    3  H   UNK     1      -9.497   4.772  67.705  1.00  0.00     0.000 HD 
HETATM    4  C   UNK     1     -10.122   4.267  65.824  1.00  0.00    -0.212 C  
HETATM    5  N   UNK     1      -9.483   3.091  66.053  1.00  0.00    -0.364 NA 
HETATM    6  N   UNK     1     -10.662   4.556  64.695  1.00  0.00    -0.508 NA 
HETATM    7  H   UNK     1      -9.196   2.836  66.999  1.00  0.00     0.000 HD 
HETATM    8  H2  UNK     1     -11.109   5.470  64.619  1.00  0.00     0.000 HD 
HETATM    9  H1  UNK     1     -10.688   3.961  63.868  1.00  0.00     0.000 HD 
ENDROOT
BRANCH   5  10
HETATM   10  C   UNK     1      -9.209   2.194  64.935  1.00  0.00    -0.120 C  
BRANCH  10  11
HETATM   11  C   UNK     1      -7.702   2.050  64.747  1.00  0.00    -0.068 C  
BRANCH  11  12
HETATM   12  C   UNK     1      -7.082   3.323  64.152  1.00  0.00    -0.053 C  
BRANCH  12  13
HETATM   13  C   UNK     1      -6.175   4.089  65.125  1.00  0.00    -0.027 C  
HETATM   14  C   UNK     1      -6.438   5.601  65.018  1.00  0.00    -0.042 C  
HETATM   15  N   UNK     1      -6.403   3.663  66.533  1.00  0.00    -0.035 NA 
HETATM   16  O   UNK     1      -6.015   6.331  64.139  1.00  0.00    -0.022 OA 
HETATM   17  O   UNK     1      -7.253   6.024  66.023  1.00  0.00    -0.072 OA 
HETATM   18  H1  UNK     1      -5.800   4.172  67.179  1.00  0.00     0.000 HD 
HETATM   19  H2  UNK     1      -6.297   2.654  66.639  1.00  0.00     0.000 HD 
ENDBRANCH  12  13
ENDBRANCH  11  12
ENDBRANCH  10  11
ENDBRANCH   5  10
TORSDOF 4
ENDMDL
MODEL      311
REMARK 921   NORMALIZED FREE ENERGY PREDICTED BY IDOCK:   -2.04 KCAL/MOL
REMARK 922        TOTAL FREE ENERGY PREDICTED BY IDOCK:   -2.96 KCAL/MOL
REMARK 923 INTER-LIGAND FREE ENERGY PREDICTED BY IDOCK:   -2.77 KCAL/MOL
REMARK 924 INTRA-LIGAND FREE ENERGY PREDICTED BY IDOCK:   -0.18 KCAL/MOL
REMARK 927      BINDING AFFINITY PREDICTED BY RF-SCORE:    0.00 PKD
ROOT
HETATM    1  C   UNK     1      -6.469  10.143  63.622  1.00  0.00    -0.127 C  
HETATM    2  N   UNK     1      -7.415  10.349  64.695  1.00  0.00    -0.308 NA 
HETATM    3  H   UNK     1      -8.149  11.044  64.561  1.00  0.00     0.000 HD 
HETATM    4  C   UNK     1      -7.383   9.671  65.869  1.00  0.00    -0.099 C  
HETATM    5  N   UNK     1      -8.498   9.922  66.604  1.00  0.00    -0.124 NA 
HETATM    6  N   UNK     1      -6.441   8.900  66.277  1.00  0.00    -0.065 NA 
HETATM    7  H   UNK     1      -9.287  10.418  66.189  1.00  0.00     0.000 HD 
HETATM    8  H2  UNK     1      -5.638   8.785  65.658  1.00  0.00     0.000 HD 
HETATM    9  H1  UNK     1      -6.416   8.391  67.160  1.00  0.00     0.000 HD 
ENDROOT
BRANCH   5  10
HETATM   10  C   UNK     1      -8.558   9.473  67.991  1.00  0.00    -0.120 C  
BRANCH  10  11
HETATM   11  C   UNK     1      -9.678   8.449  68.153  1.00  0.00    -0.175 C  
BRANCH  11  12
HETATM   12  C   UNK     1      -9.368   7.443  69.271  1.00  0.00    -0.154 C  
BRANCH  12  13
HETATM   13  C   UNK     1     -10.544   7.183  70.221  1.00  0.00    -0.227 C  
HETATM   14  C   UNK     1     -10.862   8.450  71.032  1.00  0.00    -0.238 C  
HETATM   15  N   UNK     1     -11.766   6.774  69.475  1.00  0.00    -0.637 NA 
HETATM   16  O   UNK     1     -10.239   8.840  72.004  1.00  0.00    -0.315 OA 
HETATM   17  O   UNK     1     -11.921   9.117  70.496  1.00  0.00    -0.186 OA 
HETATM   18  H1  UNK     1     -12.548   6.601  70.107  1.00  0.00     0.000 HD 
HETATM   19  H2  UNK     1     -11.585   5.970  68.875  1.00  0.00     0.000 HD 
ENDBRANCH  12  13
ENDBRANCH  11  12
ENDBRANCH  10  11
ENDBRANCH   5  10
TORSDOF 4
ENDMDL
MODEL      312
REMARK 921   NORMALIZED FREE ENERGY PREDICTED BY IDOCK:   -2.03 KCAL/MOL
REMARK 922        TOTAL FREE ENERGY PREDICTED BY IDOCK:   -2.95 KCAL/MOL
REMARK 923 INTER-LIGAND FREE ENERGY PREDICTED BY IDOCK:   -2.72 KCAL/MOL
REMARK 924 INTRA-LIGAND FREE ENERGY PREDICTED BY IDOCK:   -0.22 KCAL/MOL
REMARK 927      BINDING AFFINITY PREDICTED BY RF-SCORE:    0.00 PKD
ROOT
HETATM    1  C   UNK     1     -12.292  11.459  70.212  1.00  0.00    -0.297 C  
HETATM    2  N   UNK     1     -11.753  10.413  69.373  1.00  0.00    -0.446 NA 
HETATM    3  H   UNK     1     -11.731   9.463  69.745  1.00  0.00     0.000 HD 
HETATM    4  C   UNK     1     -11.276  10.620  68.121  1.00  0.00    -0.302 C  
HETATM    5  N   UNK     1     -11.022   9.440  67.498  1.00  0.00    -0.445 NA 
HETATM    6  N   UNK     1     -11.064  11.759  67.567  1.00  0.00    -0.254 NA 
HETATM    7  H   UNK     1     -11.338   8.562  67.909  1.00  0.00     0.000 HD 
HETATM    8  H2  UNK     1     -11.275  12.588  68.122  1.00  0.00     0.000 HD 
HETATM    9  H1  UNK     1     -10.704  11.915  66.625  1.00  0.00     0.000 HD 
ENDROOT
BRANCH   5  10
HETATM   10  C   UNK     1     -10.294   9.440  66.233  1.00  0.00    -0.141 C  
BRANCH  10  11
HETATM   11  C   UNK     1      -8.995   8.654  66.387  1.00  0.00    -0.197 C  
BRANCH  11  12
HETATM   12  C   UNK     1      -9.162   7.468  67.348  1.00  0.00    -0.149 C  
BRANCH  12  13
HETATM   13  C   UNK     1      -7.961   6.514  67.378  1.00  0.00    -0.113 C  
HETATM   14  C   UNK     1      -8.441   5.053  67.342  1.00  0.00    -0.105 C  
HETATM   15  N   UNK     1      -7.053   6.746  66.221  1.00  0.00    -0.065 NA 
HETATM   16  O   UNK     1      -8.883   4.433  68.294  1.00  0.00    -0.098 OA 
HETATM   17  O   UNK     1      -8.349   4.541  66.085  1.00  0.00    -0.112 OA 
HETATM   18  H1  UNK     1      -6.255   6.111  66.240  1.00  0.00     0.000 HD 
HETATM   19  H2  UNK     1      -6.756   7.720  66.169  1.00  0.00     0.000 HD 
ENDBRANCH  12  13
ENDBRANCH  11  12
ENDBRANCH  10  11
ENDBRANCH   5  10
TORSDOF 4
ENDMDL
MODEL      313
REMARK 921   NORMALIZED FREE ENERGY PREDICTED BY IDOCK:   -2.01 KCAL/MOL
REMARK 922        TOTAL FREE ENERGY PREDICTED BY IDOCK:   -2.92 KCAL/MOL
REMARK 923 INTER-LIGAND FREE ENERGY PREDICTED BY IDOCK:   -2.29 KCAL/MOL
REMARK 924 INTRA-LIGAND FREE ENERGY PREDICTED BY IDOCK:   -0.63 KCAL/MOL
REMARK 927      BINDING AFFINITY PREDICTED BY RF-SCORE:    0.00 PKD
ROOT
HETATM    1  C   UNK     1      -6.526  15.318  67.834  1.00  0.00    -0.156 C  
HETATM    2  N   UNK     1      -6.713  13.886  67.905  1.00  0.00    -0.143 NA 
HETATM    3  H   UNK     1      -5.888  13.291  67.844  1.00  0.00     0.000 HD 
HETATM    4  C   UNK     1      -7.923  13.289  68.046  1.00  0.00    -0.152 C  
HETATM    5  N   UNK     1      -7.782  11.959  68.283  1.00  0.00    -0.120 NA 
HETATM    6  N   UNK     1      -9.069  13.863  67.961  1.00  0.00    -0.185 NA 
HETATM    7  H   UNK     1      -6.863  11.567  68.488  1.00  0.00     0.000 HD 
HETATM    8  H2  UNK     1      -9.070  14.865  67.769  1.00  0.00     0.000 HD 
HETATM    9  H1  UNK     1      -9.978  13.414  68.068  1.00  0.00     0.000 HD 
ENDROOT
BRANCH   5  10
HETATM   10  C   UNK     1      -8.958  11.096  68.240  1.00  0.00    -0.166 C  
BRANCH  10  11
HETATM   11  C   UNK     1      -8.913  10.227  66.987  1.00  0.00    -0.147 C  
BRANCH  11  12
HETATM   12  C   UNK     1      -9.857  10.758  65.897  1.00  0.00    -0.290 C  
BRANCH  12  13
HETATM   13  C   UNK     1      -9.194  11.740  64.922  1.00  0.00     0.154 C  
HETATM   14  C   UNK     1      -9.215  11.168  63.495  1.00  0.00    -0.186 C  
HETATM   15  N   UNK     1      -9.890  13.057  64.919  1.00  0.00    -0.545 NA 
HETATM   16  O   UNK     1      -8.455  10.319  63.064  1.00  0.00    -0.157 OA 
HETATM   17  O   UNK     1     -10.233  11.707  62.770  1.00  0.00    -0.198 OA 
HETATM   18  H1  UNK     1      -9.449  13.709  64.271  1.00  0.00     0.000 HD 
HETATM   19  H2  UNK     1      -9.953  13.448  65.859  1.00  0.00     0.000 HD 
ENDBRANCH  12  13
ENDBRANCH  11  12
ENDBRANCH  10  11
ENDBRANCH   5  10
TORSDOF 4
ENDMDL
MODEL      314
REMARK 921   NORMALIZED FREE ENERGY PREDICTED BY IDOCK:   -1.99 KCAL/MOL
REMARK 922        TOTAL FREE ENERGY PREDICTED BY IDOCK:   -2.89 KCAL/MOL
REMARK 923 INTER-LIGAND FREE ENERGY PREDICTED BY IDOCK:   -2.68 KCAL/MOL
REMARK 924 INTRA-LIGAND FREE ENERGY PREDICTED BY IDOCK:   -0.21 KCAL/MOL
REMARK 927      BINDING AFFINITY PREDICTED BY RF-SCORE:    0.00 PKD
ROOT
HETATM    1  C   UNK     1      -5.656  13.877  70.700  1.00  0.00    -0.161 C  
HETATM    2  N   UNK     1      -6.223  12.570  70.455  1.00  0.00    -0.501 NA 
HETATM    3  H   UNK     1      -5.901  11.792  71.030  1.00  0.00     0.000 HD 
HETATM    4  C   UNK     1      -7.158  12.319  69.506  1.00  0.00     0.223 C  
HETATM    5  N   UNK     1      -7.651  11.060  69.631  1.00  0.00    -0.367 NA 
HETATM    6  N   UNK     1      -7.544  13.128  68.586  1.00  0.00    -0.209 NA 
HETATM    7  H   UNK     1      -7.430  10.500  70.455  1.00  0.00     0.000 HD 
HETATM    8  H2  UNK     1      -7.106  14.049  68.568  1.00  0.00     0.000 HD 
HETATM    9  H1  UNK     1      -8.248  12.940  67.872  1.00  0.00     0.000 HD 
ENDROOT
BRANCH   5  10
HETATM   10  C   UNK     1      -8.499  10.514  68.576  1.00  0.00    -0.131 C  
BRANCH  10  11
HETATM   11  C   UNK     1      -9.865  10.151  69.151  1.00  0.00    -0.225 C  
BRANCH  11  12
HETATM   12  C   UNK     1     -10.301   8.741  68.726  1.00  0.00    -0.234 C  
BRANCH  12  13
HETATM   13  C   UNK     1     -10.468   7.761  69.895  1.00  0.00    -0.232 C  
HETATM   14  C   UNK     1      -9.174   7.698  70.725  1.00  0.00    -0.157 C  
HETATM   15  N   UNK     1     -11.588   8.164  70.788  1.00  0.00    -0.362 NA 
HETATM   16  O   UNK     1      -8.171   7.075  70.422  1.00  0.00    -0.120 OA 
HETATM   17  O   UNK     1      -9.274   8.472  71.840  1.00  0.00    -0.209 OA 
HETATM   18  H1  UNK     1     -11.699   7.513  71.565  1.00  0.00     0.000 HD 
HETATM   19  H2  UNK     1     -12.458   8.277  70.268  1.00  0.00     0.000 HD 
ENDBRANCH  12  13
ENDBRANCH  11  12
ENDBRANCH  10  11
ENDBRANCH   5  10
TORSDOF 4
ENDMDL
MODEL      315
REMARK 921   NORMALIZED FREE ENERGY PREDICTED BY IDOCK:   -1.96 KCAL/MOL
REMARK 922        TOTAL FREE ENERGY PREDICTED BY IDOCK:   -2.86 KCAL/MOL
REMARK 923 INTER-LIGAND FREE ENERGY PREDICTED BY IDOCK:   -2.57 KCAL/MOL
REMARK 924 INTRA-LIGAND FREE ENERGY PREDICTED BY IDOCK:   -0.29 KCAL/MOL
REMARK 927      BINDING AFFINITY PREDICTED BY RF-SCORE:    0.00 PKD
ROOT
HETATM    1  C   UNK     1      -7.712  10.165  65.824  1.00  0.00    -0.136 C  
HETATM    2  N   UNK     1      -8.460   9.476  66.850  1.00  0.00    -0.127 NA 
HETATM    3  H   UNK     1      -8.281   8.482  66.990  1.00  0.00     0.000 HD 
HETATM    4  C   UNK     1      -9.387  10.074  67.639  1.00  0.00    -0.144 C  
HETATM    5  N   UNK     1      -9.782   9.244  68.639  1.00  0.00    -0.148 NA 
HETATM    6  N   UNK     1      -9.863  11.258  67.490  1.00  0.00    -0.177 NA 
HETATM    7  H   UNK     1      -9.280   8.373  68.814  1.00  0.00     0.000 HD 
HETATM    8  H2  UNK     1      -9.511  11.800  66.701  1.00  0.00     0.000 HD 
HETATM    9  H1  UNK     1     -10.560  11.708  68.083  1.00  0.00     0.000 HD 
ENDROOT
BRANCH   5  10
HETATM   10  C   UNK     1     -10.932   9.608  69.460  1.00  0.00    -0.208 C  
BRANCH  10  11
HETATM   11  C   UNK     1     -10.592   9.415  70.936  1.00  0.00    -0.390 C  
BRANCH  11  12
HETATM   12  C   UNK     1     -10.694   7.940  71.351  1.00  0.00    -0.258 C  
BRANCH  12  13
HETATM   13  C   UNK     1      -9.486   7.431  72.148  1.00  0.00    -0.139 C  
HETATM   14  C   UNK     1      -8.187   8.029  71.584  1.00  0.00    -0.119 C  
HETATM   15  N   UNK     1      -9.592   7.793  73.589  1.00  0.00    -0.296 NA 
HETATM   16  O   UNK     1      -7.612   7.647  70.580  1.00  0.00    -0.077 OA 
HETATM   17  O   UNK     1      -7.772   9.086  72.335  1.00  0.00    -0.346 OA 
HETATM   18  H1  UNK     1      -8.789   7.454  74.118  1.00  0.00     0.000 HD 
HETATM   19  H2  UNK     1     -10.471   7.467  73.992  1.00  0.00     0.000 HD 
ENDBRANCH  12  13
ENDBRANCH  11  12
ENDBRANCH  10  11
ENDBRANCH   5  10
TORSDOF 4
ENDMDL
MODEL      316
REMARK 921   NORMALIZED FREE ENERGY PREDICTED BY IDOCK:   -1.93 KCAL/MOL
REMARK 922        TOTAL FREE ENERGY PREDICTED BY IDOCK:   -2.82 KCAL/MOL
REMARK 923 INTER-LIGAND FREE ENERGY PREDICTED BY IDOCK:   -2.55 KCAL/MOL
REMARK 924 INTRA-LIGAND FREE ENERGY PREDICTED BY IDOCK:   -0.28 KCAL/MOL
REMARK 927      BINDING AFFINITY PREDICTED BY RF-SCORE:    0.00 PKD
ROOT
HETATM    1  C   UNK     1      -9.101   2.726  72.511  1.00  0.00    -0.083 C  
HETATM    2  N   UNK     1      -8.511   3.969  72.068  1.00  0.00    -0.102 NA 
HETATM    3  H   UNK     1      -7.758   4.369  72.627  1.00  0.00     0.000 HD 
HETATM    4  C   UNK     1      -8.900   4.634  70.952  1.00  0.00    -0.114 C  
HETATM    5  N   UNK     1      -8.048   5.655  70.673  1.00  0.00    -0.114 NA 
HETATM    6  N   UNK     1      -9.934   4.377  70.234  1.00  0.00    -0.213 NA 
HETATM    7  H   UNK     1      -7.163   5.738  71.175  1.00  0.00     0.000 HD 
HETATM    8  H2  UNK     1     -10.519   3.596  70.533  1.00  0.00     0.000 HD 
HETATM    9  H1  UNK     1     -10.227   4.876  69.395  1.00  0.00     0.000 HD 
ENDROOT
BRANCH   5  10
HETATM   10  C   UNK     1      -8.408   6.630  69.649  1.00  0.00    -0.132 C  
BRANCH  10  11
HETATM   11  C   UNK     1      -9.070   7.840  70.302  1.00  0.00    -0.152 C  
BRANCH  11  12
HETATM   12  C   UNK     1     -10.540   7.977  69.878  1.00  0.00    -0.242 C  
BRANCH  12  13
HETATM   13  C   UNK     1     -11.424   8.689  70.911  1.00  0.00    -0.275 C  
HETATM   14  C   UNK     1     -11.850   7.705  72.014  1.00  0.00    -0.301 C  
HETATM   15  N   UNK     1     -10.710   9.833  71.543  1.00  0.00    -0.099 NA 
HETATM   16  O   UNK     1     -12.736   6.874  71.914  1.00  0.00    -0.336 OA 
HETATM   17  O   UNK     1     -11.073   7.850  73.122  1.00  0.00    -0.382 OA 
HETATM   18  H1  UNK     1     -11.297  10.305  72.230  1.00  0.00     0.000 HD 
HETATM   19  H2  UNK     1     -10.355  10.484  70.843  1.00  0.00     0.000 HD 
ENDBRANCH  12  13
ENDBRANCH  11  12
ENDBRANCH  10  11
ENDBRANCH   5  10
TORSDOF 4
ENDMDL
MODEL      317
REMARK 921   NORMALIZED FREE ENERGY PREDICTED BY IDOCK:   -1.91 KCAL/MOL
REMARK 922        TOTAL FREE ENERGY PREDICTED BY IDOCK:   -2.79 KCAL/MOL
REMARK 923 INTER-LIGAND FREE ENERGY PREDICTED BY IDOCK:   -2.91 KCAL/MOL
REMARK 924 INTRA-LIGAND FREE ENERGY PREDICTED BY IDOCK:    0.12 KCAL/MOL
REMARK 927      BINDING AFFINITY PREDICTED BY RF-SCORE:    0.00 PKD
ROOT
HETATM    1  C   UNK     1     -10.307  11.797  67.936  1.00  0.00    -0.193 C  
HETATM    2  N   UNK     1      -9.431  11.272  68.959  1.00  0.00    -0.398 NA 
HETATM    3  H   UNK     1      -8.701  11.883  69.325  1.00  0.00     0.000 HD 
HETATM    4  C   UNK     1      -9.524  10.016  69.460  1.00  0.00    -0.226 C  
HETATM    5  N   UNK     1      -8.713   9.862  70.539  1.00  0.00    -0.353 NA 
HETATM    6  N   UNK     1     -10.256   9.066  69.001  1.00  0.00    -0.200 NA 
HETATM    7  H   UNK     1      -8.261  10.673  70.962  1.00  0.00     0.000 HD 
HETATM    8  H2  UNK     1     -10.823   9.276  68.179  1.00  0.00     0.000 HD 
HETATM    9  H1  UNK     1     -10.327   8.120  69.377  1.00  0.00     0.000 HD 
ENDROOT
BRANCH   5  10
HETATM   10  C   UNK     1      -8.494   8.528  71.087  1.00  0.00    -0.156 C  
BRANCH  10  11
HETATM   11  C   UNK     1      -9.326   8.349  72.353  1.00  0.00    -0.356 C  
BRANCH  11  12
HETATM   12  C   UNK     1      -8.485   7.781  73.507  1.00  0.00    -0.259 C  
BRANCH  12  13
HETATM   13  C   UNK     1      -8.903   6.372  73.949  1.00  0.00    -0.127 C  
HETATM   14  C   UNK     1     -10.052   5.857  73.066  1.00  0.00    -0.181 C  
HETATM   15  N   UNK     1      -7.767   5.415  73.861  1.00  0.00    -0.097 NA 
HETATM   16  O   UNK     1     -11.223   6.176  73.175  1.00  0.00    -0.221 OA 
HETATM   17  O   UNK     1      -9.585   5.017  72.102  1.00  0.00    -0.145 OA 
HETATM   18  H1  UNK     1      -8.045   4.478  74.155  1.00  0.00     0.000 HD 
HETATM   19  H2  UNK     1      -6.957   5.746  74.385  1.00  0.00     0.000 HD 
ENDBRANCH  12  13
ENDBRANCH  11  12
ENDBRANCH  10  11
ENDBRANCH   5  10
TORSDOF 4
ENDMDL
MODEL      318
REMARK 921   NORMALIZED FREE ENERGY PREDICTED BY IDOCK:   -1.89 KCAL/MOL
REMARK 922        TOTAL FREE ENERGY PREDICTED BY IDOCK:   -2.77 KCAL/MOL
REMARK 923 INTER-LIGAND FREE ENERGY PREDICTED BY IDOCK:   -2.21 KCAL/MOL
REMARK 924 INTRA-LIGAND FREE ENERGY PREDICTED BY IDOCK:   -0.55 KCAL/MOL
REMARK 927      BINDING AFFINITY PREDICTED BY RF-SCORE:    0.00 PKD
ROOT
HETATM    1  C   UNK     1      -8.426   8.073  73.825  1.00  0.00    -0.257 C  
HETATM    2  N   UNK     1      -8.667   7.878  72.413  1.00  0.00    -0.137 NA 
HETATM    3  H   UNK     1      -7.903   7.517  71.841  1.00  0.00     0.000 HD 
HETATM    4  C   UNK     1      -9.849   8.146  71.804  1.00  0.00    -0.194 C  
HETATM    5  N   UNK     1      -9.852   7.684  70.527  1.00  0.00    -0.183 NA 
HETATM    6  N   UNK     1     -10.849   8.762  72.323  1.00  0.00    -0.324 NA 
HETATM    7  H   UNK     1      -9.103   7.075  70.198  1.00  0.00     0.000 HD 
HETATM    8  H2  UNK     1     -10.745   9.080  73.287  1.00  0.00     0.000 HD 
HETATM    9  H1  UNK     1     -11.738   8.963  71.866  1.00  0.00     0.000 HD 
ENDROOT
BRANCH   5  10
HETATM   10  C   UNK     1     -10.938   8.066  69.630  1.00  0.00    -0.101 C  
BRANCH  10  11
HETATM   11  C   UNK     1     -10.362   8.704  68.368  1.00  0.00    -0.239 C  
BRANCH  11  12
HETATM   12  C   UNK     1     -10.030  10.188  68.586  1.00  0.00    -0.181 C  
BRANCH  12  13
HETATM   13  C   UNK     1      -8.570  10.552  68.286  1.00  0.00    -0.127 C  
HETATM   14  C   UNK     1      -7.625   9.746  69.192  1.00  0.00    -0.085 C  
HETATM   15  N   UNK     1      -8.221  10.274  66.865  1.00  0.00    -0.122 NA 
HETATM   16  O   UNK     1      -7.385   9.995  70.361  1.00  0.00    -0.190 OA 
HETATM   17  O   UNK     1      -7.110   8.675  68.528  1.00  0.00    -0.070 OA 
HETATM   18  H1  UNK     1      -7.251  10.516  66.666  1.00  0.00     0.000 HD 
HETATM   19  H2  UNK     1      -8.863  10.742  66.225  1.00  0.00     0.000 HD 
ENDBRANCH  12  13
ENDBRANCH  11  12
ENDBRANCH  10  11
ENDBRANCH   5  10
TORSDOF 4
ENDMDL
MODEL      319
REMARK 921   NORMALIZED FREE ENERGY PREDICTED BY IDOCK:   -1.89 KCAL/MOL
REMARK 922        TOTAL FREE ENERGY PREDICTED BY IDOCK:   -2.76 KCAL/MOL
REMARK 923 INTER-LIGAND FREE ENERGY PREDICTED BY IDOCK:   -2.44 KCAL/MOL
REMARK 924 INTRA-LIGAND FREE ENERGY PREDICTED BY IDOCK:   -0.32 KCAL/MOL
REMARK 927      BINDING AFFINITY PREDICTED BY RF-SCORE:    0.00 PKD
ROOT
HETATM    1  C   UNK     1      -6.897   7.881  74.561  1.00  0.00    -0.124 C  
HETATM    2  N   UNK     1      -8.094   7.179  74.157  1.00  0.00    -0.123 NA 
HETATM    3  H   UNK     1      -8.298   6.283  74.600  1.00  0.00     0.000 HD 
HETATM    4  C   UNK     1      -8.961   7.642  73.222  1.00  0.00    -0.205 C  
HETATM    5  N   UNK     1     -10.087   6.883  73.187  1.00  0.00    -0.194 NA 
HETATM    6  N   UNK     1      -8.776   8.647  72.445  1.00  0.00    -0.390 NA 
HETATM    7  H   UNK     1     -10.262   6.188  73.913  1.00  0.00     0.000 HD 
HETATM    8  H2  UNK     1      -7.891   9.147  72.539  1.00  0.00     0.000 HD 
HETATM    9  H1  UNK     1      -9.427   8.996  71.742  1.00  0.00     0.000 HD 
ENDROOT
BRANCH   5  10
HETATM   10  C   UNK     1     -11.045   7.072  72.103  1.00  0.00    -0.245 C  
BRANCH  10  11
HETATM   11  C   UNK     1     -11.065   5.833  71.212  1.00  0.00    -0.267 C  
BRANCH  11  12
HETATM   12  C   UNK     1     -10.156   4.725  71.764  1.00  0.00    -0.261 C  
BRANCH  12  13
HETATM   13  C   UNK     1      -8.938   4.420  70.883  1.00  0.00    -0.112 C  
HETATM   14  C   UNK     1      -9.378   3.688  69.604  1.00  0.00    -0.173 C  
HETATM   15  N   UNK     1      -8.219   5.665  70.497  1.00  0.00    -0.114 NA 
HETATM   16  O   UNK     1      -9.656   2.504  69.529  1.00  0.00    -0.100 OA 
HETATM   17  O   UNK     1      -9.460   4.550  68.554  1.00  0.00    -0.135 OA 
HETATM   18  H1  UNK     1      -7.409   5.461  69.911  1.00  0.00     0.000 HD 
HETATM   19  H2  UNK     1      -7.959   6.215  71.315  1.00  0.00     0.000 HD 
ENDBRANCH  12  13
ENDBRANCH  11  12
ENDBRANCH  10  11
ENDBRANCH   5  10
TORSDOF 4
ENDMDL
MODEL      320
REMARK 921   NORMALIZED FREE ENERGY PREDICTED BY IDOCK:   -1.85 KCAL/MOL
REMARK 922        TOTAL FREE ENERGY PREDICTED BY IDOCK:   -2.72 KCAL/MOL
REMARK 923 INTER-LIGAND FREE ENERGY PREDICTED BY IDOCK:   -2.30 KCAL/MOL
REMARK 924 INTRA-LIGAND FREE ENERGY PREDICTED BY IDOCK:   -0.42 KCAL/MOL
REMARK 927      BINDING AFFINITY PREDICTED BY RF-SCORE:    0.00 PKD
ROOT
HETATM    1  C   UNK     1      -5.255  10.168  74.527  1.00  0.00    -0.024 C  
HETATM    2  N   UNK     1      -6.390   9.320  74.237  1.00  0.00    -0.346 NA 
HETATM    3  H   UNK     1      -7.288   9.561  74.654  1.00  0.00     0.000 HD 
HETATM    4  C   UNK     1      -6.328   8.222  73.443  1.00  0.00    -0.102 C  
HETATM    5  N   UNK     1      -7.571   7.738  73.188  1.00  0.00    -0.107 NA 
HETATM    6  N   UNK     1      -5.261   7.674  72.984  1.00  0.00    -0.037 NA 
HETATM    7  H   UNK     1      -8.397   8.279  73.445  1.00  0.00     0.000 HD 
HETATM    8  H2  UNK     1      -4.373   8.106  73.242  1.00  0.00     0.000 HD 
HETATM    9  H1  UNK     1      -5.214   6.849  72.387  1.00  0.00     0.000 HD 
ENDROOT
BRANCH   5  10
HETATM   10  C   UNK     1      -7.715   6.437  72.543  1.00  0.00    -0.101 C  
BRANCH  10  11
HETATM   11  C   UNK     1      -8.360   6.611  71.171  1.00  0.00    -0.125 C  
BRANCH  11  12
HETATM   12  C   UNK     1      -9.687   5.844  71.069  1.00  0.00    -0.209 C  
BRANCH  12  13
HETATM   13  C   UNK     1     -10.871   6.554  71.738  1.00  0.00    -0.238 C  
HETATM   14  C   UNK     1     -11.115   5.974  73.141  1.00  0.00    -0.203 C  
HETATM   15  N   UNK     1     -10.629   8.018  71.862  1.00  0.00    -0.231 NA 
HETATM   16  O   UNK     1     -11.684   4.924  73.381  1.00  0.00    -0.265 OA 
HETATM   17  O   UNK     1     -10.570   6.773  74.099  1.00  0.00    -0.312 OA 
HETATM   18  H1  UNK     1     -11.416   8.490  72.306  1.00  0.00     0.000 HD 
HETATM   19  H2  UNK     1     -10.403   8.437  70.960  1.00  0.00     0.000 HD 
ENDBRANCH  12  13
ENDBRANCH  11  12
ENDBRANCH  10  11
ENDBRANCH   5  10
TORSDOF 4
ENDMDL
MODEL      321
REMARK 921   NORMALIZED FREE ENERGY PREDICTED BY IDOCK:   -1.84 KCAL/MOL
REMARK 922        TOTAL FREE ENERGY PREDICTED BY IDOCK:   -2.71 KCAL/MOL
REMARK 923 INTER-LIGAND FREE ENERGY PREDICTED BY IDOCK:   -1.96 KCAL/MOL
REMARK 924 INTRA-LIGAND FREE ENERGY PREDICTED BY IDOCK:   -0.75 KCAL/MOL
REMARK 927      BINDING AFFINITY PREDICTED BY RF-SCORE:    0.00 PKD
ROOT
HETATM    1  C   UNK     1     -10.494   6.624  66.839  1.00  0.00    -0.279 C  
HETATM    2  N   UNK     1      -9.925   7.884  67.262  1.00  0.00    -0.192 NA 
HETATM    3  H   UNK     1     -10.179   8.724  66.743  1.00  0.00     0.000 HD 
HETATM    4  C   UNK     1      -9.073   8.013  68.309  1.00  0.00    -0.135 C  
HETATM    5  N   UNK     1      -8.858   9.323  68.601  1.00  0.00    -0.131 NA 
HETATM    6  N   UNK     1      -8.511   7.056  68.956  1.00  0.00    -0.128 NA 
HETATM    7  H   UNK     1      -9.429  10.047  68.165  1.00  0.00     0.000 HD 
HETATM    8  H2  UNK     1      -8.727   6.106  68.654  1.00  0.00     0.000 HD 
HETATM    9  H1  UNK     1      -7.870   7.153  69.744  1.00  0.00     0.000 HD 
ENDROOT
BRANCH   5  10
HETATM   10  C   UNK     1      -7.803   9.683  69.542  1.00  0.00    -0.117 C  
BRANCH  10  11
HETATM   11  C   UNK     1      -6.723  10.486  68.822  1.00  0.00    -0.054 C  
BRANCH  11  12
HETATM   12  C   UNK     1      -6.317   9.825  67.496  1.00  0.00    -0.064 C  
BRANCH  12  13
HETATM   13  C   UNK     1      -6.667  10.652  66.253  1.00  0.00    -0.129 C  
HETATM   14  C   UNK     1      -7.467   9.798  65.254  1.00  0.00    -0.120 C  
HETATM   15  N   UNK     1      -7.474  11.852  66.607  1.00  0.00    -0.366 NA 
HETATM   16  O   UNK     1      -6.992   8.969  64.497  1.00  0.00    -0.087 OA 
HETATM   17  O   UNK     1      -8.799  10.056  65.350  1.00  0.00    -0.155 OA 
HETATM   18  H1  UNK     1      -7.707  12.402  65.780  1.00  0.00     0.000 HD 
HETATM   19  H2  UNK     1      -7.008  12.420  67.314  1.00  0.00     0.000 HD 
ENDBRANCH  12  13
ENDBRANCH  11  12
ENDBRANCH  10  11
ENDBRANCH   5  10
TORSDOF 4
ENDMDL
MODEL      322
REMARK 921   NORMALIZED FREE ENERGY PREDICTED BY IDOCK:   -1.83 KCAL/MOL
REMARK 922        TOTAL FREE ENERGY PREDICTED BY IDOCK:   -2.69 KCAL/MOL
REMARK 923 INTER-LIGAND FREE ENERGY PREDICTED BY IDOCK:   -2.29 KCAL/MOL
REMARK 924 INTRA-LIGAND FREE ENERGY PREDICTED BY IDOCK:   -0.41 KCAL/MOL
REMARK 927      BINDING AFFINITY PREDICTED BY RF-SCORE:    0.00 PKD
ROOT
HETATM    1  C   UNK     1      -6.761  10.307  62.363  1.00  0.00    -0.129 C  
HETATM    2  N   UNK     1      -7.669  10.375  63.486  1.00  0.00    -0.288 NA 
HETATM    3  H   UNK     1      -8.468  11.006  63.420  1.00  0.00     0.000 HD 
HETATM    4  C   UNK     1      -7.519   9.649  64.622  1.00  0.00    -0.123 C  
HETATM    5  N   UNK     1      -8.615   9.762  65.417  1.00  0.00    -0.141 NA 
HETATM    6  N   UNK     1      -6.493   8.949  64.948  1.00  0.00    -0.065 NA 
HETATM    7  H   UNK     1      -9.464  10.203  65.064  1.00  0.00     0.000 HD 
HETATM    8  H2  UNK     1      -5.715   8.937  64.289  1.00  0.00     0.000 HD 
HETATM    9  H1  UNK     1      -6.381   8.403  65.802  1.00  0.00     0.000 HD 
ENDROOT
BRANCH   5  10
HETATM   10  C   UNK     1      -8.567   9.245  66.781  1.00  0.00    -0.127 C  
BRANCH  10  11
HETATM   11  C   UNK     1      -9.348   7.936  66.863  1.00  0.00    -0.209 C  
BRANCH  11  12
HETATM   12  C   UNK     1      -8.414   6.732  67.054  1.00  0.00    -0.114 C  
BRANCH  12  13
HETATM   13  C   UNK     1      -8.602   5.625  66.008  1.00  0.00    -0.137 C  
HETATM   14  C   UNK     1      -9.782   4.719  66.400  1.00  0.00    -0.195 C  
HETATM   15  N   UNK     1      -8.863   6.191  64.656  1.00  0.00    -0.342 NA 
HETATM   16  O   UNK     1      -9.746   3.838  67.241  1.00  0.00    -0.204 OA 
HETATM   17  O   UNK     1     -10.904   5.055  65.707  1.00  0.00    -0.211 OA 
HETATM   18  H1  UNK     1      -8.988   5.455  63.962  1.00  0.00     0.000 HD 
HETATM   19  H2  UNK     1      -8.133   6.847  64.379  1.00  0.00     0.000 HD 
ENDBRANCH  12  13
ENDBRANCH  11  12
ENDBRANCH  10  11
ENDBRANCH   5  10
TORSDOF 4
ENDMDL
MODEL      323
REMARK 921   NORMALIZED FREE ENERGY PREDICTED BY IDOCK:   -1.79 KCAL/MOL
REMARK 922        TOTAL FREE ENERGY PREDICTED BY IDOCK:   -2.65 KCAL/MOL
REMARK 923 INTER-LIGAND FREE ENERGY PREDICTED BY IDOCK:   -2.61 KCAL/MOL
REMARK 924 INTRA-LIGAND FREE ENERGY PREDICTED BY IDOCK:   -0.04 KCAL/MOL
REMARK 927      BINDING AFFINITY PREDICTED BY RF-SCORE:    0.00 PKD
ROOT
HETATM    1  C   UNK     1      -8.975   8.356  73.312  1.00  0.00    -0.124 C  
HETATM    2  N   UNK     1      -8.864   8.353  71.871  1.00  0.00    -0.184 NA 
HETATM    3  H   UNK     1      -7.939   8.226  71.460  1.00  0.00     0.000 HD 
HETATM    4  C   UNK     1      -9.919   8.511  71.033  1.00  0.00    -0.203 C  
HETATM    5  N   UNK     1      -9.556   8.268  69.746  1.00  0.00    -0.170 NA 
HETATM    6  N   UNK     1     -11.110   8.856  71.366  1.00  0.00    -0.279 NA 
HETATM    7  H   UNK     1      -8.647   7.857  69.536  1.00  0.00     0.000 HD 
HETATM    8  H2  UNK     1     -11.280   9.028  72.357  1.00  0.00     0.000 HD 
HETATM    9  H1  UNK     1     -11.903   8.975  70.736  1.00  0.00     0.000 HD 
ENDROOT
BRANCH   5  10
HETATM   10  C   UNK     1     -10.480   8.600  68.667  1.00  0.00    -0.177 C  
BRANCH  10  11
HETATM   11  C   UNK     1      -9.838   8.276  67.321  1.00  0.00    -0.258 C  
BRANCH  11  12
HETATM   12  C   UNK     1     -10.056   9.405  66.303  1.00  0.00    -0.328 C  
BRANCH  12  13
HETATM   13  C   UNK     1      -9.133  10.613  66.502  1.00  0.00    -0.162 C  
HETATM   14  C   UNK     1      -9.847  11.697  67.328  1.00  0.00    -0.187 C  
HETATM   15  N   UNK     1      -7.877  10.229  67.204  1.00  0.00    -0.109 NA 
HETATM   16  O   UNK     1     -10.678  12.477  66.898  1.00  0.00    -0.237 OA 
HETATM   17  O   UNK     1      -9.459  11.650  68.631  1.00  0.00    -0.186 OA 
HETATM   18  H1  UNK     1      -7.263  11.032  67.337  1.00  0.00     0.000 HD 
HETATM   19  H2  UNK     1      -7.398   9.468  66.722  1.00  0.00     0.000 HD 
ENDBRANCH  12  13
ENDBRANCH  11  12
ENDBRANCH  10  11
ENDBRANCH   5  10
TORSDOF 4
ENDMDL
MODEL      324
REMARK 921   NORMALIZED FREE ENERGY PREDICTED BY IDOCK:   -1.78 KCAL/MOL
REMARK 922        TOTAL FREE ENERGY PREDICTED BY IDOCK:   -2.64 KCAL/MOL
REMARK 923 INTER-LIGAND FREE ENERGY PREDICTED BY IDOCK:   -2.45 KCAL/MOL
REMARK 924 INTRA-LIGAND FREE ENERGY PREDICTED BY IDOCK:   -0.19 KCAL/MOL
REMARK 927      BINDING AFFINITY PREDICTED BY RF-SCORE:    0.00 PKD
ROOT
HETATM    1  C   UNK     1      -6.965   5.637  70.634  1.00  0.00    -0.057 C  
HETATM    2  N   UNK     1      -6.849   6.874  69.895  1.00  0.00    -0.049 NA 
HETATM    3  H   UNK     1      -6.717   6.819  68.886  1.00  0.00     0.000 HD 
HETATM    4  C   UNK     1      -6.907   8.102  70.467  1.00  0.00    -0.037 C  
HETATM    5  N   UNK     1      -6.970   9.075  69.521  1.00  0.00    -0.050 NA 
HETATM    6  N   UNK     1      -6.891   8.357  71.725  1.00  0.00    -0.076 NA 
HETATM    7  H   UNK     1      -7.128   8.832  68.542  1.00  0.00     0.000 HD 
HETATM    8  H2  UNK     1      -6.829   7.559  72.357  1.00  0.00     0.000 HD 
HETATM    9  H1  UNK     1      -6.934   9.281  72.156  1.00  0.00     0.000 HD 
ENDROOT
BRANCH   5  10
HETATM   10  C   UNK     1      -6.811  10.470  69.916  1.00  0.00    -0.149 C  
BRANCH  10  11
HETATM   11  C   UNK     1      -7.478  11.376  68.884  1.00  0.00    -0.113 C  
BRANCH  11  12
HETATM   12  C   UNK     1      -8.983  11.091  68.770  1.00  0.00    -0.153 C  
BRANCH  12  13
HETATM   13  C   UNK     1      -9.804  12.272  68.236  1.00  0.00    -0.217 C  
HETATM   14  C   UNK     1     -10.684  11.818  67.059  1.00  0.00    -0.246 C  
HETATM   15  N   UNK     1     -10.681  12.848  69.293  1.00  0.00    -0.445 NA 
HETATM   16  O   UNK     1     -10.298  11.645  65.916  1.00  0.00    -0.231 OA 
HETATM   17  O   UNK     1     -11.962  11.590  67.467  1.00  0.00    -0.629 OA 
HETATM   18  H1  UNK     1     -11.226  13.633  68.938  1.00  0.00     0.000 HD 
HETATM   19  H2  UNK     1     -10.146  13.109  70.121  1.00  0.00     0.000 HD 
ENDBRANCH  12  13
ENDBRANCH  11  12
ENDBRANCH  10  11
ENDBRANCH   5  10
TORSDOF 4
ENDMDL
MODEL      325
REMARK 921   NORMALIZED FREE ENERGY PREDICTED BY IDOCK:   -1.76 KCAL/MOL
REMARK 922        TOTAL FREE ENERGY PREDICTED BY IDOCK:   -2.60 KCAL/MOL
REMARK 923 INTER-LIGAND FREE ENERGY PREDICTED BY IDOCK:   -2.41 KCAL/MOL
REMARK 924 INTRA-LIGAND FREE ENERGY PREDICTED BY IDOCK:   -0.19 KCAL/MOL
REMARK 927      BINDING AFFINITY PREDICTED BY RF-SCORE:    0.00 PKD
ROOT
HETATM    1  C   UNK     1     -11.542  11.795  67.368  1.00  0.00    -0.280 C  
HETATM    2  N   UNK     1     -10.606  11.522  68.436  1.00  0.00    -0.192 NA 
HETATM    3  H   UNK     1     -10.314  12.299  69.028  1.00  0.00     0.000 HD 
HETATM    4  C   UNK     1     -10.095  10.293  68.695  1.00  0.00    -0.174 C  
HETATM    5  N   UNK     1      -9.406  10.292  69.866  1.00  0.00    -0.408 NA 
HETATM    6  N   UNK     1     -10.211   9.249  67.956  1.00  0.00    -0.198 NA 
HETATM    7  H   UNK     1      -9.458  11.094  70.495  1.00  0.00     0.000 HD 
HETATM    8  H2  UNK     1     -10.738   9.355  67.089  1.00  0.00     0.000 HD 
HETATM    9  H1  UNK     1      -9.826   8.325  68.151  1.00  0.00     0.000 HD 
ENDROOT
BRANCH   5  10
HETATM   10  C   UNK     1      -8.591   9.134  70.216  1.00  0.00    -0.198 C  
BRANCH  10  11
HETATM   11  C   UNK     1      -9.345   8.255  71.210  1.00  0.00    -0.218 C  
BRANCH  11  12
HETATM   12  C   UNK     1      -8.509   7.039  71.638  1.00  0.00    -0.115 C  
BRANCH  12  13
HETATM   13  C   UNK     1      -9.293   5.721  71.665  1.00  0.00    -0.146 C  
HETATM   14  C   UNK     1      -9.247   5.047  70.283  1.00  0.00    -0.139 C  
HETATM   15  N   UNK     1      -8.737   4.778  72.674  1.00  0.00    -0.115 NA 
HETATM   16  O   UNK     1      -9.926   5.363  69.322  1.00  0.00    -0.171 OA 
HETATM   17  O   UNK     1      -8.309   4.062  70.253  1.00  0.00    -0.060 OA 
HETATM   18  H1  UNK     1      -9.259   3.901  72.692  1.00  0.00     0.000 HD 
HETATM   19  H2  UNK     1      -8.692   5.205  73.599  1.00  0.00     0.000 HD 
ENDBRANCH  12  13
ENDBRANCH  11  12
ENDBRANCH  10  11
ENDBRANCH   5  10
TORSDOF 4
ENDMDL
MODEL      326
REMARK 921   NORMALIZED FREE ENERGY PREDICTED BY IDOCK:   -1.75 KCAL/MOL
REMARK 922        TOTAL FREE ENERGY PREDICTED BY IDOCK:   -2.59 KCAL/MOL
REMARK 923 INTER-LIGAND FREE ENERGY PREDICTED BY IDOCK:   -2.20 KCAL/MOL
REMARK 924 INTRA-LIGAND FREE ENERGY PREDICTED BY IDOCK:   -0.40 KCAL/MOL
REMARK 927      BINDING AFFINITY PREDICTED BY RF-SCORE:    0.00 PKD
ROOT
HETATM    1  C   UNK     1     -11.635  16.039  64.927  1.00  0.00    -0.009 C  
HETATM    2  N   UNK     1     -11.476  14.822  65.690  1.00  0.00    -0.346 NA 
HETATM    3  H   UNK     1     -11.721  13.939  65.242  1.00  0.00     0.000 HD 
HETATM    4  C   UNK     1     -11.020  14.786  66.966  1.00  0.00    -0.324 C  
HETATM    5  N   UNK     1     -10.784  13.508  67.361  1.00  0.00    -0.261 NA 
HETATM    6  N   UNK     1     -10.834  15.796  67.737  1.00  0.00    -0.310 NA 
HETATM    7  H   UNK     1     -10.802  12.747  66.681  1.00  0.00     0.000 HD 
HETATM    8  H2  UNK     1     -11.051  16.716  67.352  1.00  0.00     0.000 HD 
HETATM    9  H1  UNK     1     -10.491  15.769  68.697  1.00  0.00     0.000 HD 
ENDROOT
BRANCH   5  10
HETATM   10  C   UNK     1     -10.506  13.231  68.767  1.00  0.00    -0.169 C  
BRANCH  10  11
HETATM   11  C   UNK     1      -9.372  12.217  68.877  1.00  0.00     0.195 C  
BRANCH  11  12
HETATM   12  C   UNK     1      -8.349  12.386  67.743  1.00  0.00    -0.164 C  
BRANCH  12  13
HETATM   13  C   UNK     1      -6.992  12.933  68.204  1.00  0.00    -0.102 C  
HETATM   14  C   UNK     1      -6.923  14.452  67.970  1.00  0.00    -0.143 C  
HETATM   15  N   UNK     1      -6.757  12.662  69.649  1.00  0.00    -0.340 NA 
HETATM   16  O   UNK     1      -6.712  14.991  66.898  1.00  0.00    -0.087 OA 
HETATM   17  O   UNK     1      -7.174  15.133  69.121  1.00  0.00    -0.135 OA 
HETATM   18  H1  UNK     1      -5.855  13.025  69.954  1.00  0.00     0.000 HD 
HETATM   19  H2  UNK     1      -6.852  11.669  69.862  1.00  0.00     0.000 HD 
ENDBRANCH  12  13
ENDBRANCH  11  12
ENDBRANCH  10  11
ENDBRANCH   5  10
TORSDOF 4
ENDMDL
MODEL      327
REMARK 921   NORMALIZED FREE ENERGY PREDICTED BY IDOCK:   -1.75 KCAL/MOL
REMARK 922        TOTAL FREE ENERGY PREDICTED BY IDOCK:   -2.59 KCAL/MOL
REMARK 923 INTER-LIGAND FREE ENERGY PREDICTED BY IDOCK:   -1.76 KCAL/MOL
REMARK 924 INTRA-LIGAND FREE ENERGY PREDICTED BY IDOCK:   -0.83 KCAL/MOL
REMARK 927      BINDING AFFINITY PREDICTED BY RF-SCORE:    0.00 PKD
ROOT
HETATM    1  C   UNK     1      -9.977   6.209  66.651  1.00  0.00    -0.158 C  
HETATM    2  N   UNK     1     -10.246   6.693  67.986  1.00  0.00    -0.154 NA 
HETATM    3  H   UNK     1     -10.254   7.702  68.139  1.00  0.00     0.000 HD 
HETATM    4  C   UNK     1     -10.487   5.885  69.048  1.00  0.00    -0.265 C  
HETATM    5  N   UNK     1     -10.900   6.605  70.123  1.00  0.00    -0.257 NA 
HETATM    6  N   UNK     1     -10.343   4.609  69.081  1.00  0.00     0.022 NA 
HETATM    7  H   UNK     1     -11.143   7.591  70.019  1.00  0.00     0.000 HD 
HETATM    8  H2  UNK     1     -10.016   4.160  68.225  1.00  0.00     0.000 HD 
HETATM    9  H1  UNK     1     -10.524   4.000  69.879  1.00  0.00     0.000 HD 
ENDROOT
BRANCH   5  10
HETATM   10  C   UNK     1     -10.995   5.957  71.427  1.00  0.00    -0.263 C  
BRANCH  10  11
HETATM   11  C   UNK     1     -10.017   6.611  72.399  1.00  0.00    -0.180 C  
BRANCH  11  12
HETATM   12  C   UNK     1      -8.570   6.173  72.125  1.00  0.00    -0.127 C  
BRANCH  12  13
HETATM   13  C   UNK     1      -7.657   7.305  71.636  1.00  0.00    -0.086 C  
HETATM   14  C   UNK     1      -6.781   6.815  70.471  1.00  0.00    -0.053 C  
HETATM   15  N   UNK     1      -8.446   8.482  71.179  1.00  0.00    -0.141 NA 
HETATM   16  O   UNK     1      -5.779   6.132  70.581  1.00  0.00    -0.017 OA 
HETATM   17  O   UNK     1      -7.297   7.211  69.275  1.00  0.00    -0.086 OA 
HETATM   18  H1  UNK     1      -7.839   9.234  70.853  1.00  0.00     0.000 HD 
HETATM   19  H2  UNK     1      -9.088   8.805  71.902  1.00  0.00     0.000 HD 
ENDBRANCH  12  13
ENDBRANCH  11  12
ENDBRANCH  10  11
ENDBRANCH   5  10
TORSDOF 4
ENDMDL
MODEL      328
REMARK 921   NORMALIZED FREE ENERGY PREDICTED BY IDOCK:   -1.74 KCAL/MOL
REMARK 922        TOTAL FREE ENERGY PREDICTED BY IDOCK:   -2.58 KCAL/MOL
REMARK 923 INTER-LIGAND FREE ENERGY PREDICTED BY IDOCK:   -2.32 KCAL/MOL
REMARK 924 INTRA-LIGAND FREE ENERGY PREDICTED BY IDOCK:   -0.27 KCAL/MOL
REMARK 927      BINDING AFFINITY PREDICTED BY RF-SCORE:    0.00 PKD
ROOT
HETATM    1  C   UNK     1      -9.294   3.569  63.094  1.00  0.00    -0.102 C  
HETATM    2  N   UNK     1      -9.997   4.097  64.241  1.00  0.00    -0.292 NA 
HETATM    3  H   UNK     1     -10.890   3.674  64.493  1.00  0.00     0.000 HD 
HETATM    4  C   UNK     1      -9.539   5.123  65.001  1.00  0.00     0.178 C  
HETATM    5  N   UNK     1     -10.297   5.275  66.118  1.00  0.00    -0.389 NA 
HETATM    6  N   UNK     1      -8.538   5.881  64.731  1.00  0.00    -0.324 NA 
HETATM    7  H   UNK     1     -10.988   4.569  66.371  1.00  0.00     0.000 HD 
HETATM    8  H2  UNK     1      -8.039   5.694  63.861  1.00  0.00     0.000 HD 
HETATM    9  H1  UNK     1      -8.193   6.653  65.302  1.00  0.00     0.000 HD 
ENDROOT
BRANCH   5  10
HETATM   10  C   UNK     1     -10.113   6.458  66.952  1.00  0.00    -0.187 C  
BRANCH  10  11
HETATM   11  C   UNK     1     -10.923   6.312  68.237  1.00  0.00    -0.408 C  
BRANCH  11  12
HETATM   12  C   UNK     1     -10.015   6.091  69.456  1.00  0.00    -0.225 C  
BRANCH  12  13
HETATM   13  C   UNK     1      -8.622   6.719  69.319  1.00  0.00    -0.129 C  
HETATM   14  C   UNK     1      -8.506   7.959  70.221  1.00  0.00    -0.128 C  
HETATM   15  N   UNK     1      -7.550   5.755  69.692  1.00  0.00    -0.075 NA 
HETATM   16  O   UNK     1      -8.964   9.060  69.970  1.00  0.00    -0.151 OA 
HETATM   17  O   UNK     1      -7.854   7.659  71.378  1.00  0.00    -0.086 OA 
HETATM   18  H1  UNK     1      -6.625   6.173  69.601  1.00  0.00     0.000 HD 
HETATM   19  H2  UNK     1      -7.624   4.889  69.159  1.00  0.00     0.000 HD 
ENDBRANCH  12  13
ENDBRANCH  11  12
ENDBRANCH  10  11
ENDBRANCH   5  10
TORSDOF 4
ENDMDL
MODEL      329
REMARK 921   NORMALIZED FREE ENERGY PREDICTED BY IDOCK:   -1.70 KCAL/MOL
REMARK 922        TOTAL FREE ENERGY PREDICTED BY IDOCK:   -2.54 KCAL/MOL
REMARK 923 INTER-LIGAND FREE ENERGY PREDICTED BY IDOCK:   -2.04 KCAL/MOL
REMARK 924 INTRA-LIGAND FREE ENERGY PREDICTED BY IDOCK:   -0.49 KCAL/MOL
REMARK 927      BINDING AFFINITY PREDICTED BY RF-SCORE:    0.00 PKD
ROOT
HETATM    1  C   UNK     1     -10.298  10.832  66.524  1.00  0.00    -0.244 C  
HETATM    2  N   UNK     1      -8.981  10.266  66.706  1.00  0.00    -0.133 NA 
HETATM    3  H   UNK     1      -8.302  10.797  67.251  1.00  0.00     0.000 HD 
HETATM    4  C   UNK     1      -8.596   9.070  66.195  1.00  0.00    -0.135 C  
HETATM    5  N   UNK     1      -7.384   8.701  66.686  1.00  0.00    -0.081 NA 
HETATM    6  N   UNK     1      -9.249   8.359  65.349  1.00  0.00    -0.420 NA 
HETATM    7  H   UNK     1      -6.964   9.214  67.461  1.00  0.00     0.000 HD 
HETATM    8  H2  UNK     1     -10.145   8.728  65.030  1.00  0.00     0.000 HD 
HETATM    9  H1  UNK     1      -8.960   7.459  64.964  1.00  0.00     0.000 HD 
ENDROOT
BRANCH   5  10
HETATM   10  C   UNK     1      -6.689   7.562  66.095  1.00  0.00    -0.053 C  
BRANCH  10  11
HETATM   11  C   UNK     1      -6.709   6.386  67.067  1.00  0.00    -0.060 C  
BRANCH  11  12
HETATM   12  C   UNK     1      -7.689   5.294  66.613  1.00  0.00    -0.096 C  
BRANCH  12  13
HETATM   13  C   UNK     1      -8.671   4.843  67.702  1.00  0.00    -0.103 C  
HETATM   14  C   UNK     1      -9.649   5.982  68.040  1.00  0.00    -0.117 C  
HETATM   15  N   UNK     1      -9.455   3.653  67.271  1.00  0.00    -0.203 NA 
HETATM   16  O   UNK     1      -9.396   6.942  68.746  1.00  0.00    -0.132 OA 
HETATM   17  O   UNK     1     -10.841   5.803  67.408  1.00  0.00    -0.268 OA 
HETATM   18  H1  UNK     1     -10.107   3.354  67.995  1.00  0.00     0.000 HD 
HETATM   19  H2  UNK     1      -8.845   2.890  66.979  1.00  0.00     0.000 HD 
ENDBRANCH  12  13
ENDBRANCH  11  12
ENDBRANCH  10  11
ENDBRANCH   5  10
TORSDOF 4
ENDMDL
MODEL      330
REMARK 921   NORMALIZED FREE ENERGY PREDICTED BY IDOCK:   -1.69 KCAL/MOL
REMARK 922        TOTAL FREE ENERGY PREDICTED BY IDOCK:   -2.52 KCAL/MOL
REMARK 923 INTER-LIGAND FREE ENERGY PREDICTED BY IDOCK:   -2.42 KCAL/MOL
REMARK 924 INTRA-LIGAND FREE ENERGY PREDICTED BY IDOCK:   -0.10 KCAL/MOL
REMARK 927      BINDING AFFINITY PREDICTED BY RF-SCORE:    0.00 PKD
ROOT
HETATM    1  C   UNK     1     -10.465   5.642  73.526  1.00  0.00    -0.254 C  
HETATM    2  N   UNK     1     -10.755   6.536  72.428  1.00  0.00    -0.216 NA 
HETATM    3  H   UNK     1     -11.375   6.203  71.689  1.00  0.00     0.000 HD 
HETATM    4  C   UNK     1     -10.251   7.790  72.322  1.00  0.00    -0.228 C  
HETATM    5  N   UNK     1     -10.844   8.467  71.304  1.00  0.00    -0.230 NA 
HETATM    6  N   UNK     1      -9.328   8.303  73.054  1.00  0.00    -0.263 NA 
HETATM    7  H   UNK     1     -11.668   8.083  70.842  1.00  0.00     0.000 HD 
HETATM    8  H2  UNK     1      -8.937   7.710  73.785  1.00  0.00     0.000 HD 
HETATM    9  H1  UNK     1      -8.949   9.246  72.975  1.00  0.00     0.000 HD 
ENDROOT
BRANCH   5  10
HETATM   10  C   UNK     1     -10.291   9.748  70.878  1.00  0.00    -0.175 C  
BRANCH  10  11
HETATM   11  C   UNK     1     -10.806  10.094  69.484  1.00  0.00    -0.289 C  
BRANCH  11  12
HETATM   12  C   UNK     1      -9.930   9.471  68.387  1.00  0.00    -0.184 C  
BRANCH  12  13
HETATM   13  C   UNK     1      -8.822   8.553  68.919  1.00  0.00    -0.139 C  
HETATM   14  C   UNK     1      -8.922   7.165  68.264  1.00  0.00    -0.125 C  
HETATM   15  N   UNK     1      -7.471   9.113  68.644  1.00  0.00    -0.079 NA 
HETATM   16  O   UNK     1      -9.715   6.293  68.576  1.00  0.00    -0.127 OA 
HETATM   17  O   UNK     1      -8.028   7.042  67.246  1.00  0.00    -0.108 OA 
HETATM   18  H1  UNK     1      -6.734   8.503  68.998  1.00  0.00     0.000 HD 
HETATM   19  H2  UNK     1      -7.378  10.061  69.010  1.00  0.00     0.000 HD 
ENDBRANCH  12  13
ENDBRANCH  11  12
ENDBRANCH  10  11
ENDBRANCH   5  10
TORSDOF 4
ENDMDL
MODEL      331
REMARK 921   NORMALIZED FREE ENERGY PREDICTED BY IDOCK:   -1.56 KCAL/MOL
REMARK 922        TOTAL FREE ENERGY PREDICTED BY IDOCK:   -2.36 KCAL/MOL
REMARK 923 INTER-LIGAND FREE ENERGY PREDICTED BY IDOCK:   -2.12 KCAL/MOL
REMARK 924 INTRA-LIGAND FREE ENERGY PREDICTED BY IDOCK:   -0.24 KCAL/MOL
REMARK 927      BINDING AFFINITY PREDICTED BY RF-SCORE:    0.00 PKD
ROOT
HETATM    1  C   UNK     1      -5.230  12.907  71.601  1.00  0.00    -0.102 C  
HETATM    2  N   UNK     1      -5.548  11.561  71.183  1.00  0.00    -0.359 NA 
HETATM    3  H   UNK     1      -5.268  10.791  71.790  1.00  0.00     0.000 HD 
HETATM    4  C   UNK     1      -6.198  11.262  70.031  1.00  0.00    -0.149 C  
HETATM    5  N   UNK     1      -6.537   9.947  69.992  1.00  0.00    -0.076 NA 
HETATM    6  N   UNK     1      -6.466  12.077  69.074  1.00  0.00    -0.083 NA 
HETATM    7  H   UNK     1      -6.441   9.366  70.825  1.00  0.00     0.000 HD 
HETATM    8  H2  UNK     1      -6.159  13.043  69.193  1.00  0.00     0.000 HD 
HETATM    9  H1  UNK     1      -6.954  11.852  68.208  1.00  0.00     0.000 HD 
ENDROOT
BRANCH   5  10
HETATM   10  C   UNK     1      -7.040   9.373  68.748  1.00  0.00    -0.069 C  
BRANCH  10  11
HETATM   11  C   UNK     1      -8.541   9.125  68.865  1.00  0.00    -0.131 C  
BRANCH  11  12
HETATM   12  C   UNK     1      -8.948   7.798  68.208  1.00  0.00    -0.131 C  
BRANCH  12  13
HETATM   13  C   UNK     1      -9.474   7.946  66.775  1.00  0.00    -0.201 C  
HETATM   14  C   UNK     1      -8.413   7.472  65.767  1.00  0.00    -0.144 C  
HETATM   15  N   UNK     1     -10.718   7.155  66.566  1.00  0.00    -0.455 NA 
HETATM   16  O   UNK     1      -7.439   8.113  65.415  1.00  0.00    -0.076 OA 
HETATM   17  O   UNK     1      -8.678   6.207  65.341  1.00  0.00    -0.141 OA 
HETATM   18  H1  UNK     1     -11.067   7.254  65.613  1.00  0.00     0.000 HD 
HETATM   19  H2  UNK     1     -11.432   7.395  67.253  1.00  0.00     0.000 HD 
ENDBRANCH  12  13
ENDBRANCH  11  12
ENDBRANCH  10  11
ENDBRANCH   5  10
TORSDOF 4
ENDMDL
MODEL      332
REMARK 921   NORMALIZED FREE ENERGY PREDICTED BY IDOCK:   -1.56 KCAL/MOL
REMARK 922        TOTAL FREE ENERGY PREDICTED BY IDOCK:   -2.36 KCAL/MOL
REMARK 923 INTER-LIGAND FREE ENERGY PREDICTED BY IDOCK:   -2.29 KCAL/MOL
REMARK 924 INTRA-LIGAND FREE ENERGY PREDICTED BY IDOCK:   -0.07 KCAL/MOL
REMARK 927      BINDING AFFINITY PREDICTED BY RF-SCORE:    0.00 PKD
ROOT
HETATM    1  C   UNK     1      -9.519   2.655  64.232  1.00  0.00    -0.134 C  
HETATM    2  N   UNK     1      -9.884   3.723  65.134  1.00  0.00    -0.268 NA 
HETATM    3  H   UNK     1     -10.787   4.178  65.000  1.00  0.00     0.000 HD 
HETATM    4  C   UNK     1      -9.097   4.155  66.150  1.00  0.00    -0.137 C  
HETATM    5  N   UNK     1      -9.769   5.023  66.950  1.00  0.00    -0.152 NA 
HETATM    6  N   UNK     1      -7.873   3.826  66.357  1.00  0.00    -0.089 NA 
HETATM    7  H   UNK     1     -10.776   5.147  66.843  1.00  0.00     0.000 HD 
HETATM    8  H2  UNK     1      -7.452   3.176  65.692  1.00  0.00     0.000 HD 
HETATM    9  H1  UNK     1      -7.280   4.151  67.120  1.00  0.00     0.000 HD 
ENDROOT
BRANCH   5  10
HETATM   10  C   UNK     1      -9.039   5.775  67.965  1.00  0.00    -0.110 C  
BRANCH  10  11
HETATM   11  C   UNK     1      -8.256   6.905  67.303  1.00  0.00    -0.118 C  
BRANCH  11  12
HETATM   12  C   UNK     1      -8.616   8.272  67.906  1.00  0.00    -0.132 C  
BRANCH  12  13
HETATM   13  C   UNK     1      -9.826   8.945  67.247  1.00  0.00    -0.199 C  
HETATM   14  C   UNK     1      -9.765  10.468  67.455  1.00  0.00    -0.164 C  
HETATM   15  N   UNK     1      -9.876   8.665  65.785  1.00  0.00    -0.447 NA 
HETATM   16  O   UNK     1     -10.071  11.053  68.479  1.00  0.00    -0.176 OA 
HETATM   17  O   UNK     1      -9.278  11.091  66.347  1.00  0.00    -0.166 OA 
HETATM   18  H1  UNK     1     -10.680   9.113  65.347  1.00  0.00     0.000 HD 
HETATM   19  H2  UNK     1      -9.857   7.663  65.597  1.00  0.00     0.000 HD 
ENDBRANCH  12  13
ENDBRANCH  11  12
ENDBRANCH  10  11
ENDBRANCH   5  10
TORSDOF 4
ENDMDL
MODEL      333
REMARK 921   NORMALIZED FREE ENERGY PREDICTED BY IDOCK:   -1.54 KCAL/MOL
REMARK 922        TOTAL FREE ENERGY PREDICTED BY IDOCK:   -2.34 KCAL/MOL
REMARK 923 INTER-LIGAND FREE ENERGY PREDICTED BY IDOCK:   -2.18 KCAL/MOL
REMARK 924 INTRA-LIGAND FREE ENERGY PREDICTED BY IDOCK:   -0.16 KCAL/MOL
REMARK 927      BINDING AFFINITY PREDICTED BY RF-SCORE:    0.00 PKD
ROOT
HETATM    1  C   UNK     1      -5.351  12.598  71.243  1.00  0.00    -0.117 C  
HETATM    2  N   UNK     1      -5.583  11.182  71.415  1.00  0.00    -0.351 NA 
HETATM    3  H   UNK     1      -4.969  10.668  72.047  1.00  0.00     0.000 HD 
HETATM    4  C   UNK     1      -6.569  10.497  70.785  1.00  0.00     0.191 C  
HETATM    5  N   UNK     1      -6.678   9.237  71.282  1.00  0.00    -0.219 NA 
HETATM    6  N   UNK     1      -7.313  10.936  69.835  1.00  0.00    -0.359 NA 
HETATM    7  H   UNK     1      -6.175   8.972  72.129  1.00  0.00     0.000 HD 
HETATM    8  H2  UNK     1      -7.146  11.893  69.523  1.00  0.00     0.000 HD 
HETATM    9  H1  UNK     1      -8.055  10.421  69.360  1.00  0.00     0.000 HD 
ENDROOT
BRANCH   5  10
HETATM   10  C   UNK     1      -7.522   8.266  70.593  1.00  0.00    -0.062 C  
BRANCH  10  11
HETATM   11  C   UNK     1      -8.731   7.928  71.460  1.00  0.00    -0.150 C  
BRANCH  11  12
HETATM   12  C   UNK     1      -8.773   6.434  71.815  1.00  0.00    -0.132 C  
BRANCH  12  13
HETATM   13  C   UNK     1     -10.126   5.765  71.541  1.00  0.00    -0.196 C  
HETATM   14  C   UNK     1      -9.917   4.413  70.838  1.00  0.00    -0.172 C  
HETATM   15  N   UNK     1     -10.885   5.535  72.801  1.00  0.00    -0.244 NA 
HETATM   16  O   UNK     1      -9.669   4.264  69.654  1.00  0.00    -0.200 OA 
HETATM   17  O   UNK     1     -10.003   3.385  71.726  1.00  0.00    -0.169 OA 
HETATM   18  H1  UNK     1     -11.784   5.090  72.619  1.00  0.00     0.000 HD 
HETATM   19  H2  UNK     1     -10.996   6.398  73.333  1.00  0.00     0.000 HD 
ENDBRANCH  12  13
ENDBRANCH  11  12
ENDBRANCH  10  11
ENDBRANCH   5  10
TORSDOF 4
ENDMDL
MODEL      334
REMARK 921   NORMALIZED FREE ENERGY PREDICTED BY IDOCK:   -1.51 KCAL/MOL
REMARK 922        TOTAL FREE ENERGY PREDICTED BY IDOCK:   -2.30 KCAL/MOL
REMARK 923 INTER-LIGAND FREE ENERGY PREDICTED BY IDOCK:   -2.10 KCAL/MOL
REMARK 924 INTRA-LIGAND FREE ENERGY PREDICTED BY IDOCK:   -0.20 KCAL/MOL
REMARK 927      BINDING AFFINITY PREDICTED BY RF-SCORE:    0.00 PKD
ROOT
HETATM    1  C   UNK     1      -8.991  11.189  62.499  1.00  0.00    -0.299 C  
HETATM    2  N   UNK     1      -8.206  10.521  63.512  1.00  0.00    -0.289 NA 
HETATM    3  H   UNK     1      -7.201  10.433  63.360  1.00  0.00     0.000 HD 
HETATM    4  C   UNK     1      -8.728  10.004  64.652  1.00  0.00    -0.191 C  
HETATM    5  N   UNK     1      -7.743   9.618  65.504  1.00  0.00    -0.108 NA 
HETATM    6  N   UNK     1      -9.975   9.867  64.924  1.00  0.00    -0.399 NA 
HETATM    7  H   UNK     1      -6.773   9.874  65.320  1.00  0.00     0.000 HD 
HETATM    8  H2  UNK     1     -10.639  10.176  64.214  1.00  0.00     0.000 HD 
HETATM    9  H1  UNK     1     -10.368   9.478  65.781  1.00  0.00     0.000 HD 
ENDROOT
BRANCH   5  10
HETATM   10  C   UNK     1      -8.085   8.832  66.686  1.00  0.00    -0.103 C  
BRANCH  10  11
HETATM   11  C   UNK     1      -7.930   7.346  66.378  1.00  0.00    -0.108 C  
BRANCH  11  12
HETATM   12  C   UNK     1      -8.955   6.500  67.148  1.00  0.00    -0.113 C  
BRANCH  12  13
HETATM   13  C   UNK     1      -8.458   5.094  67.511  1.00  0.00    -0.105 C  
HETATM   14  C   UNK     1      -8.398   4.210  66.254  1.00  0.00    -0.105 C  
HETATM   15  N   UNK     1      -7.104   5.139  68.128  1.00  0.00    -0.061 NA 
HETATM   16  O   UNK     1      -9.354   3.672  65.724  1.00  0.00    -0.153 OA 
HETATM   17  O   UNK     1      -7.128   4.136  65.772  1.00  0.00    -0.064 OA 
HETATM   18  H1  UNK     1      -6.774   4.204  68.370  1.00  0.00     0.000 HD 
HETATM   19  H2  UNK     1      -7.081   5.763  68.934  1.00  0.00     0.000 HD 
ENDBRANCH  12  13
ENDBRANCH  11  12
ENDBRANCH  10  11
ENDBRANCH   5  10
TORSDOF 4
ENDMDL
MODEL      335
REMARK 921   NORMALIZED FREE ENERGY PREDICTED BY IDOCK:   -1.46 KCAL/MOL
REMARK 922        TOTAL FREE ENERGY PREDICTED BY IDOCK:   -2.24 KCAL/MOL
REMARK 923 INTER-LIGAND FREE ENERGY PREDICTED BY IDOCK:   -2.11 KCAL/MOL
REMARK 924 INTRA-LIGAND FREE ENERGY PREDICTED BY IDOCK:   -0.13 KCAL/MOL
REMARK 927      BINDING AFFINITY PREDICTED BY RF-SCORE:    0.00 PKD
ROOT
HETATM    1  C   UNK     1     -10.091   4.157  72.909  1.00  0.00    -0.159 C  
HETATM    2  N   UNK     1      -9.621   5.358  72.256  1.00  0.00    -0.154 NA 
HETATM    3  H   UNK     1      -9.152   6.062  72.826  1.00  0.00     0.000 HD 
HETATM    4  C   UNK     1      -9.768   5.603  70.930  1.00  0.00    -0.173 C  
HETATM    5  N   UNK     1      -9.063   6.703  70.559  1.00  0.00    -0.152 NA 
HETATM    6  N   UNK     1     -10.479   4.922  70.105  1.00  0.00    -0.186 NA 
HETATM    7  H   UNK     1      -8.398   7.130  71.204  1.00  0.00     0.000 HD 
HETATM    8  H2  UNK     1     -10.982   4.119  70.484  1.00  0.00     0.000 HD 
HETATM    9  H1  UNK     1     -10.590   5.106  69.108  1.00  0.00     0.000 HD 
ENDROOT
BRANCH   5  10
HETATM   10  C   UNK     1      -9.265   7.269  69.230  1.00  0.00    -0.144 C  
BRANCH  10  11
HETATM   11  C   UNK     1      -9.018   8.774  69.268  1.00  0.00    -0.144 C  
BRANCH  11  12
HETATM   12  C   UNK     1      -9.559   9.468  68.008  1.00  0.00    -0.155 C  
BRANCH  12  13
HETATM   13  C   UNK     1      -8.837  10.775  67.657  1.00  0.00    -0.132 C  
HETATM   14  C   UNK     1      -8.520  10.820  66.153  1.00  0.00    -0.167 C  
HETATM   15  N   UNK     1      -9.662  11.964  68.007  1.00  0.00    -0.186 NA 
HETATM   16  O   UNK     1      -7.601  10.234  65.608  1.00  0.00    -0.137 OA 
HETATM   17  O   UNK     1      -9.435  11.576  65.486  1.00  0.00    -0.224 OA 
HETATM   18  H1  UNK     1      -9.183  12.833  67.773  1.00  0.00     0.000 HD 
HETATM   19  H2  UNK     1      -9.948  11.946  68.986  1.00  0.00     0.000 HD 
ENDBRANCH  12  13
ENDBRANCH  11  12
ENDBRANCH  10  11
ENDBRANCH   5  10
TORSDOF 4
ENDMDL
MODEL      336
REMARK 921   NORMALIZED FREE ENERGY PREDICTED BY IDOCK:   -1.45 KCAL/MOL
REMARK 922        TOTAL FREE ENERGY PREDICTED BY IDOCK:   -2.23 KCAL/MOL
REMARK 923 INTER-LIGAND FREE ENERGY PREDICTED BY IDOCK:   -2.08 KCAL/MOL
REMARK 924 INTRA-LIGAND FREE ENERGY PREDICTED BY IDOCK:   -0.15 KCAL/MOL
REMARK 927      BINDING AFFINITY PREDICTED BY RF-SCORE:    0.00 PKD
ROOT
HETATM    1  C   UNK     1      -9.821  10.289  69.316  1.00  0.00    -0.228 C  
HETATM    2  N   UNK     1      -9.334   9.009  69.777  1.00  0.00    -0.164 NA 
HETATM    3  H   UNK     1      -8.328   8.842  69.757  1.00  0.00     0.000 HD 
HETATM    4  C   UNK     1     -10.137   8.016  70.233  1.00  0.00    -0.192 C  
HETATM    5  N   UNK     1      -9.404   7.012  70.781  1.00  0.00    -0.161 NA 
HETATM    6  N   UNK     1     -11.419   7.982  70.165  1.00  0.00    -0.466 NA 
HETATM    7  H   UNK     1      -8.405   7.137  70.951  1.00  0.00     0.000 HD 
HETATM    8  H2  UNK     1     -11.878   8.779  69.724  1.00  0.00     0.000 HD 
HETATM    9  H1  UNK     1     -12.023   7.236  70.508  1.00  0.00     0.000 HD 
ENDROOT
BRANCH   5  10
HETATM   10  C   UNK     1     -10.056   5.754  71.126  1.00  0.00    -0.203 C  
BRANCH  10  11
HETATM   11  C   UNK     1     -10.161   4.872  69.885  1.00  0.00    -0.299 C  
BRANCH  11  12
HETATM   12  C   UNK     1      -8.781   4.589  69.274  1.00  0.00    -0.117 C  
BRANCH  12  13
HETATM   13  C   UNK     1      -7.863   3.746  70.168  1.00  0.00    -0.047 C  
HETATM   14  C   UNK     1      -8.283   2.267  70.116  1.00  0.00    -0.041 C  
HETATM   15  N   UNK     1      -6.440   3.852  69.742  1.00  0.00    -0.032 NA 
HETATM   16  O   UNK     1      -9.223   1.780  70.720  1.00  0.00    -0.084 OA 
HETATM   17  O   UNK     1      -7.488   1.565  69.265  1.00  0.00    -0.042 OA 
HETATM   18  H1  UNK     1      -5.830   3.291  70.337  1.00  0.00     0.000 HD 
HETATM   19  H2  UNK     1      -6.134   4.824  69.704  1.00  0.00     0.000 HD 
ENDBRANCH  12  13
ENDBRANCH  11  12
ENDBRANCH  10  11
ENDBRANCH   5  10
TORSDOF 4
ENDMDL
MODEL      337
REMARK 921   NORMALIZED FREE ENERGY PREDICTED BY IDOCK:   -1.45 KCAL/MOL
REMARK 922        TOTAL FREE ENERGY PREDICTED BY IDOCK:   -2.23 KCAL/MOL
REMARK 923 INTER-LIGAND FREE ENERGY PREDICTED BY IDOCK:   -2.02 KCAL/MOL
REMARK 924 INTRA-LIGAND FREE ENERGY PREDICTED BY IDOCK:   -0.21 KCAL/MOL
REMARK 927      BINDING AFFINITY PREDICTED BY RF-SCORE:    0.00 PKD
ROOT
HETATM    1  C   UNK     1     -13.530   7.963  71.618  1.00  0.00    -0.341 C  
HETATM    2  N   UNK     1     -12.311   7.194  71.517  1.00  0.00    -0.350 NA 
HETATM    3  H   UNK     1     -12.387   6.200  71.302  1.00  0.00     0.000 HD 
HETATM    4  C   UNK     1     -11.072   7.717  71.692  1.00  0.00    -0.239 C  
HETATM    5  N   UNK     1     -10.113   6.819  71.344  1.00  0.00    -0.183 NA 
HETATM    6  N   UNK     1     -10.797   8.890  72.135  1.00  0.00    -0.334 NA 
HETATM    7  H   UNK     1     -10.366   5.957  70.861  1.00  0.00     0.000 HD 
HETATM    8  H2  UNK     1     -11.587   9.487  72.381  1.00  0.00     0.000 HD 
HETATM    9  H1  UNK     1      -9.865   9.284  72.267  1.00  0.00     0.000 HD 
ENDROOT
BRANCH   5  10
HETATM   10  C   UNK     1      -8.718   7.099  71.669  1.00  0.00    -0.118 C  
BRANCH  10  11
HETATM   11  C   UNK     1      -7.932   5.793  71.729  1.00  0.00    -0.114 C  
BRANCH  11  12
HETATM   12  C   UNK     1      -8.766   4.607  71.222  1.00  0.00    -0.139 C  
BRANCH  12  13
HETATM   13  C   UNK     1      -8.138   3.236  71.505  1.00  0.00    -0.060 C  
HETATM   14  C   UNK     1      -6.965   2.980  70.543  1.00  0.00    -0.033 C  
HETATM   15  N   UNK     1      -7.637   3.144  72.904  1.00  0.00    -0.050 NA 
HETATM   16  O   UNK     1      -7.070   2.628  69.382  1.00  0.00    -0.043 OA 
HETATM   17  O   UNK     1      -5.774   3.240  71.149  1.00  0.00    -0.012 OA 
HETATM   18  H1  UNK     1      -7.220   2.233  73.092  1.00  0.00     0.000 HD 
HETATM   19  H2  UNK     1      -8.369   3.366  73.578  1.00  0.00     0.000 HD 
ENDBRANCH  12  13
ENDBRANCH  11  12
ENDBRANCH  10  11
ENDBRANCH   5  10
TORSDOF 4
ENDMDL
MODEL      338
REMARK 921   NORMALIZED FREE ENERGY PREDICTED BY IDOCK:   -1.34 KCAL/MOL
REMARK 922        TOTAL FREE ENERGY PREDICTED BY IDOCK:   -2.09 KCAL/MOL
REMARK 923 INTER-LIGAND FREE ENERGY PREDICTED BY IDOCK:   -1.77 KCAL/MOL
REMARK 924 INTRA-LIGAND FREE ENERGY PREDICTED BY IDOCK:   -0.32 KCAL/MOL
REMARK 927      BINDING AFFINITY PREDICTED BY RF-SCORE:    0.00 PKD
ROOT
HETATM    1  C   UNK     1      -6.435  15.234  67.901  1.00  0.00    -0.156 C  
HETATM    2  N   UNK     1      -5.929  13.949  68.329  1.00  0.00    -0.105 NA 
HETATM    3  H   UNK     1      -4.926  13.779  68.253  1.00  0.00     0.000 HD 
HETATM    4  C   UNK     1      -6.709  12.957  68.824  1.00  0.00    -0.093 C  
HETATM    5  N   UNK     1      -5.951  11.948  69.327  1.00  0.00    -0.071 NA 
HETATM    6  N   UNK     1      -7.993  12.928  68.825  1.00  0.00    -0.329 NA 
HETATM    7  H   UNK     1      -4.945  12.069  69.442  1.00  0.00     0.000 HD 
HETATM    8  H2  UNK     1      -8.473  13.729  68.414  1.00  0.00     0.000 HD 
HETATM    9  H1  UNK     1      -8.581  12.182  69.198  1.00  0.00     0.000 HD 
ENDROOT
BRANCH   5  10
HETATM   10  C   UNK     1      -6.589  10.690  69.701  1.00  0.00    -0.106 C  
BRANCH  10  11
HETATM   11  C   UNK     1      -6.296   9.630  68.643  1.00  0.00    -0.047 C  
BRANCH  11  12
HETATM   12  C   UNK     1      -7.530   9.343  67.774  1.00  0.00    -0.087 C  
BRANCH  12  13
HETATM   13  C   UNK     1      -8.260   8.043  68.136  1.00  0.00    -0.126 C  
HETATM   14  C   UNK     1      -9.616   8.360  68.788  1.00  0.00    -0.149 C  
HETATM   15  N   UNK     1      -8.495   7.197  66.934  1.00  0.00    -0.120 NA 
HETATM   16  O   UNK     1      -9.778   8.706  69.946  1.00  0.00    -0.170 OA 
HETATM   17  O   UNK     1     -10.628   8.245  67.886  1.00  0.00    -0.214 OA 
HETATM   18  H1  UNK     1      -8.980   6.333  67.175  1.00  0.00     0.000 HD 
HETATM   19  H2  UNK     1      -7.626   7.011  66.433  1.00  0.00     0.000 HD 
ENDBRANCH  12  13
ENDBRANCH  11  12
ENDBRANCH  10  11
ENDBRANCH   5  10
TORSDOF 4
ENDMDL
MODEL      339
REMARK 921   NORMALIZED FREE ENERGY PREDICTED BY IDOCK:   -1.31 KCAL/MOL
REMARK 922        TOTAL FREE ENERGY PREDICTED BY IDOCK:   -2.05 KCAL/MOL
REMARK 923 INTER-LIGAND FREE ENERGY PREDICTED BY IDOCK:   -1.87 KCAL/MOL
REMARK 924 INTRA-LIGAND FREE ENERGY PREDICTED BY IDOCK:   -0.18 KCAL/MOL
REMARK 927      BINDING AFFINITY PREDICTED BY RF-SCORE:    0.00 PKD
ROOT
HETATM    1  C   UNK     1      -9.034  11.163  62.505  1.00  0.00    -0.299 C  
HETATM    2  N   UNK     1      -8.318  10.636  63.645  1.00  0.00    -0.332 NA 
HETATM    3  H   UNK     1      -7.302  10.576  63.587  1.00  0.00     0.000 HD 
HETATM    4  C   UNK     1      -8.919  10.218  64.786  1.00  0.00    -0.203 C  
HETATM    5  N   UNK     1      -8.000   9.963  65.753  1.00  0.00    -0.116 NA 
HETATM    6  N   UNK     1     -10.180  10.056  64.967  1.00  0.00    -0.284 NA 
HETATM    7  H   UNK     1      -7.026  10.240  65.624  1.00  0.00     0.000 HD 
HETATM    8  H2  UNK     1     -10.790  10.263  64.175  1.00  0.00     0.000 HD 
HETATM    9  H1  UNK     1     -10.633   9.741  65.825  1.00  0.00     0.000 HD 
ENDROOT
BRANCH   5  10
HETATM   10  C   UNK     1      -8.417   9.290  66.979  1.00  0.00    -0.124 C  
BRANCH  10  11
HETATM   11  C   UNK     1      -8.152   7.792  66.859  1.00  0.00    -0.116 C  
BRANCH  11  12
HETATM   12  C   UNK     1      -9.205   6.969  67.616  1.00  0.00    -0.120 C  
BRANCH  12  13
HETATM   13  C   UNK     1      -8.667   5.658  68.205  1.00  0.00    -0.106 C  
HETATM   14  C   UNK     1      -9.758   4.963  69.038  1.00  0.00    -0.175 C  
HETATM   15  N   UNK     1      -8.216   4.725  67.136  1.00  0.00    -0.106 NA 
HETATM   16  O   UNK     1     -10.083   5.271  70.171  1.00  0.00    -0.218 OA 
HETATM   17  O   UNK     1     -10.355   3.970  68.325  1.00  0.00     0.328 OA 
HETATM   18  H1  UNK     1      -7.859   3.854  67.528  1.00  0.00     0.000 HD 
HETATM   19  H2  UNK     1      -7.534   5.166  66.520  1.00  0.00     0.000 HD 
ENDBRANCH  12  13
ENDBRANCH  11  12
ENDBRANCH  10  11
ENDBRANCH   5  10
TORSDOF 4
ENDMDL
MODEL      340
REMARK 921   NORMALIZED FREE ENERGY PREDICTED BY IDOCK:   -1.03 KCAL/MOL
REMARK 922        TOTAL FREE ENERGY PREDICTED BY IDOCK:   -1.71 KCAL/MOL
REMARK 923 INTER-LIGAND FREE ENERGY PREDICTED BY IDOCK:   -1.66 KCAL/MOL
REMARK 924 INTRA-LIGAND FREE ENERGY PREDICTED BY IDOCK:   -0.06 KCAL/MOL
REMARK 927      BINDING AFFINITY PREDICTED BY RF-SCORE:    0.00 PKD
ROOT
HETATM    1  C   UNK     1      -5.299  13.668  73.673  1.00  0.00    -0.077 C  
HETATM    2  N   UNK     1      -5.191  12.490  72.843  1.00  0.00    -0.255 NA 
HETATM    3  H   UNK     1      -4.675  11.690  73.210  1.00  0.00     0.000 HD 
HETATM    4  C   UNK     1      -5.734  12.386  71.605  1.00  0.00     0.614 C  
HETATM    5  N   UNK     1      -5.649  11.111  71.143  1.00  0.00    -0.338 NA 
HETATM    6  N   UNK     1      -6.257  13.339  70.921  1.00  0.00    -0.514 NA 
HETATM    7  H   UNK     1      -5.363  10.356  71.767  1.00  0.00     0.000 HD 
HETATM    8  H2  UNK     1      -6.263  14.264  71.350  1.00  0.00     0.000 HD 
HETATM    9  H1  UNK     1      -6.666  13.261  69.990  1.00  0.00     0.000 HD 
ENDROOT
BRANCH   5  10
HETATM   10  C   UNK     1      -5.968  10.832  69.747  1.00  0.00    -0.071 C  
BRANCH  10  11
HETATM   11  C   UNK     1      -7.333  10.153  69.658  1.00  0.00    -0.138 C  
BRANCH  11  12
HETATM   12  C   UNK     1      -8.053  10.504  68.348  1.00  0.00    -0.119 C  
BRANCH  12  13
HETATM   13  C   UNK     1      -9.334   9.694  68.103  1.00  0.00    -0.132 C  
HETATM   14  C   UNK     1      -9.146   8.246  68.586  1.00  0.00    -0.140 C  
HETATM   15  N   UNK     1     -10.498  10.288  68.816  1.00  0.00    -0.191 NA 
HETATM   16  O   UNK     1      -8.548   7.373  67.983  1.00  0.00    -0.122 OA 
HETATM   17  O   UNK     1      -9.706   8.067  69.814  1.00  0.00    -0.174 OA 
HETATM   18  H1  UNK     1     -11.349   9.750  68.654  1.00  0.00     0.000 HD 
HETATM   19  H2  UNK     1     -10.624  11.270  68.571  1.00  0.00     0.000 HD 
ENDBRANCH  12  13
ENDBRANCH  11  12
ENDBRANCH  10  11
ENDBRANCH   5  10
TORSDOF 4
ENDMDL
MODEL      341
REMARK 921   NORMALIZED FREE ENERGY PREDICTED BY IDOCK:   -0.40 KCAL/MOL
REMARK 922        TOTAL FREE ENERGY PREDICTED BY IDOCK:   -0.93 KCAL/MOL
REMARK 923 INTER-LIGAND FREE ENERGY PREDICTED BY IDOCK:   -0.76 KCAL/MOL
REMARK 924 INTRA-LIGAND FREE ENERGY PREDICTED BY IDOCK:   -0.17 KCAL/MOL
REMARK 927      BINDING AFFINITY PREDICTED BY RF-SCORE:    0.00 PKD
ROOT
HETATM    1  C   UNK     1      -5.541  13.207  73.942  1.00  0.00     0.516 C  
HETATM    2  N   UNK     1      -5.127  13.364  72.566  1.00  0.00    -0.319 NA 
HETATM    3  H   UNK     1      -4.206  13.017  72.299  1.00  0.00     0.000 HD 
HETATM    4  C   UNK     1      -5.892  13.946  71.609  1.00  0.00    -0.099 C  
HETATM    5  N   UNK     1      -5.341  13.779  70.379  1.00  0.00    -0.107 NA 
HETATM    6  N   UNK     1      -6.988  14.589  71.798  1.00  0.00     0.869 NA 
HETATM    7  H   UNK     1      -4.555  13.142  70.249  1.00  0.00     0.000 HD 
HETATM    8  H2  UNK     1      -7.314  14.670  72.761  1.00  0.00     0.000 HD 
HETATM    9  H1  UNK     1      -7.564  15.027  71.079  1.00  0.00     0.000 HD 
ENDROOT
BRANCH   5  10
HETATM   10  C   UNK     1      -5.885  14.518  69.244  1.00  0.00    -0.101 C  
BRANCH  10  11
HETATM   11  C   UNK     1      -6.756  13.594  68.398  1.00  0.00    -0.100 C  
BRANCH  11  12
HETATM   12  C   UNK     1      -7.357  14.332  67.192  1.00  0.00     0.119 C  
BRANCH  12  13
HETATM   13  C   UNK     1      -8.424  15.370  67.563  1.00  0.00    -0.173 C  
HETATM   14  C   UNK     1      -8.756  16.250  66.346  1.00  0.00    -0.319 C  
HETATM   15  N   UNK     1      -9.677  14.718  68.036  1.00  0.00    -0.210 NA 
HETATM   16  O   UNK     1      -8.077  17.177  65.941  1.00  0.00    -0.516 OA 
HETATM   17  O   UNK     1      -9.900  15.831  65.740  1.00  0.00    -0.316 OA 
HETATM   18  H1  UNK     1     -10.386  15.408  68.283  1.00  0.00     0.000 HD 
HETATM   19  H2  UNK     1      -9.495  14.076  68.807  1.00  0.00     0.000 HD 
ENDBRANCH  12  13
ENDBRANCH  11  12
ENDBRANCH  10  11
ENDBRANCH   5  10
TORSDOF 4
ENDMDL
MODEL      342
REMARK 921   NORMALIZED FREE ENERGY PREDICTED BY IDOCK:   -0.34 KCAL/MOL
REMARK 922        TOTAL FREE ENERGY PREDICTED BY IDOCK:   -0.86 KCAL/MOL
REMARK 923 INTER-LIGAND FREE ENERGY PREDICTED BY IDOCK:   -0.72 KCAL/MOL
REMARK 924 INTRA-LIGAND FREE ENERGY PREDICTED BY IDOCK:   -0.14 KCAL/MOL
REMARK 927      BINDING AFFINITY PREDICTED BY RF-SCORE:    0.00 PKD
ROOT
HETATM    1  C   UNK     1      -8.976   3.128  72.424  1.00  0.00    -0.091 C  
HETATM    2  N   UNK     1      -7.916   3.673  71.607  1.00  0.00    -0.061 NA 
HETATM    3  H   UNK     1      -7.048   3.949  72.067  1.00  0.00     0.000 HD 
HETATM    4  C   UNK     1      -8.007   3.841  70.264  1.00  0.00    -0.047 C  
HETATM    5  N   UNK     1      -6.803   4.181  69.735  1.00  0.00    -0.041 NA 
HETATM    6  N   UNK     1      -9.069   3.718  69.553  1.00  0.00    -0.118 NA 
HETATM    7  H   UNK     1      -5.957   4.126  70.302  1.00  0.00     0.000 HD 
HETATM    8  H2  UNK     1      -9.928   3.470  70.045  1.00  0.00     0.000 HD 
HETATM    9  H1  UNK     1      -9.138   3.843  68.543  1.00  0.00     0.000 HD 
ENDROOT
BRANCH   5  10
HETATM   10  C   UNK     1      -6.731   4.625  68.347  1.00  0.00    -0.050 C  
BRANCH  10  11
HETATM   11  C   UNK     1      -5.894   5.898  68.257  1.00  0.00    -0.012 C  
BRANCH  11  12
HETATM   12  C   UNK     1      -6.226   6.705  66.993  1.00  0.00    -0.040 C  
BRANCH  12  13
HETATM   13  C   UNK     1      -5.539   8.075  66.929  1.00  0.00    -0.033 C  
HETATM   14  C   UNK     1      -5.842   8.759  65.585  1.00  0.00    -0.051 C  
HETATM   15  N   UNK     1      -5.995   8.966  68.031  1.00  0.00    -0.046 NA 
HETATM   16  O   UNK     1      -5.300   8.502  64.524  1.00  0.00    -0.042 OA 
HETATM   17  O   UNK     1      -6.839   9.676  65.720  1.00  0.00    -0.087 OA 
HETATM   18  H1  UNK     1      -5.539   9.877  67.988  1.00  0.00     0.000 HD 
HETATM   19  H2  UNK     1      -5.869   8.527  68.942  1.00  0.00     0.000 HD 
ENDBRANCH  12  13
ENDBRANCH  11  12
ENDBRANCH  10  11
ENDBRANCH   5  10
TORSDOF 4
ENDMDL
MODEL      343
REMARK 921   NORMALIZED FREE ENERGY PREDICTED BY IDOCK:    0.62 KCAL/MOL
REMARK 922        TOTAL FREE ENERGY PREDICTED BY IDOCK:    0.33 KCAL/MOL
REMARK 923 INTER-LIGAND FREE ENERGY PREDICTED BY IDOCK:    0.61 KCAL/MOL
REMARK 924 INTRA-LIGAND FREE ENERGY PREDICTED BY IDOCK:   -0.28 KCAL/MOL
REMARK 927      BINDING AFFINITY PREDICTED BY RF-SCORE:    0.00 PKD
ROOT
HETATM    1  C   UNK     1      -5.681  11.196  74.293  1.00  0.00     1.163 C  
HETATM    2  N   UNK     1      -6.641  10.206  73.859  1.00  0.00     1.135 NA 
HETATM    3  H   UNK     1      -7.612  10.321  74.146  1.00  0.00     0.000 HD 
HETATM    4  C   UNK     1      -6.324   9.133  73.092  1.00  0.00     0.278 C  
HETATM    5  N   UNK     1      -7.444   8.488  72.674  1.00  0.00    -0.303 NA 
HETATM    6  N   UNK     1      -5.140   8.737  72.790  1.00  0.00    -0.048 NA 
HETATM    7  H   UNK     1      -8.362   8.911  72.809  1.00  0.00     0.000 HD 
HETATM    8  H2  UNK     1      -4.362   9.282  73.162  1.00  0.00     0.000 HD 
HETATM    9  H1  UNK     1      -4.901   7.930  72.213  1.00  0.00     0.000 HD 
ENDROOT
BRANCH   5  10
HETATM   10  C   UNK     1      -7.322   7.185  72.029  1.00  0.00    -0.081 C  
BRANCH  10  11
HETATM   11  C   UNK     1      -7.918   6.107  72.930  1.00  0.00    -0.105 C  
BRANCH  11  12
HETATM   12  C   UNK     1      -8.877   6.706  73.970  1.00  0.00    -0.171 C  
BRANCH  12  13
HETATM   13  C   UNK     1     -10.262   6.047  73.994  1.00  0.00    -0.288 C  
HETATM   14  C   UNK     1     -11.073   6.468  72.757  1.00  0.00    -0.245 C  
HETATM   15  N   UNK     1     -10.158   4.562  74.014  1.00  0.00    -0.167 NA 
HETATM   16  O   UNK     1     -11.647   7.534  72.619  1.00  0.00    -0.317 OA 
HETATM   17  O   UNK     1     -11.036   5.502  71.799  1.00  0.00    -0.240 OA 
HETATM   18  H1  UNK     1     -11.079   4.124  74.030  1.00  0.00     0.000 HD 
HETATM   19  H2  UNK     1      -9.577   4.238  74.786  1.00  0.00     0.000 HD 
ENDBRANCH  12  13
ENDBRANCH  11  12
ENDBRANCH  10  11
ENDBRANCH   5  10
TORSDOF 4
ENDMDL
MODEL      344
REMARK 921   NORMALIZED FREE ENERGY PREDICTED BY IDOCK:    0.72 KCAL/MOL
REMARK 922        TOTAL FREE ENERGY PREDICTED BY IDOCK:    0.45 KCAL/MOL
REMARK 923 INTER-LIGAND FREE ENERGY PREDICTED BY IDOCK:    0.75 KCAL/MOL
REMARK 924 INTRA-LIGAND FREE ENERGY PREDICTED BY IDOCK:   -0.30 KCAL/MOL
REMARK 927      BINDING AFFINITY PREDICTED BY RF-SCORE:    0.00 PKD
ROOT
HETATM    1  C   UNK     1      -5.681  11.196  74.293  1.00  0.00     1.163 C  
HETATM    2  N   UNK     1      -6.641  10.206  73.859  1.00  0.00     1.135 NA 
HETATM    3  H   UNK     1      -7.612  10.321  74.146  1.00  0.00     0.000 HD 
HETATM    4  C   UNK     1      -6.324   9.133  73.092  1.00  0.00     0.278 C  
HETATM    5  N   UNK     1      -7.444   8.488  72.674  1.00  0.00    -0.303 NA 
HETATM    6  N   UNK     1      -5.140   8.737  72.790  1.00  0.00    -0.048 NA 
HETATM    7  H   UNK     1      -8.362   8.911  72.809  1.00  0.00     0.000 HD 
HETATM    8  H2  UNK     1      -4.362   9.282  73.162  1.00  0.00     0.000 HD 
HETATM    9  H1  UNK     1      -4.901   7.930  72.213  1.00  0.00     0.000 HD 
ENDROOT
BRANCH   5  10
HETATM   10  C   UNK     1      -7.322   7.185  72.029  1.00  0.00    -0.081 C  
BRANCH  10  11
HETATM   11  C   UNK     1      -8.192   7.147  70.776  1.00  0.00    -0.120 C  
BRANCH  11  12
HETATM   12  C   UNK     1      -9.625   6.696  71.096  1.00  0.00    -0.177 C  
BRANCH  12  13
HETATM   13  C   UNK     1     -10.710   7.648  70.577  1.00  0.00    -0.236 C  
HETATM   14  C   UNK     1     -10.744   8.929  71.428  1.00  0.00    -0.312 C  
HETATM   15  N   UNK     1     -10.470   8.025  69.157  1.00  0.00    -0.235 NA 
HETATM   16  O   UNK     1     -11.260   9.032  72.527  1.00  0.00    -0.103 OA 
HETATM   17  O   UNK     1     -10.077   9.941  70.810  1.00  0.00    -0.214 OA 
HETATM   18  H1  UNK     1     -11.191   8.658  68.813  1.00  0.00     0.000 HD 
HETATM   19  H2  UNK     1     -10.380   7.201  68.563  1.00  0.00     0.000 HD 
ENDBRANCH  12  13
ENDBRANCH  11  12
ENDBRANCH  10  11
ENDBRANCH   5  10
TORSDOF 4
ENDMDL
MODEL      345
REMARK 921   NORMALIZED FREE ENERGY PREDICTED BY IDOCK:    0.77 KCAL/MOL
REMARK 922        TOTAL FREE ENERGY PREDICTED BY IDOCK:    0.51 KCAL/MOL
REMARK 923 INTER-LIGAND FREE ENERGY PREDICTED BY IDOCK:    0.56 KCAL/MOL
REMARK 924 INTRA-LIGAND FREE ENERGY PREDICTED BY IDOCK:   -0.04 KCAL/MOL
REMARK 927      BINDING AFFINITY PREDICTED BY RF-SCORE:    0.00 PKD
ROOT
HETATM    1  C   UNK     1      -5.681  11.196  74.293  1.00  0.00     1.163 C  
HETATM    2  N   UNK     1      -6.641  10.206  73.859  1.00  0.00     1.135 NA 
HETATM    3  H   UNK     1      -7.612  10.321  74.146  1.00  0.00     0.000 HD 
HETATM    4  C   UNK     1      -6.324   9.133  73.092  1.00  0.00     0.278 C  
HETATM    5  N   UNK     1      -7.444   8.488  72.674  1.00  0.00    -0.303 NA 
HETATM    6  N   UNK     1      -5.140   8.737  72.790  1.00  0.00    -0.048 NA 
HETATM    7  H   UNK     1      -8.362   8.911  72.809  1.00  0.00     0.000 HD 
HETATM    8  H2  UNK     1      -4.362   9.282  73.162  1.00  0.00     0.000 HD 
HETATM    9  H1  UNK     1      -4.901   7.930  72.213  1.00  0.00     0.000 HD 
ENDROOT
BRANCH   5  10
HETATM   10  C   UNK     1      -7.322   7.185  72.029  1.00  0.00    -0.081 C  
BRANCH  10  11
HETATM   11  C   UNK     1      -8.706   6.664  71.654  1.00  0.00    -0.130 C  
BRANCH  11  12
HETATM   12  C   UNK     1      -9.741   7.798  71.598  1.00  0.00    -0.200 C  
BRANCH  12  13
HETATM   13  C   UNK     1     -10.601   7.796  70.328  1.00  0.00    -0.231 C  
HETATM   14  C   UNK     1      -9.886   7.028  69.203  1.00  0.00    -0.158 C  
HETATM   15  N   UNK     1     -11.927   7.165  70.569  1.00  0.00    -0.541 NA 
HETATM   16  O   UNK     1      -8.978   7.464  68.518  1.00  0.00    -0.129 OA 
HETATM   17  O   UNK     1     -10.374   5.762  69.093  1.00  0.00    -0.199 OA 
HETATM   18  H1  UNK     1     -12.499   7.163  69.724  1.00  0.00     0.000 HD 
HETATM   19  H2  UNK     1     -12.414   7.605  71.349  1.00  0.00     0.000 HD 
ENDBRANCH  12  13
ENDBRANCH  11  12
ENDBRANCH  10  11
ENDBRANCH   5  10
TORSDOF 4
ENDMDL
MODEL      346
REMARK 921   NORMALIZED FREE ENERGY PREDICTED BY IDOCK:    1.36 KCAL/MOL
REMARK 922        TOTAL FREE ENERGY PREDICTED BY IDOCK:    1.24 KCAL/MOL
REMARK 923 INTER-LIGAND FREE ENERGY PREDICTED BY IDOCK:    1.51 KCAL/MOL
REMARK 924 INTRA-LIGAND FREE ENERGY PREDICTED BY IDOCK:   -0.27 KCAL/MOL
REMARK 927      BINDING AFFINITY PREDICTED BY RF-SCORE:    0.00 PKD
ROOT
HETATM    1  C   UNK     1      -5.681  11.196  74.293  1.00  0.00     1.163 C  
HETATM    2  N   UNK     1      -6.641  10.206  73.859  1.00  0.00     1.135 NA 
HETATM    3  H   UNK     1      -7.612  10.321  74.146  1.00  0.00     0.000 HD 
HETATM    4  C   UNK     1      -6.324   9.133  73.092  1.00  0.00     0.278 C  
HETATM    5  N   UNK     1      -7.444   8.488  72.674  1.00  0.00    -0.303 NA 
HETATM    6  N   UNK     1      -5.140   8.737  72.790  1.00  0.00    -0.048 NA 
HETATM    7  H   UNK     1      -8.362   8.911  72.809  1.00  0.00     0.000 HD 
HETATM    8  H2  UNK     1      -4.362   9.282  73.162  1.00  0.00     0.000 HD 
HETATM    9  H1  UNK     1      -4.901   7.930  72.213  1.00  0.00     0.000 HD 
ENDROOT
BRANCH   5  10
HETATM   10  C   UNK     1      -7.322   7.185  72.029  1.00  0.00    -0.081 C  
BRANCH  10  11
HETATM   11  C   UNK     1      -8.192   7.147  70.776  1.00  0.00    -0.120 C  
BRANCH  11  12
HETATM   12  C   UNK     1      -8.538   8.560  70.285  1.00  0.00    -0.137 C  
BRANCH  12  13
HETATM   13  C   UNK     1      -8.211   8.806  68.807  1.00  0.00    -0.116 C  
HETATM   14  C   UNK     1      -6.690   8.929  68.613  1.00  0.00    -0.059 C  
HETATM   15  N   UNK     1      -8.713   7.699  67.947  1.00  0.00    -0.125 NA 
HETATM   16  O   UNK     1      -6.026   9.919  68.864  1.00  0.00    -0.038 OA 
HETATM   17  O   UNK     1      -6.162   7.761  68.156  1.00  0.00    -0.042 OA 
HETATM   18  H1  UNK     1      -8.495   7.862  66.964  1.00  0.00     0.000 HD 
HETATM   19  H2  UNK     1      -9.711   7.540  68.087  1.00  0.00     0.000 HD 
ENDBRANCH  12  13
ENDBRANCH  11  12
ENDBRANCH  10  11
ENDBRANCH   5  10
TORSDOF 4
ENDMDL
