MODEL        1
REMARK 921   NORMALIZED FREE ENERGY PREDICTED BY IDOCK:   -6.09 KCAL/MOL
REMARK 922        TOTAL FREE ENERGY PREDICTED BY IDOCK:   -9.01 KCAL/MOL
REMARK 923 INTER-LIGAND FREE ENERGY PREDICTED BY IDOCK:   -8.22 KCAL/MOL
REMARK 924 INTRA-LIGAND FREE ENERGY PREDICTED BY IDOCK:   -0.79 KCAL/MOL
REMARK 927      BINDING AFFINITY PREDICTED BY RF-SCORE:    0.00 PKD
ROOT
HETATM    1  C   UNL     1     -10.958  15.637  64.931  1.00  0.00    -0.431 C  
HETATM    2  H   UNL     1     -11.817  16.023  63.218  1.00  0.00     0.000 HD 
HETATM    3  O   UNL     1     -11.539  16.534  63.968  1.00  0.00    -1.154 OA 
ENDROOT
BRANCH   1   4
HETATM    4  C   UNL     1     -10.506  16.468  66.151  1.00  0.00    -0.294 C  
BRANCH   4   5
HETATM    5  N   UNL     1      -9.321  17.288  65.884  1.00  0.00    -0.524 NA 
HETATM    6  C   UNL     1      -8.003  19.309  66.087  1.00  0.00    -0.306 C  
HETATM    7  C   UNL     1      -9.247  18.474  68.080  1.00  0.00    -0.315 C  
HETATM    8  C   UNL     1      -9.297  18.608  66.548  1.00  0.00    -0.320 C  
HETATM    9  H   UNL     1      -9.195  17.401  64.878  1.00  0.00     0.000 HD 
HETATM   10  C   UNL     1     -10.493  19.482  66.132  1.00  0.00    -0.613 C  
ENDBRANCH   4   5
ENDBRANCH   1   4
BRANCH   1  11
HETATM   11  C   UNL     1     -11.964  14.530  65.272  1.00  0.00    -0.353 C  
BRANCH  11  12
HETATM   12  O   UNL     1     -12.033  14.408  66.696  1.00  0.00    -0.407 OA 
BRANCH  12  13
HETATM   13  C   UNL     1     -11.685  13.189  67.190  1.00  0.00    -0.377 A  
HETATM   14  N   UNL     1     -11.541  12.155  66.359  1.00  0.00    -0.477 NA 
HETATM   15  S   UNL     1     -11.221  10.863  67.367  1.00  0.00    -0.196 SA 
HETATM   16  N   UNL     1     -11.284  11.610  68.856  1.00  0.00    -0.225 NA 
HETATM   17  C   UNL     1     -11.517  12.906  68.614  1.00  0.00    -0.308 A  
BRANCH  17  18
HETATM   18  N   UNL     1     -11.676  13.842  69.597  1.00  0.00    -0.293 NA 
HETATM   19  C   UNL     1     -10.717  14.921  69.842  1.00  0.00    -0.175 C  
HETATM   20  C   UNL     1     -11.504  16.205  70.157  1.00  0.00    -0.300 C  
HETATM   21  O   UNL     1     -12.385  16.015  71.279  1.00  0.00    -0.437 OA 
HETATM   22  C   UNL     1     -13.312  14.942  71.023  1.00  0.00    -0.393 C  
HETATM   23  C   UNL     1     -12.586  13.617  70.725  1.00  0.00    -0.325 C  
ENDBRANCH  17  18
ENDBRANCH  12  13
ENDBRANCH  11  12
ENDBRANCH   1  11
TORSDOF 6
ENDMDL
MODEL        2
REMARK 921   NORMALIZED FREE ENERGY PREDICTED BY IDOCK:   -5.83 KCAL/MOL
REMARK 922        TOTAL FREE ENERGY PREDICTED BY IDOCK:   -8.67 KCAL/MOL
REMARK 923 INTER-LIGAND FREE ENERGY PREDICTED BY IDOCK:   -7.37 KCAL/MOL
REMARK 924 INTRA-LIGAND FREE ENERGY PREDICTED BY IDOCK:   -1.30 KCAL/MOL
REMARK 927      BINDING AFFINITY PREDICTED BY RF-SCORE:    0.00 PKD
ROOT
HETATM    1  C   UNL     1     -12.240  12.925  65.296  1.00  0.00    -0.476 C  
HETATM    2  H   UNL     1     -12.162  13.935  63.625  1.00  0.00     0.000 HD 
HETATM    3  O   UNL     1     -11.626  13.272  64.043  1.00  0.00    -0.390 OA 
ENDROOT
BRANCH   1   4
HETATM    4  C   UNL     1     -11.368  11.848  65.976  1.00  0.00    -0.316 C  
BRANCH   4   5
HETATM    5  N   UNL     1     -11.795  11.538  67.344  1.00  0.00    -0.620 NA 
HETATM    6  C   UNL     1     -11.512  10.496  69.511  1.00  0.00    -0.339 C  
HETATM    7  C   UNL     1      -9.529  11.513  68.392  1.00  0.00    -0.195 C  
HETATM    8  C   UNL     1     -10.840  10.746  68.145  1.00  0.00    -0.236 C  
HETATM    9  H   UNL     1     -12.704  11.077  67.329  1.00  0.00     0.000 HD 
HETATM   10  C   UNL     1     -10.541   9.382  67.500  1.00  0.00    -0.333 C  
ENDBRANCH   4   5
ENDBRANCH   1   4
BRANCH   1  11
HETATM   11  C   UNL     1     -12.432  14.192  66.140  1.00  0.00    -0.395 C  
BRANCH  11  12
HETATM   12  O   UNL     1     -11.208  14.461  66.832  1.00  0.00    -0.314 OA 
BRANCH  12  13
HETATM   13  C   UNL     1     -11.349  14.857  68.126  1.00  0.00    -0.312 A  
HETATM   14  N   UNL     1     -12.084  14.125  68.965  1.00  0.00    -0.339 NA 
HETATM   15  S   UNL     1     -12.078  15.003  70.385  1.00  0.00    -0.362 SA 
HETATM   16  N   UNL     1     -11.159  16.318  69.931  1.00  0.00    -0.351 NA 
HETATM   17  C   UNL     1     -10.791  16.096  68.663  1.00  0.00    -0.311 A  
BRANCH  17  18
HETATM   18  N   UNL     1     -10.054  16.979  67.924  1.00  0.00    -0.293 NA 
HETATM   19  C   UNL     1      -8.601  16.881  67.768  1.00  0.00    -0.208 C  
HETATM   20  C   UNL     1      -8.248  17.218  66.310  1.00  0.00    -0.267 C  
HETATM   21  O   UNL     1      -8.734  18.523  65.944  1.00  0.00    -0.490 OA 
HETATM   22  C   UNL     1     -10.162  18.603  66.115  1.00  0.00    -0.416 C  
HETATM   23  C   UNL     1     -10.581  18.300  67.566  1.00  0.00    -0.409 C  
ENDBRANCH  17  18
ENDBRANCH  12  13
ENDBRANCH  11  12
ENDBRANCH   1  11
TORSDOF 6
ENDMDL
MODEL        3
REMARK 921   NORMALIZED FREE ENERGY PREDICTED BY IDOCK:   -5.83 KCAL/MOL
REMARK 922        TOTAL FREE ENERGY PREDICTED BY IDOCK:   -8.65 KCAL/MOL
REMARK 923 INTER-LIGAND FREE ENERGY PREDICTED BY IDOCK:   -7.81 KCAL/MOL
REMARK 924 INTRA-LIGAND FREE ENERGY PREDICTED BY IDOCK:   -0.84 KCAL/MOL
REMARK 927      BINDING AFFINITY PREDICTED BY RF-SCORE:    0.00 PKD
ROOT
HETATM    1  C   UNL     1     -11.305  12.060  68.196  1.00  0.00    -0.291 C  
HETATM    2  H   UNL     1     -11.641  10.164  68.535  1.00  0.00     0.000 HD 
HETATM    3  O   UNL     1     -11.885  10.787  67.861  1.00  0.00    -0.553 OA 
ENDROOT
BRANCH   1   4
HETATM    4  C   UNL     1     -11.702  13.072  67.101  1.00  0.00    -0.382 C  
BRANCH   4   5
HETATM    5  N   UNL     1     -12.245  12.437  65.897  1.00  0.00    -0.632 NA 
HETATM    6  C   UNL     1     -12.519  12.231  63.500  1.00  0.00    -0.642 C  
HETATM    7  C   UNL     1     -10.274  12.817  64.412  1.00  0.00    -0.344 C  
HETATM    8  C   UNL     1     -11.788  13.008  64.613  1.00  0.00    -0.372 C  
HETATM    9  H   UNL     1     -13.265  12.435  65.933  1.00  0.00     0.000 HD 
HETATM   10  C   UNL     1     -12.156  14.496  64.482  1.00  0.00    -0.501 C  
ENDBRANCH   4   5
ENDBRANCH   1   4
BRANCH   1  11
HETATM   11  C   UNL     1     -11.746  12.467  69.608  1.00  0.00    -0.302 C  
BRANCH  11  12
HETATM   12  O   UNL     1     -12.481  13.692  69.513  1.00  0.00    -0.241 OA 
BRANCH  12  13
HETATM   13  C   UNL     1     -12.383  14.511  70.596  1.00  0.00    -0.339 A  
HETATM   14  N   UNL     1     -13.165  14.302  71.656  1.00  0.00    -0.337 NA 
HETATM   15  S   UNL     1     -12.801  15.565  72.686  1.00  0.00    -0.475 SA 
HETATM   16  N   UNL     1     -11.669  16.386  71.780  1.00  0.00    -0.434 NA 
HETATM   17  C   UNL     1     -11.505  15.677  70.656  1.00  0.00    -0.375 A  
BRANCH  17  18
HETATM   18  N   UNL     1     -10.677  16.056  69.637  1.00  0.00    -0.290 NA 
HETATM   19  C   UNL     1     -11.148  16.734  68.427  1.00  0.00    -0.266 C  
HETATM   20  C   UNL     1     -10.128  17.824  68.056  1.00  0.00    -0.355 C  
HETATM   21  O   UNL     1      -8.813  17.267  67.872  1.00  0.00    -0.227 OA 
HETATM   22  C   UNL     1      -8.372  16.595  69.068  1.00  0.00    -0.182 C  
HETATM   23  C   UNL     1      -9.340  15.470  69.482  1.00  0.00    -0.276 C  
ENDBRANCH  17  18
ENDBRANCH  12  13
ENDBRANCH  11  12
ENDBRANCH   1  11
TORSDOF 6
ENDMDL
MODEL        4
REMARK 921   NORMALIZED FREE ENERGY PREDICTED BY IDOCK:   -5.80 KCAL/MOL
REMARK 922        TOTAL FREE ENERGY PREDICTED BY IDOCK:   -8.62 KCAL/MOL
REMARK 923 INTER-LIGAND FREE ENERGY PREDICTED BY IDOCK:   -8.00 KCAL/MOL
REMARK 924 INTRA-LIGAND FREE ENERGY PREDICTED BY IDOCK:   -0.63 KCAL/MOL
REMARK 927      BINDING AFFINITY PREDICTED BY RF-SCORE:    0.00 PKD
ROOT
HETATM    1  C   UNL     1     -10.545  15.754  66.077  1.00  0.00    -0.326 C  
HETATM    2  H   UNL     1     -10.989  15.521  64.188  1.00  0.00     0.000 HD 
HETATM    3  O   UNL     1     -10.781  16.257  64.751  1.00  0.00    -0.680 OA 
ENDROOT
BRANCH   1   4
HETATM    4  C   UNL     1     -10.207  16.950  66.993  1.00  0.00    -0.297 C  
BRANCH   4   5
HETATM    5  N   UNL     1      -9.157  17.815  66.448  1.00  0.00    -0.377 NA 
HETATM    6  C   UNL     1      -7.928  19.897  66.311  1.00  0.00    -0.346 C  
HETATM    7  C   UNL     1      -8.637  19.058  68.549  1.00  0.00    -0.393 C  
HETATM    8  C   UNL     1      -9.046  19.151  67.069  1.00  0.00    -0.294 C  
HETATM    9  H   UNL     1      -9.272  17.909  65.438  1.00  0.00     0.000 HD 
HETATM   10  C   UNL     1     -10.346  19.961  66.928  1.00  0.00    -0.596 C  
ENDBRANCH   4   5
ENDBRANCH   1   4
BRANCH   1  11
HETATM   11  C   UNL     1     -11.763  14.943  66.540  1.00  0.00    -0.199 C  
BRANCH  11  12
HETATM   12  O   UNL     1     -11.805  14.972  67.970  1.00  0.00    -0.335 OA 
BRANCH  12  13
HETATM   13  C   UNL     1     -11.766  13.754  68.576  1.00  0.00    -0.356 A  
HETATM   14  N   UNL     1     -11.496  12.665  67.854  1.00  0.00    -0.288 NA 
HETATM   15  S   UNL     1     -11.646  11.407  68.941  1.00  0.00    -0.352 SA 
HETATM   16  N   UNL     1     -12.072  12.240  70.320  1.00  0.00    -0.336 NA 
HETATM   17  C   UNL     1     -12.072  13.537  69.988  1.00  0.00    -0.341 A  
BRANCH  17  18
HETATM   18  N   UNL     1     -12.413  14.539  70.852  1.00  0.00    -0.320 NA 
HETATM   19  C   UNL     1     -13.718  15.203  70.840  1.00  0.00    -0.288 C  
HETATM   20  C   UNL     1     -14.159  15.430  72.296  1.00  0.00    -0.564 C  
HETATM   21  O   UNL     1     -13.182  16.197  73.023  1.00  0.00    -0.488 OA 
HETATM   22  C   UNL     1     -11.903  15.535  73.014  1.00  0.00    -0.445 C  
HETATM   23  C   UNL     1     -11.390  15.299  71.581  1.00  0.00    -0.373 C  
ENDBRANCH  17  18
ENDBRANCH  12  13
ENDBRANCH  11  12
ENDBRANCH   1  11
TORSDOF 6
ENDMDL
MODEL        5
REMARK 921   NORMALIZED FREE ENERGY PREDICTED BY IDOCK:   -5.78 KCAL/MOL
REMARK 922        TOTAL FREE ENERGY PREDICTED BY IDOCK:   -8.59 KCAL/MOL
REMARK 923 INTER-LIGAND FREE ENERGY PREDICTED BY IDOCK:   -8.26 KCAL/MOL
REMARK 924 INTRA-LIGAND FREE ENERGY PREDICTED BY IDOCK:   -0.34 KCAL/MOL
REMARK 927      BINDING AFFINITY PREDICTED BY RF-SCORE:    0.00 PKD
ROOT
HETATM    1  C   UNL     1     -11.685  15.068  64.558  1.00  0.00    -0.368 C  
HETATM    2  H   UNL     1     -13.141  15.583  63.361  1.00  0.00     0.000 HD 
HETATM    3  O   UNL     1     -12.390  16.021  63.744  1.00  0.00    -0.858 OA 
ENDROOT
BRANCH   1   4
HETATM    4  C   UNL     1     -10.464  15.779  65.182  1.00  0.00    -0.366 C  
BRANCH   4   5
HETATM    5  N   UNL     1     -10.613  17.236  65.241  1.00  0.00    -0.657 NA 
HETATM    6  C   UNL     1     -10.338  19.394  66.304  1.00  0.00    -0.584 C  
HETATM    7  C   UNL     1      -8.487  17.730  66.453  1.00  0.00    -0.270 C  
HETATM    8  C   UNL     1     -10.017  17.890  66.424  1.00  0.00    -0.358 C  
HETATM    9  H   UNL     1     -11.598  17.489  65.161  1.00  0.00     0.000 HD 
HETATM   10  C   UNL     1     -10.629  17.371  67.736  1.00  0.00    -0.371 C  
ENDBRANCH   4   5
ENDBRANCH   1   4
BRANCH   1  11
HETATM   11  C   UNL     1     -12.646  14.466  65.591  1.00  0.00    -0.322 C  
BRANCH  11  12
HETATM   12  O   UNL     1     -12.912  13.109  65.222  1.00  0.00    -0.661 OA 
BRANCH  12  13
HETATM   13  C   UNL     1     -11.825  12.395  64.821  1.00  0.00    -0.382 A  
HETATM   14  N   UNL     1     -11.650  12.132  63.524  1.00  0.00    -0.464 NA 
HETATM   15  S   UNL     1     -10.286  11.169  63.485  1.00  0.00    -0.359 SA 
HETATM   16  N   UNL     1      -9.931  11.070  65.110  1.00  0.00    -0.259 NA 
HETATM   17  C   UNL     1     -10.844  11.821  65.738  1.00  0.00    -0.291 A  
BRANCH  17  18
HETATM   18  N   UNL     1     -10.906  11.958  67.097  1.00  0.00    -0.242 NA 
HETATM   19  C   UNL     1     -10.520  13.183  67.801  1.00  0.00    -0.228 C  
HETATM   20  C   UNL     1     -11.531  13.428  68.934  1.00  0.00    -0.304 C  
HETATM   21  O   UNL     1     -11.595  12.301  69.828  1.00  0.00    -0.288 OA 
HETATM   22  C   UNL     1     -11.964  11.105  69.116  1.00  0.00    -0.343 C  
HETATM   23  C   UNL     1     -10.974  10.787  67.979  1.00  0.00    -0.283 C  
ENDBRANCH  17  18
ENDBRANCH  12  13
ENDBRANCH  11  12
ENDBRANCH   1  11
TORSDOF 6
ENDMDL
MODEL        6
REMARK 921   NORMALIZED FREE ENERGY PREDICTED BY IDOCK:   -5.78 KCAL/MOL
REMARK 922        TOTAL FREE ENERGY PREDICTED BY IDOCK:   -8.59 KCAL/MOL
REMARK 923 INTER-LIGAND FREE ENERGY PREDICTED BY IDOCK:   -7.76 KCAL/MOL
REMARK 924 INTRA-LIGAND FREE ENERGY PREDICTED BY IDOCK:   -0.83 KCAL/MOL
REMARK 927      BINDING AFFINITY PREDICTED BY RF-SCORE:    0.00 PKD
ROOT
HETATM    1  C   UNL     1     -11.196  11.285  68.029  1.00  0.00    -0.287 C  
HETATM    2  H   UNL     1     -12.383  10.985  69.552  1.00  0.00     0.000 HD 
HETATM    3  O   UNL     1     -12.489  11.046  68.610  1.00  0.00    -0.462 OA 
ENDROOT
BRANCH   1   4
HETATM    4  C   UNL     1     -11.368  11.385  66.498  1.00  0.00    -0.122 C  
BRANCH   4   5
HETATM    5  N   UNL     1     -11.935  12.665  66.063  1.00  0.00    -0.509 NA 
HETATM    6  C   UNL     1     -12.403  14.369  64.408  1.00  0.00    -0.428 C  
HETATM    7  C   UNL     1     -12.568  11.970  63.750  1.00  0.00    -0.567 C  
HETATM    8  C   UNL     1     -11.791  12.970  64.625  1.00  0.00    -0.372 C  
HETATM    9  H   UNL     1     -11.547  13.425  66.621  1.00  0.00     0.000 HD 
HETATM   10  C   UNL     1     -10.316  13.017  64.192  1.00  0.00    -0.345 C  
ENDBRANCH   4   5
ENDBRANCH   1   4
BRANCH   1  11
HETATM   11  C   UNL     1     -10.571  12.533  68.666  1.00  0.00    -0.216 C  
BRANCH  11  12
HETATM   12  O   UNL     1     -11.609  13.494  68.884  1.00  0.00    -0.276 OA 
BRANCH  12  13
HETATM   13  C   UNL     1     -11.212  14.795  68.843  1.00  0.00    -0.266 A  
HETATM   14  N   UNL     1     -10.464  15.226  67.826  1.00  0.00    -0.249 NA 
HETATM   15  S   UNL     1     -10.124  16.814  68.214  1.00  0.00    -0.291 SA 
HETATM   16  N   UNL     1     -10.908  16.949  69.678  1.00  0.00    -0.226 NA 
HETATM   17  C   UNL     1     -11.498  15.767  69.896  1.00  0.00    -0.346 A  
BRANCH  17  18
HETATM   18  N   UNL     1     -12.211  15.473  71.025  1.00  0.00    -0.362 NA 
HETATM   19  C   UNL     1     -13.459  14.707  71.012  1.00  0.00    -0.320 C  
HETATM   20  C   UNL     1     -13.452  13.752  72.217  1.00  0.00    -0.541 C  
HETATM   21  O   UNL     1     -13.285  14.471  73.453  1.00  0.00    -0.592 OA 
HETATM   22  C   UNL     1     -12.059  15.227  73.441  1.00  0.00    -0.465 C  
HETATM   23  C   UNL     1     -12.013  16.226  72.269  1.00  0.00    -0.520 C  
ENDBRANCH  17  18
ENDBRANCH  12  13
ENDBRANCH  11  12
ENDBRANCH   1  11
TORSDOF 6
ENDMDL
MODEL        7
REMARK 921   NORMALIZED FREE ENERGY PREDICTED BY IDOCK:   -5.73 KCAL/MOL
REMARK 922        TOTAL FREE ENERGY PREDICTED BY IDOCK:   -8.53 KCAL/MOL
REMARK 923 INTER-LIGAND FREE ENERGY PREDICTED BY IDOCK:   -7.75 KCAL/MOL
REMARK 924 INTRA-LIGAND FREE ENERGY PREDICTED BY IDOCK:   -0.77 KCAL/MOL
REMARK 927      BINDING AFFINITY PREDICTED BY RF-SCORE:    0.00 PKD
ROOT
HETATM    1  C   UNL     1     -10.716  16.289  69.402  1.00  0.00    -0.318 C  
HETATM    2  H   UNL     1     -10.472  15.266  71.050  1.00  0.00     0.000 HD 
HETATM    3  O   UNL     1      -9.930  15.488  70.303  1.00  0.00    -0.226 OA 
ENDROOT
BRANCH   1   4
HETATM    4  C   UNL     1      -9.835  16.651  68.187  1.00  0.00    -0.250 C  
BRANCH   4   5
HETATM    5  N   UNL     1     -10.453  17.641  67.301  1.00  0.00    -0.351 NA 
HETATM    6  C   UNL     1     -10.610  19.835  66.290  1.00  0.00    -0.572 C  
HETATM    7  C   UNL     1      -8.359  18.814  66.614  1.00  0.00    -0.296 C  
HETATM    8  C   UNL     1      -9.765  18.946  67.225  1.00  0.00    -0.311 C  
HETATM    9  H   UNL     1     -11.431  17.776  67.557  1.00  0.00     0.000 HD 
HETATM   10  C   UNL     1      -9.684  19.633  68.598  1.00  0.00    -0.486 C  
ENDBRANCH   4   5
ENDBRANCH   1   4
BRANCH   1  11
HETATM   11  C   UNL     1     -12.000  15.533  69.035  1.00  0.00    -0.301 C  
BRANCH  11  12
HETATM   12  O   UNL     1     -11.705  14.644  67.954  1.00  0.00    -0.339 OA 
BRANCH  12  13
HETATM   13  C   UNL     1     -11.805  13.319  68.249  1.00  0.00    -0.354 A  
HETATM   14  N   UNL     1     -11.929  12.933  69.520  1.00  0.00    -0.308 NA 
HETATM   15  S   UNL     1     -11.916  11.265  69.443  1.00  0.00    -0.329 SA 
HETATM   16  N   UNL     1     -11.733  11.033  67.803  1.00  0.00    -0.600 NA 
HETATM   17  C   UNL     1     -11.718  12.254  67.253  1.00  0.00    -0.324 A  
BRANCH  17  18
HETATM   18  N   UNL     1     -11.543  12.479  65.916  1.00  0.00    -0.384 NA 
HETATM   19  C   UNL     1     -10.231  12.681  65.298  1.00  0.00    -0.284 C  
HETATM   20  C   UNL     1     -10.211  11.938  63.952  1.00  0.00    -0.389 C  
HETATM   21  O   UNL     1     -11.275  12.387  63.092  1.00  0.00    -0.387 OA 
HETATM   22  C   UNL     1     -12.556  12.192  63.722  1.00  0.00    -0.475 C  
HETATM   23  C   UNL     1     -12.651  12.934  65.068  1.00  0.00    -0.472 C  
ENDBRANCH  17  18
ENDBRANCH  12  13
ENDBRANCH  11  12
ENDBRANCH   1  11
TORSDOF 6
ENDMDL
MODEL        8
REMARK 921   NORMALIZED FREE ENERGY PREDICTED BY IDOCK:   -5.69 KCAL/MOL
REMARK 922        TOTAL FREE ENERGY PREDICTED BY IDOCK:   -8.47 KCAL/MOL
REMARK 923 INTER-LIGAND FREE ENERGY PREDICTED BY IDOCK:   -7.44 KCAL/MOL
REMARK 924 INTRA-LIGAND FREE ENERGY PREDICTED BY IDOCK:   -1.04 KCAL/MOL
REMARK 927      BINDING AFFINITY PREDICTED BY RF-SCORE:    0.00 PKD
ROOT
HETATM    1  C   UNL     1     -12.099  11.516  69.872  1.00  0.00    -0.316 C  
HETATM    2  H   UNL     1     -10.966   9.923  69.866  1.00  0.00     0.000 HD 
HETATM    3  O   UNL     1     -11.339  10.489  70.532  1.00  0.00    -0.312 OA 
ENDROOT
BRANCH   1   4
HETATM    4  C   UNL     1     -12.705  12.435  70.955  1.00  0.00    -0.185 C  
BRANCH   4   5
HETATM    5  N   UNL     1     -12.032  13.733  71.053  1.00  0.00    -0.481 NA 
HETATM    6  C   UNL     1     -11.887  16.043  71.764  1.00  0.00    -0.599 C  
HETATM    7  C   UNL     1     -12.862  14.359  73.322  1.00  0.00    -0.413 C  
HETATM    8  C   UNL     1     -12.741  14.761  71.842  1.00  0.00    -0.328 C  
HETATM    9  H   UNL     1     -11.826  14.090  70.120  1.00  0.00     0.000 HD 
HETATM   10  C   UNL     1     -14.131  15.073  71.263  1.00  0.00    -0.516 C  
ENDBRANCH   4   5
ENDBRANCH   1   4
BRANCH   1  11
HETATM   11  C   UNL     1     -11.203  12.249  68.866  1.00  0.00    -0.273 C  
BRANCH  11  12
HETATM   12  O   UNL     1     -12.015  13.163  68.123  1.00  0.00    -0.344 OA 
BRANCH  12  13
HETATM   13  C   UNL     1     -11.718  13.257  66.798  1.00  0.00    -0.385 A  
HETATM   14  N   UNL     1     -12.244  12.381  65.939  1.00  0.00    -0.632 NA 
HETATM   15  S   UNL     1     -11.554  12.784  64.473  1.00  0.00    -0.373 SA 
HETATM   16  N   UNL     1     -10.576  14.054  64.930  1.00  0.00    -0.404 NA 
HETATM   17  C   UNL     1     -10.786  14.234  66.240  1.00  0.00    -0.297 A  
BRANCH  17  18
HETATM   18  N   UNL     1     -10.128  15.168  66.991  1.00  0.00    -0.241 NA 
HETATM   19  C   UNL     1     -10.405  16.604  66.911  1.00  0.00    -0.299 C  
HETATM   20  C   UNL     1     -10.365  17.184  68.335  1.00  0.00    -0.362 C  
HETATM   21  O   UNL     1      -9.099  16.923  68.969  1.00  0.00    -0.254 OA 
HETATM   22  C   UNL     1      -8.840  15.507  69.027  1.00  0.00    -0.242 C  
HETATM   23  C   UNL     1      -8.841  14.867  67.626  1.00  0.00    -0.181 C  
ENDBRANCH  17  18
ENDBRANCH  12  13
ENDBRANCH  11  12
ENDBRANCH   1  11
TORSDOF 6
ENDMDL
MODEL        9
REMARK 921   NORMALIZED FREE ENERGY PREDICTED BY IDOCK:   -5.66 KCAL/MOL
REMARK 922        TOTAL FREE ENERGY PREDICTED BY IDOCK:   -8.44 KCAL/MOL
REMARK 923 INTER-LIGAND FREE ENERGY PREDICTED BY IDOCK:   -7.83 KCAL/MOL
REMARK 924 INTRA-LIGAND FREE ENERGY PREDICTED BY IDOCK:   -0.61 KCAL/MOL
REMARK 927      BINDING AFFINITY PREDICTED BY RF-SCORE:    0.00 PKD
ROOT
HETATM    1  C   UNL     1     -11.979  11.477  69.224  1.00  0.00    -0.330 C  
HETATM    2  H   UNL     1     -12.209  11.264  67.295  1.00  0.00     0.000 HD 
HETATM    3  O   UNL     1     -11.893  10.719  68.005  1.00  0.00    -0.546 OA 
ENDROOT
BRANCH   1   4
HETATM    4  C   UNL     1     -11.465  10.590  70.379  1.00  0.00    -0.341 C  
BRANCH   4   5
HETATM    5  N   UNL     1     -11.866   9.187  70.251  1.00  0.00    -0.468 NA 
HETATM    6  C   UNL     1     -12.460   7.019  71.152  1.00  0.00    -0.407 C  
HETATM    7  C   UNL     1     -13.299   9.072  72.292  1.00  0.00    -0.523 C  
HETATM    8  C   UNL     1     -12.108   8.475  71.523  1.00  0.00    -0.304 C  
HETATM    9  H   UNL     1     -11.182   8.678  69.691  1.00  0.00     0.000 HD 
HETATM   10  C   UNL     1     -10.857   8.454  72.417  1.00  0.00    -0.416 C  
ENDBRANCH   4   5
ENDBRANCH   1   4
BRANCH   1  11
HETATM   11  C   UNL     1     -11.209  12.794  69.062  1.00  0.00    -0.264 C  
BRANCH  11  12
HETATM   12  O   UNL     1     -12.074  13.748  68.439  1.00  0.00    -0.368 OA 
BRANCH  12  13
HETATM   13  C   UNL     1     -11.443  14.761  67.783  1.00  0.00    -0.345 A  
HETATM   14  N   UNL     1     -11.251  15.928  68.400  1.00  0.00    -0.353 NA 
HETATM   15  S   UNL     1     -10.555  16.896  67.232  1.00  0.00    -0.220 SA 
HETATM   16  N   UNL     1     -10.515  15.843  65.941  1.00  0.00    -0.341 NA 
HETATM   17  C   UNL     1     -11.008  14.682  66.391  1.00  0.00    -0.325 A  
BRANCH  17  18
HETATM   18  N   UNL     1     -11.174  13.576  65.606  1.00  0.00    -0.292 NA 
HETATM   19  C   UNL     1     -12.482  13.103  65.147  1.00  0.00    -0.483 C  
HETATM   20  C   UNL     1     -12.343  12.640  63.687  1.00  0.00    -0.492 C  
HETATM   21  O   UNL     1     -11.336  11.618  63.558  1.00  0.00    -0.417 OA 
HETATM   22  C   UNL     1     -10.061  12.098  64.025  1.00  0.00    -0.331 C  
HETATM   23  C   UNL     1     -10.125  12.556  65.494  1.00  0.00    -0.265 C  
ENDBRANCH  17  18
ENDBRANCH  12  13
ENDBRANCH  11  12
ENDBRANCH   1  11
TORSDOF 6
ENDMDL
MODEL       10
REMARK 921   NORMALIZED FREE ENERGY PREDICTED BY IDOCK:   -5.64 KCAL/MOL
REMARK 922        TOTAL FREE ENERGY PREDICTED BY IDOCK:   -8.40 KCAL/MOL
REMARK 923 INTER-LIGAND FREE ENERGY PREDICTED BY IDOCK:   -7.37 KCAL/MOL
REMARK 924 INTRA-LIGAND FREE ENERGY PREDICTED BY IDOCK:   -1.03 KCAL/MOL
REMARK 927      BINDING AFFINITY PREDICTED BY RF-SCORE:    0.00 PKD
ROOT
HETATM    1  C   UNL     1     -10.544   8.858  67.753  1.00  0.00    -0.202 C  
HETATM    2  H   UNL     1      -9.597   8.377  66.112  1.00  0.00     0.000 HD 
HETATM    3  O   UNL     1      -9.488   8.193  67.037  1.00  0.00    -0.156 OA 
ENDROOT
BRANCH   1   4
HETATM    4  C   UNL     1     -10.367   8.559  69.257  1.00  0.00    -0.221 C  
BRANCH   4   5
HETATM    5  N   UNL     1     -11.486   9.035  70.076  1.00  0.00    -0.449 NA 
HETATM    6  C   UNL     1     -12.988   8.898  71.969  1.00  0.00    -0.454 C  
HETATM    7  C   UNL     1     -10.579   8.344  72.297  1.00  0.00    -0.412 C  
HETATM    8  C   UNL     1     -11.752   8.259  71.304  1.00  0.00    -0.283 C  
HETATM    9  H   UNL     1     -12.332   9.093  69.509  1.00  0.00     0.000 HD 
HETATM   10  C   UNL     1     -12.078   6.788  70.995  1.00  0.00    -0.426 C  
ENDBRANCH   4   5
ENDBRANCH   1   4
BRANCH   1  11
HETATM   11  C   UNL     1     -10.531  10.353  67.411  1.00  0.00    -0.249 C  
BRANCH  11  12
HETATM   12  O   UNL     1     -11.788  10.915  67.801  1.00  0.00    -0.579 OA 
BRANCH  12  13
HETATM   13  C   UNL     1     -11.731  12.187  68.281  1.00  0.00    -0.342 A  
HETATM   14  N   UNL     1     -11.794  12.401  69.596  1.00  0.00    -0.319 NA 
HETATM   15  S   UNL     1     -11.794  14.065  69.738  1.00  0.00    -0.340 SA 
HETATM   16  N   UNL     1     -11.734  14.513  68.134  1.00  0.00    -0.331 NA 
HETATM   17  C   UNL     1     -11.670  13.375  67.432  1.00  0.00    -0.373 A  
BRANCH  17  18
HETATM   18  N   UNL     1     -11.647  13.329  66.066  1.00  0.00    -0.335 NA 
HETATM   19  C   UNL     1     -10.442  13.586  65.272  1.00  0.00    -0.336 C  
HETATM   20  C   UNL     1     -10.407  12.581  64.109  1.00  0.00    -0.390 C  
HETATM   21  O   UNL     1     -11.599  12.670  63.306  1.00  0.00    -0.489 OA 
HETATM   22  C   UNL     1     -12.772  12.427  64.106  1.00  0.00    -0.347 C  
HETATM   23  C   UNL     1     -12.882  13.420  65.278  1.00  0.00    -0.334 C  
ENDBRANCH  17  18
ENDBRANCH  12  13
ENDBRANCH  11  12
ENDBRANCH   1  11
TORSDOF 6
ENDMDL
MODEL       11
REMARK 921   NORMALIZED FREE ENERGY PREDICTED BY IDOCK:   -5.57 KCAL/MOL
REMARK 922        TOTAL FREE ENERGY PREDICTED BY IDOCK:   -8.31 KCAL/MOL
REMARK 923 INTER-LIGAND FREE ENERGY PREDICTED BY IDOCK:   -7.96 KCAL/MOL
REMARK 924 INTRA-LIGAND FREE ENERGY PREDICTED BY IDOCK:   -0.35 KCAL/MOL
REMARK 927      BINDING AFFINITY PREDICTED BY RF-SCORE:    0.00 PKD
ROOT
HETATM    1  C   UNL     1     -12.623  11.366  70.648  1.00  0.00    -0.271 C  
HETATM    2  H   UNL     1     -11.673   9.668  70.838  1.00  0.00     0.000 HD 
HETATM    3  O   UNL     1     -11.928  10.372  71.422  1.00  0.00    -0.354 OA 
ENDROOT
BRANCH   1   4
HETATM    4  C   UNL     1     -13.037  12.511  71.597  1.00  0.00    -0.315 C  
BRANCH   4   5
HETATM    5  N   UNL     1     -12.302  13.756  71.353  1.00  0.00    -0.313 NA 
HETATM    6  C   UNL     1     -11.946  16.138  71.601  1.00  0.00    -0.528 C  
HETATM    7  C   UNL     1     -12.727  14.823  73.570  1.00  0.00    -0.566 C  
HETATM    8  C   UNL     1     -12.830  14.952  72.040  1.00  0.00    -0.325 C  
HETATM    9  H   UNL     1     -12.235  13.930  70.351  1.00  0.00     0.000 HD 
HETATM   10  C   UNL     1     -14.281  15.257  71.631  1.00  0.00    -0.654 C  
ENDBRANCH   4   5
ENDBRANCH   1   4
BRANCH   1  11
HETATM   11  C   UNL     1     -11.737  11.817  69.480  1.00  0.00    -0.343 C  
BRANCH  11  12
HETATM   12  O   UNL     1     -12.141  11.102  68.307  1.00  0.00    -0.620 OA 
BRANCH  12  13
HETATM   13  C   UNL     1     -11.123  10.674  67.511  1.00  0.00    -0.300 A  
HETATM   14  N   UNL     1     -10.295   9.725  67.949  1.00  0.00    -0.198 NA 
HETATM   15  S   UNL     1      -9.161   9.579  66.732  1.00  0.00    -0.155 SA 
HETATM   16  N   UNL     1      -9.710  10.731  65.659  1.00  0.00    -0.223 NA 
HETATM   17  C   UNL     1     -10.824  11.242  66.198  1.00  0.00    -0.222 A  
BRANCH  17  18
HETATM   18  N   UNL     1     -11.546  12.252  65.627  1.00  0.00    -0.374 NA 
HETATM   19  C   UNL     1     -11.945  13.464  66.346  1.00  0.00    -0.406 C  
HETATM   20  C   UNL     1     -11.782  14.664  65.399  1.00  0.00    -0.330 C  
HETATM   21  O   UNL     1     -12.551  14.486  64.194  1.00  0.00    -0.730 OA 
HETATM   22  C   UNL     1     -12.153  13.284  63.508  1.00  0.00    -0.482 C  
HETATM   23  C   UNL     1     -12.316  12.036  64.396  1.00  0.00    -0.251 C  
ENDBRANCH  17  18
ENDBRANCH  12  13
ENDBRANCH  11  12
ENDBRANCH   1  11
TORSDOF 6
ENDMDL
MODEL       12
REMARK 921   NORMALIZED FREE ENERGY PREDICTED BY IDOCK:   -5.55 KCAL/MOL
REMARK 922        TOTAL FREE ENERGY PREDICTED BY IDOCK:   -8.28 KCAL/MOL
REMARK 923 INTER-LIGAND FREE ENERGY PREDICTED BY IDOCK:   -7.76 KCAL/MOL
REMARK 924 INTRA-LIGAND FREE ENERGY PREDICTED BY IDOCK:   -0.52 KCAL/MOL
REMARK 927      BINDING AFFINITY PREDICTED BY RF-SCORE:    0.00 PKD
ROOT
HETATM    1  C   UNL     1     -11.989  11.062  69.258  1.00  0.00    -0.339 C  
HETATM    2  H   UNL     1     -12.459  11.535  67.420  1.00  0.00     0.000 HD 
HETATM    3  O   UNL     1     -11.926  10.867  67.835  1.00  0.00    -0.585 OA 
ENDROOT
BRANCH   1   4
HETATM    4  C   UNL     1     -11.123   9.977  69.932  1.00  0.00    -0.288 C  
BRANCH   4   5
HETATM    5  N   UNL     1     -11.874   8.763  70.266  1.00  0.00    -0.466 NA 
HETATM    6  C   UNL     1     -12.797   7.154  71.822  1.00  0.00    -0.368 C  
HETATM    7  C   UNL     1     -12.868   9.577  72.407  1.00  0.00    -0.361 C  
HETATM    8  C   UNL     1     -12.033   8.489  71.709  1.00  0.00    -0.332 C  
HETATM    9  H   UNL     1     -11.458   7.957  69.801  1.00  0.00     0.000 HD 
HETATM   10  C   UNL     1     -10.676   8.328  72.416  1.00  0.00    -0.411 C  
ENDBRANCH   4   5
ENDBRANCH   1   4
BRANCH   1  11
HETATM   11  C   UNL     1     -11.562  12.496  69.597  1.00  0.00    -0.253 C  
BRANCH  11  12
HETATM   12  O   UNL     1     -12.348  13.398  68.811  1.00  0.00    -0.205 OA 
BRANCH  12  13
HETATM   13  C   UNL     1     -11.794  14.625  68.610  1.00  0.00    -0.311 A  
HETATM   14  N   UNL     1     -11.160  14.884  67.465  1.00  0.00    -0.307 NA 
HETATM   15  S   UNL     1     -10.559  16.428  67.673  1.00  0.00    -0.301 SA 
HETATM   16  N   UNL     1     -11.086  16.759  69.219  1.00  0.00    -0.203 NA 
HETATM   17  C   UNL     1     -11.786  15.688  69.612  1.00  0.00    -0.362 A  
BRANCH  17  18
HETATM   18  N   UNL     1     -12.350  15.566  70.851  1.00  0.00    -0.389 NA 
HETATM   19  C   UNL     1     -13.769  15.270  71.064  1.00  0.00    -0.380 C  
HETATM   20  C   UNL     1     -13.885  14.278  72.234  1.00  0.00    -0.524 C  
HETATM   21  O   UNL     1     -13.269  14.801  73.425  1.00  0.00    -0.565 OA 
HETATM   22  C   UNL     1     -11.878  15.097  73.192  1.00  0.00    -0.327 C  
HETATM   23  C   UNL     1     -11.693  16.109  72.045  1.00  0.00    -0.485 C  
ENDBRANCH  17  18
ENDBRANCH  12  13
ENDBRANCH  11  12
ENDBRANCH   1  11
TORSDOF 6
ENDMDL
MODEL       13
REMARK 921   NORMALIZED FREE ENERGY PREDICTED BY IDOCK:   -5.55 KCAL/MOL
REMARK 922        TOTAL FREE ENERGY PREDICTED BY IDOCK:   -8.28 KCAL/MOL
REMARK 923 INTER-LIGAND FREE ENERGY PREDICTED BY IDOCK:   -7.28 KCAL/MOL
REMARK 924 INTRA-LIGAND FREE ENERGY PREDICTED BY IDOCK:   -1.00 KCAL/MOL
REMARK 927      BINDING AFFINITY PREDICTED BY RF-SCORE:    0.00 PKD
ROOT
HETATM    1  C   UNL     1     -12.579  11.261  70.524  1.00  0.00    -0.246 C  
HETATM    2  H   UNL     1     -12.078   9.378  70.676  1.00  0.00     0.000 HD 
HETATM    3  O   UNL     1     -12.293  10.074  71.285  1.00  0.00    -0.337 OA 
ENDROOT
BRANCH   1   4
HETATM    4  C   UNL     1     -12.928  12.393  71.514  1.00  0.00    -0.285 C  
BRANCH   4   5
HETATM    5  N   UNL     1     -12.136  13.608  71.305  1.00  0.00    -0.392 NA 
HETATM    6  C   UNL     1     -11.747  15.991  71.484  1.00  0.00    -0.554 C  
HETATM    7  C   UNL     1     -12.794  14.790  73.403  1.00  0.00    -0.597 C  
HETATM    8  C   UNL     1     -12.709  14.848  71.867  1.00  0.00    -0.326 C  
HETATM    9  H   UNL     1     -11.945  13.732  70.311  1.00  0.00     0.000 HD 
HETATM   10  C   UNL     1     -14.092  15.163  71.272  1.00  0.00    -0.537 C  
ENDBRANCH   4   5
ENDBRANCH   1   4
BRANCH   1  11
HETATM   11  C   UNL     1     -11.390  11.582  69.610  1.00  0.00    -0.256 C  
BRANCH  11  12
HETATM   12  O   UNL     1     -11.845  12.454  68.570  1.00  0.00    -0.314 OA 
BRANCH  12  13
HETATM   13  C   UNL     1     -10.930  13.363  68.135  1.00  0.00    -0.255 A  
HETATM   14  N   UNL     1     -10.383  14.217  69.002  1.00  0.00    -0.195 NA 
HETATM   15  S   UNL     1      -9.420  15.199  68.055  1.00  0.00    -0.201 SA 
HETATM   16  N   UNL     1      -9.711  14.554  66.547  1.00  0.00    -0.273 NA 
HETATM   17  C   UNL     1     -10.542  13.521  66.736  1.00  0.00    -0.272 A  
BRANCH  17  18
HETATM   18  N   UNL     1     -11.044  12.758  65.719  1.00  0.00    -0.279 NA 
HETATM   19  C   UNL     1     -12.355  12.993  65.110  1.00  0.00    -0.484 C  
HETATM   20  C   UNL     1     -12.226  12.787  63.591  1.00  0.00    -0.512 C  
HETATM   21  O   UNL     1     -11.727  11.473  63.283  1.00  0.00    -0.293 OA 
HETATM   22  C   UNL     1     -10.443  11.257  63.900  1.00  0.00    -0.391 C  
HETATM   23  C   UNL     1     -10.509  11.423  65.430  1.00  0.00    -0.280 C  
ENDBRANCH  17  18
ENDBRANCH  12  13
ENDBRANCH  11  12
ENDBRANCH   1  11
TORSDOF 6
ENDMDL
MODEL       14
REMARK 921   NORMALIZED FREE ENERGY PREDICTED BY IDOCK:   -5.52 KCAL/MOL
REMARK 922        TOTAL FREE ENERGY PREDICTED BY IDOCK:   -8.24 KCAL/MOL
REMARK 923 INTER-LIGAND FREE ENERGY PREDICTED BY IDOCK:   -7.08 KCAL/MOL
REMARK 924 INTRA-LIGAND FREE ENERGY PREDICTED BY IDOCK:   -1.17 KCAL/MOL
REMARK 927      BINDING AFFINITY PREDICTED BY RF-SCORE:    0.00 PKD
ROOT
HETATM    1  C   UNL     1     -12.690   9.569  72.020  1.00  0.00    -0.396 C  
HETATM    2  H   UNL     1     -14.320   9.738  73.085  1.00  0.00     0.000 HD 
HETATM    3  O   UNL     1     -13.844   9.022  72.682  1.00  0.00    -0.467 OA 
ENDROOT
BRANCH   1   4
HETATM    4  C   UNL     1     -11.915   8.406  71.365  1.00  0.00    -0.297 C  
BRANCH   4   5
HETATM    5  N   UNL     1     -11.651   8.619  69.939  1.00  0.00    -0.431 NA 
HETATM    6  C   UNL     1     -10.194   8.772  68.011  1.00  0.00    -0.264 C  
HETATM    7  C   UNL     1      -9.762   7.003  69.713  1.00  0.00    -0.168 C  
HETATM    8  C   UNL     1     -10.245   8.450  69.519  1.00  0.00    -0.207 C  
HETATM    9  H   UNL     1     -11.992   9.537  69.655  1.00  0.00     0.000 HD 
HETATM   10  C   UNL     1      -9.306   9.425  70.250  1.00  0.00    -0.294 C  
ENDBRANCH   4   5
ENDBRANCH   1   4
BRANCH   1  11
HETATM   11  C   UNL     1     -13.134  10.654  71.031  1.00  0.00    -0.286 C  
BRANCH  11  12
HETATM   12  O   UNL     1     -12.161  11.704  71.048  1.00  0.00    -0.335 OA 
BRANCH  12  13
HETATM   13  C   UNL     1     -12.027  12.388  69.879  1.00  0.00    -0.299 A  
HETATM   14  N   UNL     1     -11.661  11.740  68.772  1.00  0.00    -0.281 NA 
HETATM   15  S   UNL     1     -11.518  12.943  67.623  1.00  0.00    -0.356 SA 
HETATM   16  N   UNL     1     -11.902  14.286  68.533  1.00  0.00    -0.346 NA 
HETATM   17  C   UNL     1     -12.194  13.835  69.759  1.00  0.00    -0.310 A  
BRANCH  17  18
HETATM   18  N   UNL     1     -12.521  14.649  70.807  1.00  0.00    -0.318 NA 
HETATM   19  C   UNL     1     -13.829  15.294  70.947  1.00  0.00    -0.234 C  
HETATM   20  C   UNL     1     -14.242  15.233  72.427  1.00  0.00    -0.486 C  
HETATM   21  O   UNL     1     -13.253  15.852  73.271  1.00  0.00    -0.540 OA 
HETATM   22  C   UNL     1     -11.973  15.212  73.110  1.00  0.00    -0.360 C  
HETATM   23  C   UNL     1     -11.487  15.261  71.649  1.00  0.00    -0.405 C  
ENDBRANCH  17  18
ENDBRANCH  12  13
ENDBRANCH  11  12
ENDBRANCH   1  11
TORSDOF 6
ENDMDL
MODEL       15
REMARK 921   NORMALIZED FREE ENERGY PREDICTED BY IDOCK:   -5.50 KCAL/MOL
REMARK 922        TOTAL FREE ENERGY PREDICTED BY IDOCK:   -8.22 KCAL/MOL
REMARK 923 INTER-LIGAND FREE ENERGY PREDICTED BY IDOCK:   -7.67 KCAL/MOL
REMARK 924 INTRA-LIGAND FREE ENERGY PREDICTED BY IDOCK:   -0.54 KCAL/MOL
REMARK 927      BINDING AFFINITY PREDICTED BY RF-SCORE:    0.00 PKD
ROOT
HETATM    1  C   UNL     1     -12.845   9.464  72.165  1.00  0.00    -0.401 C  
HETATM    2  H   UNL     1     -14.761   9.082  72.227  1.00  0.00     0.000 HD 
HETATM    3  O   UNL     1     -13.964   8.568  72.277  1.00  0.00    -0.385 OA 
ENDROOT
BRANCH   1   4
HETATM    4  C   UNL     1     -11.550   8.627  72.246  1.00  0.00    -0.354 C  
BRANCH   4   5
HETATM    5  N   UNL     1     -11.749   7.313  72.864  1.00  0.00    -0.561 NA 
HETATM    6  C   UNL     1     -11.263   4.957  73.134  1.00  0.00    -0.403 C  
HETATM    7  C   UNL     1      -9.376   6.545  72.764  1.00  0.00    -0.146 C  
HETATM    8  C   UNL     1     -10.841   6.246  72.399  1.00  0.00    -0.243 C  
HETATM    9  H   UNL     1     -12.719   7.019  72.752  1.00  0.00     0.000 HD 
HETATM   10  C   UNL     1     -10.969   6.000  70.886  1.00  0.00    -0.355 C  
ENDBRANCH   4   5
ENDBRANCH   1   4
BRANCH   1  11
HETATM   11  C   UNL     1     -12.974  10.285  70.875  1.00  0.00    -0.371 C  
BRANCH  11  12
HETATM   12  O   UNL     1     -11.991  11.324  70.903  1.00  0.00    -0.326 OA 
BRANCH  12  13
HETATM   13  C   UNL     1     -11.980  12.141  69.814  1.00  0.00    -0.302 A  
HETATM   14  N   UNL     1     -11.630  11.650  68.624  1.00  0.00    -0.285 NA 
HETATM   15  S   UNL     1     -11.650  12.980  67.614  1.00  0.00    -0.371 SA 
HETATM   16  N   UNL     1     -12.083  14.178  68.688  1.00  0.00    -0.325 NA 
HETATM   17  C   UNL     1     -12.267  13.572  69.868  1.00  0.00    -0.292 A  
BRANCH  17  18
HETATM   18  N   UNL     1     -12.595  14.237  71.017  1.00  0.00    -0.335 NA 
HETATM   19  C   UNL     1     -11.602  14.848  71.904  1.00  0.00    -0.260 C  
HETATM   20  C   UNL     1     -12.155  16.199  72.389  1.00  0.00    -0.540 C  
HETATM   21  O   UNL     1     -13.425  16.037  73.047  1.00  0.00    -0.550 OA 
HETATM   22  C   UNL     1     -14.383  15.423  72.164  1.00  0.00    -0.544 C  
HETATM   23  C   UNL     1     -13.900  14.050  71.660  1.00  0.00    -0.325 C  
ENDBRANCH  17  18
ENDBRANCH  12  13
ENDBRANCH  11  12
ENDBRANCH   1  11
TORSDOF 6
ENDMDL
MODEL       16
REMARK 921   NORMALIZED FREE ENERGY PREDICTED BY IDOCK:   -5.50 KCAL/MOL
REMARK 922        TOTAL FREE ENERGY PREDICTED BY IDOCK:   -8.22 KCAL/MOL
REMARK 923 INTER-LIGAND FREE ENERGY PREDICTED BY IDOCK:   -7.42 KCAL/MOL
REMARK 924 INTRA-LIGAND FREE ENERGY PREDICTED BY IDOCK:   -0.80 KCAL/MOL
REMARK 927      BINDING AFFINITY PREDICTED BY RF-SCORE:    0.00 PKD
ROOT
HETATM    1  C   UNL     1     -10.793  14.308  68.497  1.00  0.00    -0.253 C  
HETATM    2  H   UNL     1      -9.593  14.243  66.955  1.00  0.00     0.000 HD 
HETATM    3  O   UNL     1      -9.744  14.846  67.673  1.00  0.00    -0.210 OA 
ENDROOT
BRANCH   1   4
HETATM    4  C   UNL     1     -11.039  15.289  69.663  1.00  0.00    -0.276 C  
BRANCH   4   5
HETATM    5  N   UNL     1     -12.460  15.466  69.979  1.00  0.00    -0.551 NA 
HETATM    6  C   UNL     1     -14.379  15.331  71.449  1.00  0.00    -0.578 C  
HETATM    7  C   UNL     1     -12.185  16.051  72.390  1.00  0.00    -0.603 C  
HETATM    8  C   UNL     1     -12.853  15.123  71.361  1.00  0.00    -0.385 C  
HETATM    9  H   UNL     1     -13.032  14.946  69.314  1.00  0.00     0.000 HD 
HETATM   10  C   UNL     1     -12.548  13.653  71.697  1.00  0.00    -0.343 C  
ENDBRANCH   4   5
ENDBRANCH   1   4
BRANCH   1  11
HETATM   11  C   UNL     1     -12.035  14.045  67.635  1.00  0.00    -0.368 C  
BRANCH  11  12
HETATM   12  O   UNL     1     -11.991  12.687  67.186  1.00  0.00    -0.437 OA 
BRANCH  12  13
HETATM   13  C   UNL     1     -11.833  12.525  65.844  1.00  0.00    -0.430 A  
HETATM   14  N   UNL     1     -12.674  13.128  65.002  1.00  0.00    -0.686 NA 
HETATM   15  S   UNL     1     -12.195  12.591  63.495  1.00  0.00    -0.524 SA 
HETATM   16  N   UNL     1     -10.936  11.582  63.911  1.00  0.00    -0.386 NA 
HETATM   17  C   UNL     1     -10.820  11.661  65.243  1.00  0.00    -0.283 A  
BRANCH  17  18
HETATM   18  N   UNL     1      -9.914  10.938  65.967  1.00  0.00    -0.230 NA 
HETATM   19  C   UNL     1      -8.670  11.504  66.495  1.00  0.00    -0.183 C  
HETATM   20  C   UNL     1      -8.444  10.940  67.908  1.00  0.00    -0.129 C  
HETATM   21  O   UNL     1      -8.407   9.501  67.895  1.00  0.00    -0.114 OA 
HETATM   22  C   UNL     1      -9.633   8.963  67.362  1.00  0.00    -0.157 C  
HETATM   23  C   UNL     1      -9.907   9.471  65.934  1.00  0.00    -0.290 C  
ENDBRANCH  17  18
ENDBRANCH  12  13
ENDBRANCH  11  12
ENDBRANCH   1  11
TORSDOF 6
ENDMDL
MODEL       17
REMARK 921   NORMALIZED FREE ENERGY PREDICTED BY IDOCK:   -5.49 KCAL/MOL
REMARK 922        TOTAL FREE ENERGY PREDICTED BY IDOCK:   -8.21 KCAL/MOL
REMARK 923 INTER-LIGAND FREE ENERGY PREDICTED BY IDOCK:   -7.43 KCAL/MOL
REMARK 924 INTRA-LIGAND FREE ENERGY PREDICTED BY IDOCK:   -0.77 KCAL/MOL
REMARK 927      BINDING AFFINITY PREDICTED BY RF-SCORE:    0.00 PKD
ROOT
HETATM    1  C   UNL     1      -9.969  10.244  67.203  1.00  0.00    -0.197 C  
HETATM    2  H   UNL     1     -10.173   8.559  68.171  1.00  0.00     0.000 HD 
HETATM    3  O   UNL     1     -10.538   8.935  67.380  1.00  0.00    -0.277 OA 
ENDROOT
BRANCH   1   4
HETATM    4  C   UNL     1     -10.563  10.856  65.916  1.00  0.00    -0.178 C  
BRANCH   4   5
HETATM    5  N   UNL     1     -11.555  11.902  66.179  1.00  0.00    -0.458 NA 
HETATM    6  C   UNL     1     -12.749  13.935  65.627  1.00  0.00    -0.534 C  
HETATM    7  C   UNL     1     -12.239  12.304  63.812  1.00  0.00    -0.642 C  
HETATM    8  C   UNL     1     -11.707  12.919  65.118  1.00  0.00    -0.349 C  
HETATM    9  H   UNL     1     -11.355  12.356  67.071  1.00  0.00     0.000 HD 
HETATM   10  C   UNL     1     -10.392  13.671  64.851  1.00  0.00    -0.408 C  
ENDBRANCH   4   5
ENDBRANCH   1   4
BRANCH   1  11
HETATM   11  C   UNL     1     -10.217  11.085  68.462  1.00  0.00    -0.192 C  
BRANCH  11  12
HETATM   12  O   UNL     1     -11.442  10.649  69.059  1.00  0.00    -0.261 OA 
BRANCH  12  13
HETATM   13  C   UNL     1     -11.968  11.496  69.986  1.00  0.00    -0.357 A  
HETATM   14  N   UNL     1     -11.857  12.814  69.814  1.00  0.00    -0.327 NA 
HETATM   15  S   UNL     1     -12.528  13.464  71.199  1.00  0.00    -0.249 SA 
HETATM   16  N   UNL     1     -12.941  12.075  72.022  1.00  0.00    -0.346 NA 
HETATM   17  C   UNL     1     -12.605  11.054  71.224  1.00  0.00    -0.412 A  
BRANCH  17  18
HETATM   18  N   UNL     1     -12.755   9.740  71.572  1.00  0.00    -0.374 NA 
HETATM   19  C   UNL     1     -13.964   9.208  72.204  1.00  0.00    -0.400 C  
HETATM   20  C   UNL     1     -14.268   7.833  71.585  1.00  0.00    -0.457 C  
HETATM   21  O   UNL     1     -13.152   6.935  71.736  1.00  0.00    -0.356 OA 
HETATM   22  C   UNL     1     -11.971   7.481  71.119  1.00  0.00    -0.308 C  
HETATM   23  C   UNL     1     -11.595   8.852  71.714  1.00  0.00    -0.352 C  
ENDBRANCH  17  18
ENDBRANCH  12  13
ENDBRANCH  11  12
ENDBRANCH   1  11
TORSDOF 6
ENDMDL
MODEL       18
REMARK 921   NORMALIZED FREE ENERGY PREDICTED BY IDOCK:   -5.49 KCAL/MOL
REMARK 922        TOTAL FREE ENERGY PREDICTED BY IDOCK:   -8.20 KCAL/MOL
REMARK 923 INTER-LIGAND FREE ENERGY PREDICTED BY IDOCK:   -7.92 KCAL/MOL
REMARK 924 INTRA-LIGAND FREE ENERGY PREDICTED BY IDOCK:   -0.28 KCAL/MOL
REMARK 927      BINDING AFFINITY PREDICTED BY RF-SCORE:    0.00 PKD
ROOT
HETATM    1  C   UNL     1     -10.311  16.033  65.457  1.00  0.00    -0.390 C  
HETATM    2  H   UNL     1     -11.747  16.349  64.170  1.00  0.00     0.000 HD 
HETATM    3  O   UNL     1     -11.069  16.877  64.573  1.00  0.00    -1.054 OA 
ENDROOT
BRANCH   1   4
HETATM    4  C   UNL     1      -9.209  16.892  66.113  1.00  0.00    -0.235 C  
BRANCH   4   5
HETATM    5  N   UNL     1      -9.497  18.328  66.076  1.00  0.00    -0.513 NA 
HETATM    6  C   UNL     1      -9.749  20.508  67.098  1.00  0.00    -0.581 C  
HETATM    7  C   UNL     1      -7.891  19.028  67.854  1.00  0.00    -0.301 C  
HETATM    8  C   UNL     1      -9.348  19.042  67.360  1.00  0.00    -0.303 C  
HETATM    9  H   UNL     1     -10.429  18.487  65.694  1.00  0.00     0.000 HD 
HETATM   10  C   UNL     1     -10.280  18.475  68.444  1.00  0.00    -0.409 C  
ENDBRANCH   4   5
ENDBRANCH   1   4
BRANCH   1  11
HETATM   11  C   UNL     1     -11.258  15.365  66.463  1.00  0.00    -0.162 C  
BRANCH  11  12
HETATM   12  O   UNL     1     -10.472  14.594  67.377  1.00  0.00    -0.252 OA 
BRANCH  12  13
HETATM   13  C   UNL     1     -11.090  13.494  67.888  1.00  0.00    -0.265 A  
HETATM   14  N   UNL     1     -11.299  13.405  69.203  1.00  0.00    -0.273 NA 
HETATM   15  S   UNL     1     -11.972  11.890  69.407  1.00  0.00    -0.254 SA 
HETATM   16  N   UNL     1     -11.979  11.341  67.834  1.00  0.00    -0.640 NA 
HETATM   17  C   UNL     1     -11.493  12.341  67.087  1.00  0.00    -0.352 A  
BRANCH  17  18
HETATM   18  N   UNL     1     -11.306  12.254  65.736  1.00  0.00    -0.341 NA 
HETATM   19  C   UNL     1     -10.006  11.980  65.119  1.00  0.00    -0.239 C  
HETATM   20  C   UNL     1     -10.224  11.017  63.940  1.00  0.00    -0.364 C  
HETATM   21  O   UNL     1     -11.158  11.560  62.988  1.00  0.00    -0.165 OA 
HETATM   22  C   UNL     1     -12.425  11.834  63.616  1.00  0.00    -0.370 C  
HETATM   23  C   UNL     1     -12.281  12.816  64.794  1.00  0.00    -0.459 C  
ENDBRANCH  17  18
ENDBRANCH  12  13
ENDBRANCH  11  12
ENDBRANCH   1  11
TORSDOF 6
ENDMDL
MODEL       19
REMARK 921   NORMALIZED FREE ENERGY PREDICTED BY IDOCK:   -5.47 KCAL/MOL
REMARK 922        TOTAL FREE ENERGY PREDICTED BY IDOCK:   -8.18 KCAL/MOL
REMARK 923 INTER-LIGAND FREE ENERGY PREDICTED BY IDOCK:   -6.94 KCAL/MOL
REMARK 924 INTRA-LIGAND FREE ENERGY PREDICTED BY IDOCK:   -1.23 KCAL/MOL
REMARK 927      BINDING AFFINITY PREDICTED BY RF-SCORE:    0.00 PKD
ROOT
HETATM    1  C   UNL     1     -11.706  12.908  69.633  1.00  0.00    -0.299 C  
HETATM    2  H   UNL     1     -12.393  13.845  71.205  1.00  0.00     0.000 HD 
HETATM    3  O   UNL     1     -12.489  12.974  70.838  1.00  0.00    -0.367 OA 
ENDROOT
BRANCH   1   4
HETATM    4  C   UNL     1     -11.863  11.493  69.035  1.00  0.00    -0.343 C  
BRANCH   4   5
HETATM    5  N   UNL     1     -11.700  11.460  67.579  1.00  0.00    -0.609 NA 
HETATM    6  C   UNL     1     -10.491  10.921  65.553  1.00  0.00    -0.286 C  
HETATM    7  C   UNL     1     -10.473   9.291  67.439  1.00  0.00    -0.340 C  
HETATM    8  C   UNL     1     -10.479  10.789  67.089  1.00  0.00    -0.237 C  
HETATM    9  H   UNL     1     -11.755  12.406  67.201  1.00  0.00     0.000 HD 
HETATM   10  C   UNL     1      -9.202  11.462  67.620  1.00  0.00    -0.158 C  
ENDBRANCH   4   5
ENDBRANCH   1   4
BRANCH   1  11
HETATM   11  C   UNL     1     -12.134  14.034  68.682  1.00  0.00    -0.297 C  
BRANCH  11  12
HETATM   12  O   UNL     1     -10.975  14.492  67.978  1.00  0.00    -0.249 OA 
BRANCH  12  13
HETATM   13  C   UNL     1     -11.190  14.857  66.684  1.00  0.00    -0.340 A  
HETATM   14  N   UNL     1     -11.832  14.026  65.861  1.00  0.00    -0.367 NA 
HETATM   15  S   UNL     1     -11.789  14.802  64.383  1.00  0.00    -0.323 SA 
HETATM   16  N   UNL     1     -10.941  16.180  64.783  1.00  0.00    -0.638 NA 
HETATM   17  C   UNL     1     -10.697  16.100  66.097  1.00  0.00    -0.221 A  
BRANCH  17  18
HETATM   18  N   UNL     1      -9.982  17.035  66.792  1.00  0.00    -0.283 NA 
HETATM   19  C   UNL     1     -10.439  18.412  66.992  1.00  0.00    -0.399 C  
HETATM   20  C   UNL     1     -10.097  18.831  68.432  1.00  0.00    -0.393 C  
HETATM   21  O   UNL     1      -8.688  18.697  68.694  1.00  0.00    -0.324 OA 
HETATM   22  C   UNL     1      -8.256  17.340  68.480  1.00  0.00    -0.267 C  
HETATM   23  C   UNL     1      -8.547  16.865  67.044  1.00  0.00    -0.205 C  
ENDBRANCH  17  18
ENDBRANCH  12  13
ENDBRANCH  11  12
ENDBRANCH   1  11
TORSDOF 6
ENDMDL
MODEL       20
REMARK 921   NORMALIZED FREE ENERGY PREDICTED BY IDOCK:   -5.47 KCAL/MOL
REMARK 922        TOTAL FREE ENERGY PREDICTED BY IDOCK:   -8.17 KCAL/MOL
REMARK 923 INTER-LIGAND FREE ENERGY PREDICTED BY IDOCK:   -7.13 KCAL/MOL
REMARK 924 INTRA-LIGAND FREE ENERGY PREDICTED BY IDOCK:   -1.04 KCAL/MOL
REMARK 927      BINDING AFFINITY PREDICTED BY RF-SCORE:    0.00 PKD
ROOT
HETATM    1  C   UNL     1     -12.473  15.623  71.584  1.00  0.00    -0.438 C  
HETATM    2  H   UNL     1     -12.790  14.942  73.388  1.00  0.00     0.000 HD 
HETATM    3  O   UNL     1     -12.064  15.356  72.937  1.00  0.00    -0.375 OA 
ENDROOT
BRANCH   1   4
HETATM    4  C   UNL     1     -11.293  16.296  70.850  1.00  0.00    -0.285 C  
BRANCH   4   5
HETATM    5  N   UNL     1     -11.396  16.209  69.390  1.00  0.00    -0.333 NA 
HETATM    6  C   UNL     1     -10.601  16.620  67.141  1.00  0.00    -0.264 C  
HETATM    7  C   UNL     1      -8.957  15.989  68.906  1.00  0.00    -0.239 C  
HETATM    8  C   UNL     1     -10.255  16.769  68.636  1.00  0.00    -0.298 C  
HETATM    9  H   UNL     1     -12.266  16.638  69.076  1.00  0.00     0.000 HD 
HETATM   10  C   UNL     1     -10.047  18.264  68.935  1.00  0.00    -0.358 C  
ENDBRANCH   4   5
ENDBRANCH   1   4
BRANCH   1  11
HETATM   11  C   UNL     1     -12.950  14.321  70.927  1.00  0.00    -0.329 C  
BRANCH  11  12
HETATM   12  O   UNL     1     -11.824  13.450  70.785  1.00  0.00    -0.215 OA 
BRANCH  12  13
HETATM   13  C   UNL     1     -11.763  12.769  69.608  1.00  0.00    -0.302 A  
HETATM   14  N   UNL     1     -11.704  13.443  68.458  1.00  0.00    -0.336 NA 
HETATM   15  S   UNL     1     -11.747  12.254  67.286  1.00  0.00    -0.263 SA 
HETATM   16  N   UNL     1     -11.859  10.889  68.236  1.00  0.00    -0.546 NA 
HETATM   17  C   UNL     1     -11.826  11.313  69.505  1.00  0.00    -0.357 A  
BRANCH  17  18
HETATM   18  N   UNL     1     -11.935  10.481  70.584  1.00  0.00    -0.326 NA 
HETATM   19  C   UNL     1     -13.019  10.574  71.565  1.00  0.00    -0.460 C  
HETATM   20  C   UNL     1     -13.457   9.148  71.937  1.00  0.00    -0.430 C  
HETATM   21  O   UNL     1     -12.350   8.377  72.441  1.00  0.00    -0.366 OA 
HETATM   22  C   UNL     1     -11.291   8.307  71.468  1.00  0.00    -0.268 C  
HETATM   23  C   UNL     1     -10.787   9.707  71.070  1.00  0.00    -0.342 C  
ENDBRANCH  17  18
ENDBRANCH  12  13
ENDBRANCH  11  12
ENDBRANCH   1  11
TORSDOF 6
ENDMDL
MODEL       21
REMARK 921   NORMALIZED FREE ENERGY PREDICTED BY IDOCK:   -5.46 KCAL/MOL
REMARK 922        TOTAL FREE ENERGY PREDICTED BY IDOCK:   -8.15 KCAL/MOL
REMARK 923 INTER-LIGAND FREE ENERGY PREDICTED BY IDOCK:   -7.54 KCAL/MOL
REMARK 924 INTRA-LIGAND FREE ENERGY PREDICTED BY IDOCK:   -0.61 KCAL/MOL
REMARK 927      BINDING AFFINITY PREDICTED BY RF-SCORE:    0.00 PKD
ROOT
HETATM    1  C   UNL     1     -12.215  10.499  71.329  1.00  0.00    -0.368 C  
HETATM    2  H   UNL     1     -13.146  12.164  71.755  1.00  0.00     0.000 HD 
HETATM    3  O   UNL     1     -13.212  11.259  72.035  1.00  0.00    -0.506 OA 
ENDROOT
BRANCH   1   4
HETATM    4  C   UNL     1     -12.323   9.027  71.783  1.00  0.00    -0.367 C  
BRANCH   4   5
HETATM    5  N   UNL     1     -12.272   8.074  70.671  1.00  0.00    -0.495 NA 
HETATM    6  C   UNL     1     -11.280   6.239  69.442  1.00  0.00    -0.489 C  
HETATM    7  C   UNL     1     -11.301   6.153  71.934  1.00  0.00    -0.350 C  
HETATM    8  C   UNL     1     -11.170   7.092  70.723  1.00  0.00    -0.279 C  
HETATM    9  H   UNL     1     -12.251   8.576  69.783  1.00  0.00     0.000 HD 
HETATM   10  C   UNL     1      -9.792   7.775  70.729  1.00  0.00    -0.183 C  
ENDBRANCH   4   5
ENDBRANCH   1   4
BRANCH   1  11
HETATM   11  C   UNL     1     -12.396  10.696  69.818  1.00  0.00    -0.194 C  
BRANCH  11  12
HETATM   12  O   UNL     1     -11.400  11.618  69.363  1.00  0.00    -0.251 OA 
BRANCH  12  13
HETATM   13  C   UNL     1     -11.666  12.216  68.170  1.00  0.00    -0.341 A  
HETATM   14  N   UNL     1     -11.637  11.495  67.048  1.00  0.00    -0.535 NA 
HETATM   15  S   UNL     1     -11.911  12.612  65.838  1.00  0.00    -0.403 SA 
HETATM   16  N   UNL     1     -12.048  14.010  66.734  1.00  0.00    -0.447 NA 
HETATM   17  C   UNL     1     -11.924  13.646  68.016  1.00  0.00    -0.350 A  
BRANCH  17  18
HETATM   18  N   UNL     1     -11.941  14.529  69.059  1.00  0.00    -0.315 NA 
HETATM   19  C   UNL     1     -12.779  14.354  70.248  1.00  0.00    -0.263 C  
HETATM   20  C   UNL     1     -11.959  14.766  71.481  1.00  0.00    -0.353 C  
HETATM   21  O   UNL     1     -11.483  16.119  71.364  1.00  0.00    -0.421 OA 
HETATM   22  C   UNL     1     -10.672  16.274  70.184  1.00  0.00    -0.246 C  
HETATM   23  C   UNL     1     -11.445  15.902  68.905  1.00  0.00    -0.386 C  
ENDBRANCH  17  18
ENDBRANCH  12  13
ENDBRANCH  11  12
ENDBRANCH   1  11
TORSDOF 6
ENDMDL
MODEL       22
REMARK 921   NORMALIZED FREE ENERGY PREDICTED BY IDOCK:   -5.44 KCAL/MOL
REMARK 922        TOTAL FREE ENERGY PREDICTED BY IDOCK:   -8.14 KCAL/MOL
REMARK 923 INTER-LIGAND FREE ENERGY PREDICTED BY IDOCK:   -7.43 KCAL/MOL
REMARK 924 INTRA-LIGAND FREE ENERGY PREDICTED BY IDOCK:   -0.71 KCAL/MOL
REMARK 927      BINDING AFFINITY PREDICTED BY RF-SCORE:    0.00 PKD
ROOT
HETATM    1  C   UNL     1     -12.227  12.782  64.610  1.00  0.00    -0.447 C  
HETATM    2  H   UNL     1     -13.489  13.493  63.299  1.00  0.00     0.000 HD 
HETATM    3  O   UNL     1     -12.572  13.246  63.294  1.00  0.00    -0.711 OA 
ENDROOT
BRANCH   1   4
HETATM    4  C   UNL     1     -10.736  12.381  64.602  1.00  0.00    -0.305 C  
BRANCH   4   5
HETATM    5  N   UNL     1     -10.521  10.947  64.817  1.00  0.00    -0.325 NA 
HETATM    6  C   UNL     1      -9.711   9.050  66.084  1.00  0.00    -0.354 C  
HETATM    7  C   UNL     1     -10.772  10.950  67.300  1.00  0.00    -0.317 C  
HETATM    8  C   UNL     1      -9.884  10.583  66.099  1.00  0.00    -0.217 C  
HETATM    9  H   UNL     1      -9.991  10.554  64.039  1.00  0.00     0.000 HD 
HETATM   10  C   UNL     1      -8.494  11.223  66.252  1.00  0.00    -0.156 C  
ENDBRANCH   4   5
ENDBRANCH   1   4
BRANCH   1  11
HETATM   11  C   UNL     1     -12.573  13.863  65.642  1.00  0.00    -0.517 C  
BRANCH  11  12
HETATM   12  O   UNL     1     -11.361  14.512  66.038  1.00  0.00    -0.333 OA 
BRANCH  12  13
HETATM   13  C   UNL     1     -11.330  14.943  67.329  1.00  0.00    -0.349 A  
HETATM   14  N   UNL     1     -12.070  14.324  68.250  1.00  0.00    -0.294 NA 
HETATM   15  S   UNL     1     -11.821  15.215  69.640  1.00  0.00    -0.346 SA 
HETATM   16  N   UNL     1     -10.791  16.395  69.069  1.00  0.00    -0.311 NA 
HETATM   17  C   UNL     1     -10.574  16.109  67.779  1.00  0.00    -0.309 A  
BRANCH  17  18
HETATM   18  N   UNL     1      -9.804  16.878  66.953  1.00  0.00    -0.265 NA 
HETATM   19  C   UNL     1     -10.288  18.103  66.312  1.00  0.00    -0.397 C  
HETATM   20  C   UNL     1      -9.162  19.149  66.356  1.00  0.00    -0.343 C  
HETATM   21  O   UNL     1      -7.967  18.656  65.721  1.00  0.00    -0.487 OA 
HETATM   22  C   UNL     1      -7.513  17.446  66.357  1.00  0.00    -0.305 C  
HETATM   23  C   UNL     1      -8.590  16.345  66.325  1.00  0.00    -0.340 C  
ENDBRANCH  17  18
ENDBRANCH  12  13
ENDBRANCH  11  12
ENDBRANCH   1  11
TORSDOF 6
ENDMDL
MODEL       23
REMARK 921   NORMALIZED FREE ENERGY PREDICTED BY IDOCK:   -5.44 KCAL/MOL
REMARK 922        TOTAL FREE ENERGY PREDICTED BY IDOCK:   -8.13 KCAL/MOL
REMARK 923 INTER-LIGAND FREE ENERGY PREDICTED BY IDOCK:   -7.54 KCAL/MOL
REMARK 924 INTRA-LIGAND FREE ENERGY PREDICTED BY IDOCK:   -0.60 KCAL/MOL
REMARK 927      BINDING AFFINITY PREDICTED BY RF-SCORE:    0.00 PKD
ROOT
HETATM    1  C   UNL     1     -11.452  13.822  68.474  1.00  0.00    -0.307 C  
HETATM    2  H   UNL     1     -12.001  11.996  68.043  1.00  0.00     0.000 HD 
HETATM    3  O   UNL     1     -11.911  12.508  68.838  1.00  0.00    -0.304 OA 
ENDROOT
BRANCH   1   4
HETATM    4  C   UNL     1     -11.304  14.654  69.765  1.00  0.00    -0.275 C  
BRANCH   4   5
HETATM    5  N   UNL     1     -12.586  15.120  70.302  1.00  0.00    -0.520 NA 
HETATM    6  C   UNL     1     -14.228  15.367  72.064  1.00  0.00    -0.650 C  
HETATM    7  C   UNL     1     -11.810  15.597  72.626  1.00  0.00    -0.590 C  
HETATM    8  C   UNL     1     -12.814  14.845  71.736  1.00  0.00    -0.330 C  
HETATM    9  H   UNL     1     -13.354  14.741  69.748  1.00  0.00     0.000 HD 
HETATM   10  C   UNL     1     -12.773  13.339  72.046  1.00  0.00    -0.211 C  
ENDBRANCH   4   5
ENDBRANCH   1   4
BRANCH   1  11
HETATM   11  C   UNL     1     -10.158  13.704  67.659  1.00  0.00    -0.242 C  
BRANCH  11  12
HETATM   12  O   UNL     1      -9.753  15.019  67.265  1.00  0.00    -0.217 OA 
BRANCH  12  13
HETATM   13  C   UNL     1     -10.405  15.527  66.184  1.00  0.00    -0.315 A  
HETATM   14  N   UNL     1     -10.977  14.698  65.309  1.00  0.00    -0.344 NA 
HETATM   15  S   UNL     1     -11.560  15.708  64.113  1.00  0.00     0.133 SA 
HETATM   16  N   UNL     1     -11.070  17.190  64.694  1.00  0.00    -1.007 NA 
HETATM   17  C   UNL     1     -10.468  16.952  65.866  1.00  0.00    -0.285 A  
BRANCH  17  18
HETATM   18  N   UNL     1      -9.893  17.925  66.634  1.00  0.00    -0.325 NA 
HETATM   19  C   UNL     1     -10.663  18.945  67.350  1.00  0.00    -0.444 C  
HETATM   20  C   UNL     1     -10.019  19.157  68.730  1.00  0.00    -0.427 C  
HETATM   21  O   UNL     1      -8.633  19.528  68.609  1.00  0.00    -0.356 OA 
HETATM   22  C   UNL     1      -7.896  18.519  67.892  1.00  0.00    -0.253 C  
HETATM   23  C   UNL     1      -8.476  18.276  66.486  1.00  0.00    -0.268 C  
ENDBRANCH  17  18
ENDBRANCH  12  13
ENDBRANCH  11  12
ENDBRANCH   1  11
TORSDOF 6
ENDMDL
MODEL       24
REMARK 921   NORMALIZED FREE ENERGY PREDICTED BY IDOCK:   -5.41 KCAL/MOL
REMARK 922        TOTAL FREE ENERGY PREDICTED BY IDOCK:   -8.09 KCAL/MOL
REMARK 923 INTER-LIGAND FREE ENERGY PREDICTED BY IDOCK:   -7.04 KCAL/MOL
REMARK 924 INTRA-LIGAND FREE ENERGY PREDICTED BY IDOCK:   -1.06 KCAL/MOL
REMARK 927      BINDING AFFINITY PREDICTED BY RF-SCORE:    0.00 PKD
ROOT
HETATM    1  C   UNL     1     -11.737  15.837  70.292  1.00  0.00    -0.358 C  
HETATM    2  H   UNL     1     -12.130  15.309  72.133  1.00  0.00     0.000 HD 
HETATM    3  O   UNL     1     -11.393  15.704  71.683  1.00  0.00    -0.391 OA 
ENDROOT
BRANCH   1   4
HETATM    4  C   UNL     1     -10.538  16.477  69.560  1.00  0.00    -0.321 C  
BRANCH   4   5
HETATM    5  N   UNL     1     -10.908  17.107  68.289  1.00  0.00    -0.357 NA 
HETATM    6  C   UNL     1     -10.451  18.469  66.340  1.00  0.00    -0.443 C  
HETATM    7  C   UNL     1      -8.680  16.928  67.178  1.00  0.00    -0.219 C  
HETATM    8  C   UNL     1      -9.829  17.854  67.611  1.00  0.00    -0.304 C  
HETATM    9  H   UNL     1     -11.719  17.710  68.422  1.00  0.00     0.000 HD 
HETATM   10  C   UNL     1      -9.286  18.999  68.483  1.00  0.00    -0.425 C  
ENDBRANCH   4   5
ENDBRANCH   1   4
BRANCH   1  11
HETATM   11  C   UNL     1     -12.146  14.468  69.733  1.00  0.00    -0.331 C  
BRANCH  11  12
HETATM   12  O   UNL     1     -11.118  14.018  68.846  1.00  0.00    -0.250 OA 
BRANCH  12  13
HETATM   13  C   UNL     1     -11.542  13.648  67.607  1.00  0.00    -0.346 A  
HETATM   14  N   UNL     1     -11.876  14.583  66.716  1.00  0.00    -0.392 NA 
HETATM   15  S   UNL     1     -12.426  13.715  65.400  1.00  0.00    -0.495 SA 
HETATM   16  N   UNL     1     -12.257  12.156  65.966  1.00  0.00    -0.525 NA 
HETATM   17  C   UNL     1     -11.727  12.260  67.191  1.00  0.00    -0.326 A  
BRANCH  17  18
HETATM   18  N   UNL     1     -11.475  11.187  68.000  1.00  0.00    -0.423 NA 
HETATM   19  C   UNL     1     -10.754   9.994  67.552  1.00  0.00    -0.281 C  
HETATM   20  C   UNL     1      -9.817   9.542  68.685  1.00  0.00    -0.162 C  
HETATM   21  O   UNL     1     -10.548   9.294  69.900  1.00  0.00    -0.208 OA 
HETATM   22  C   UNL     1     -11.260  10.474  70.317  1.00  0.00    -0.313 C  
HETATM   23  C   UNL     1     -12.239  10.966  69.234  1.00  0.00    -0.169 C  
ENDBRANCH  17  18
ENDBRANCH  12  13
ENDBRANCH  11  12
ENDBRANCH   1  11
TORSDOF 6
ENDMDL
MODEL       25
REMARK 921   NORMALIZED FREE ENERGY PREDICTED BY IDOCK:   -5.41 KCAL/MOL
REMARK 922        TOTAL FREE ENERGY PREDICTED BY IDOCK:   -8.09 KCAL/MOL
REMARK 923 INTER-LIGAND FREE ENERGY PREDICTED BY IDOCK:   -7.08 KCAL/MOL
REMARK 924 INTRA-LIGAND FREE ENERGY PREDICTED BY IDOCK:   -1.01 KCAL/MOL
REMARK 927      BINDING AFFINITY PREDICTED BY RF-SCORE:    0.00 PKD
ROOT
HETATM    1  C   UNL     1     -10.594   8.812  67.823  1.00  0.00    -0.191 C  
HETATM    2  H   UNL     1      -9.564   8.457  66.201  1.00  0.00     0.000 HD 
HETATM    3  O   UNL     1      -9.524   8.172  67.105  1.00  0.00    -0.146 OA 
ENDROOT
BRANCH   1   4
HETATM    4  C   UNL     1     -10.530   8.348  69.294  1.00  0.00    -0.215 C  
BRANCH   4   5
HETATM    5  N   UNL     1     -11.592   8.920  70.127  1.00  0.00    -0.462 NA 
HETATM    6  C   UNL     1     -13.007   8.969  72.091  1.00  0.00    -0.490 C  
HETATM    7  C   UNL     1     -10.605   8.353  72.348  1.00  0.00    -0.405 C  
HETATM    8  C   UNL     1     -11.825   8.241  71.418  1.00  0.00    -0.293 C  
HETATM    9  H   UNL     1     -12.462   8.969  69.596  1.00  0.00     0.000 HD 
HETATM   10  C   UNL     1     -12.214   6.765  71.230  1.00  0.00    -0.415 C  
ENDBRANCH   4   5
ENDBRANCH   1   4
BRANCH   1  11
HETATM   11  C   UNL     1     -10.490  10.332  67.647  1.00  0.00    -0.239 C  
BRANCH  11  12
HETATM   12  O   UNL     1     -11.800  10.892  67.782  1.00  0.00    -0.579 OA 
BRANCH  12  13
HETATM   13  C   UNL     1     -11.882  11.991  68.580  1.00  0.00    -0.311 A  
HETATM   14  N   UNL     1     -12.156  11.848  69.877  1.00  0.00    -0.294 NA 
HETATM   15  S   UNL     1     -12.263  13.414  70.447  1.00  0.00    -0.298 SA 
HETATM   16  N   UNL     1     -11.982  14.272  69.047  1.00  0.00    -0.331 NA 
HETATM   17  C   UNL     1     -11.753  13.362  68.091  1.00  0.00    -0.362 A  
BRANCH  17  18
HETATM   18  N   UNL     1     -11.520  13.682  66.783  1.00  0.00    -0.331 NA 
HETATM   19  C   UNL     1     -12.408  13.287  65.687  1.00  0.00    -0.465 C  
HETATM   20  C   UNL     1     -12.517  14.465  64.705  1.00  0.00    -0.357 C  
HETATM   21  O   UNL     1     -11.221  14.861  64.219  1.00  0.00    -0.198 OA 
HETATM   22  C   UNL     1     -10.358  15.234  65.311  1.00  0.00    -0.401 C  
HETATM   23  C   UNL     1     -10.186  14.085  66.322  1.00  0.00    -0.296 C  
ENDBRANCH  17  18
ENDBRANCH  12  13
ENDBRANCH  11  12
ENDBRANCH   1  11
TORSDOF 6
ENDMDL
MODEL       26
REMARK 921   NORMALIZED FREE ENERGY PREDICTED BY IDOCK:   -5.41 KCAL/MOL
REMARK 922        TOTAL FREE ENERGY PREDICTED BY IDOCK:   -8.09 KCAL/MOL
REMARK 923 INTER-LIGAND FREE ENERGY PREDICTED BY IDOCK:   -6.97 KCAL/MOL
REMARK 924 INTRA-LIGAND FREE ENERGY PREDICTED BY IDOCK:   -1.12 KCAL/MOL
REMARK 927      BINDING AFFINITY PREDICTED BY RF-SCORE:    0.00 PKD
ROOT
HETATM    1  C   UNL     1     -10.712  16.030  64.871  1.00  0.00    -0.316 C  
HETATM    2  H   UNL     1     -11.920  16.245  63.350  1.00  0.00     0.000 HD 
HETATM    3  O   UNL     1     -11.593  16.807  64.041  1.00  0.00    -1.195 OA 
ENDROOT
BRANCH   1   4
HETATM    4  C   UNL     1     -10.181  16.945  65.996  1.00  0.00    -0.336 C  
BRANCH   4   5
HETATM    5  N   UNL     1     -10.199  16.307  67.315  1.00  0.00    -0.274 NA 
HETATM    6  C   UNL     1      -9.176  15.637  69.405  1.00  0.00    -0.279 C  
HETATM    7  C   UNL     1      -8.629  17.877  68.457  1.00  0.00    -0.298 C  
HETATM    8  C   UNL     1      -8.948  16.416  68.094  1.00  0.00    -0.197 C  
HETATM    9  H   UNL     1     -10.469  15.327  67.225  1.00  0.00     0.000 HD 
HETATM   10  C   UNL     1      -7.756  15.782  67.358  1.00  0.00    -0.211 C  
ENDBRANCH   4   5
ENDBRANCH   1   4
BRANCH   1  11
HETATM   11  C   UNL     1     -11.452  14.787  65.380  1.00  0.00    -0.341 C  
BRANCH  11  12
HETATM   12  O   UNL     1     -10.486  13.874  65.911  1.00  0.00    -0.290 OA 
BRANCH  12  13
HETATM   13  C   UNL     1     -10.978  12.950  66.781  1.00  0.00    -0.272 A  
HETATM   14  N   UNL     1     -11.475  13.346  67.954  1.00  0.00    -0.296 NA 
HETATM   15  S   UNL     1     -11.863  11.921  68.734  1.00  0.00    -0.273 SA 
HETATM   16  N   UNL     1     -11.384  10.805  67.593  1.00  0.00    -0.460 NA 
HETATM   17  C   UNL     1     -10.941  11.509  66.544  1.00  0.00    -0.293 A  
BRANCH  17  18
HETATM   18  N   UNL     1     -10.423  10.939  65.415  1.00  0.00    -0.251 NA 
HETATM   19  C   UNL     1     -10.849  11.303  64.062  1.00  0.00    -0.344 C  
HETATM   20  C   UNL     1      -9.605  11.352  63.160  1.00  0.00    -0.380 C  
HETATM   21  O   UNL     1      -8.901  10.096  63.173  1.00  0.00    -0.182 OA 
HETATM   22  C   UNL     1      -8.500   9.750  64.513  1.00  0.00    -0.176 C  
HETATM   23  C   UNL     1      -9.707   9.659  65.466  1.00  0.00    -0.301 C  
ENDBRANCH  17  18
ENDBRANCH  12  13
ENDBRANCH  11  12
ENDBRANCH   1  11
TORSDOF 6
ENDMDL
MODEL       27
REMARK 921   NORMALIZED FREE ENERGY PREDICTED BY IDOCK:   -5.39 KCAL/MOL
REMARK 922        TOTAL FREE ENERGY PREDICTED BY IDOCK:   -8.06 KCAL/MOL
REMARK 923 INTER-LIGAND FREE ENERGY PREDICTED BY IDOCK:   -7.59 KCAL/MOL
REMARK 924 INTRA-LIGAND FREE ENERGY PREDICTED BY IDOCK:   -0.47 KCAL/MOL
REMARK 927      BINDING AFFINITY PREDICTED BY RF-SCORE:    0.00 PKD
ROOT
HETATM    1  C   UNL     1     -11.805  11.343  70.576  1.00  0.00    -0.297 C  
HETATM    2  H   UNL     1     -12.138  13.269  70.584  1.00  0.00     0.000 HD 
HETATM    3  O   UNL     1     -12.608  12.498  70.878  1.00  0.00    -0.334 OA 
ENDROOT
BRANCH   1   4
HETATM    4  C   UNL     1     -12.570  10.090  71.054  1.00  0.00    -0.367 C  
BRANCH   4   5
HETATM    5  N   UNL     1     -12.124   8.857  70.398  1.00  0.00    -0.459 NA 
HETATM    6  C   UNL     1     -11.652   6.483  70.353  1.00  0.00    -0.470 C  
HETATM    7  C   UNL     1     -13.676   7.289  71.565  1.00  0.00    -0.451 C  
HETATM    8  C   UNL     1     -12.217   7.630  71.215  1.00  0.00    -0.315 C  
HETATM    9  H   UNL     1     -11.173   8.972  70.049  1.00  0.00     0.000 HD 
HETATM   10  C   UNL     1     -11.374   7.729  72.498  1.00  0.00    -0.429 C  
ENDBRANCH   4   5
ENDBRANCH   1   4
BRANCH   1  11
HETATM   11  C   UNL     1     -11.468  11.332  69.080  1.00  0.00    -0.302 C  
BRANCH  11  12
HETATM   12  O   UNL     1     -11.215  12.678  68.665  1.00  0.00    -0.246 OA 
BRANCH  12  13
HETATM   13  C   UNL     1     -11.640  12.987  67.410  1.00  0.00    -0.356 A  
HETATM   14  N   UNL     1     -12.025  12.013  66.584  1.00  0.00    -0.603 NA 
HETATM   15  S   UNL     1     -12.361  12.802  65.151  1.00  0.00    -0.479 SA 
HETATM   16  N   UNL     1     -12.001  14.374  65.573  1.00  0.00    -0.367 NA 
HETATM   17  C   UNL     1     -11.643  14.342  66.863  1.00  0.00    -0.387 A  
BRANCH  17  18
HETATM   18  N   UNL     1     -11.235  15.443  67.562  1.00  0.00    -0.324 NA 
HETATM   19  C   UNL     1     -11.878  15.894  68.799  1.00  0.00    -0.268 C  
HETATM   20  C   UNL     1     -10.780  16.354  69.773  1.00  0.00    -0.324 C  
HETATM   21  O   UNL     1      -9.966  17.389  69.191  1.00  0.00    -0.275 OA 
HETATM   22  C   UNL     1      -9.353  16.931  67.971  1.00  0.00    -0.238 C  
HETATM   23  C   UNL     1     -10.403  16.478  66.938  1.00  0.00    -0.300 C  
ENDBRANCH  17  18
ENDBRANCH  12  13
ENDBRANCH  11  12
ENDBRANCH   1  11
TORSDOF 6
ENDMDL
MODEL       28
REMARK 921   NORMALIZED FREE ENERGY PREDICTED BY IDOCK:   -5.36 KCAL/MOL
REMARK 922        TOTAL FREE ENERGY PREDICTED BY IDOCK:   -8.03 KCAL/MOL
REMARK 923 INTER-LIGAND FREE ENERGY PREDICTED BY IDOCK:   -6.81 KCAL/MOL
REMARK 924 INTRA-LIGAND FREE ENERGY PREDICTED BY IDOCK:   -1.22 KCAL/MOL
REMARK 927      BINDING AFFINITY PREDICTED BY RF-SCORE:    0.00 PKD
ROOT
HETATM    1  C   UNL     1     -10.053  18.903  66.087  1.00  0.00    -0.393 C  
HETATM    2  H   UNL     1     -11.912  19.436  66.371  1.00  0.00     0.000 HD 
HETATM    3  O   UNL     1     -11.061  19.818  66.549  1.00  0.00    -0.310 OA 
ENDROOT
BRANCH   1   4
HETATM    4  C   UNL     1      -8.670  19.523  66.378  1.00  0.00    -0.361 C  
BRANCH   4   5
HETATM    5  N   UNL     1      -7.564  18.784  65.762  1.00  0.00    -0.494 NA 
HETATM    6  C   UNL     1      -5.217  18.353  65.353  1.00  0.00    -0.212 C  
HETATM    7  C   UNL     1      -5.945  18.992  67.650  1.00  0.00    -0.201 C  
HETATM    8  C   UNL     1      -6.209  19.223  66.152  1.00  0.00    -0.176 C  
HETATM    9  H   UNL     1      -7.657  18.799  64.747  1.00  0.00     0.000 HD 
HETATM   10  C   UNL     1      -5.956  20.697  65.791  1.00  0.00    -0.255 C  
ENDBRANCH   4   5
ENDBRANCH   1   4
BRANCH   1  11
HETATM   11  C   UNL     1     -10.268  17.532  66.741  1.00  0.00    -0.327 C  
BRANCH  11  12
HETATM   12  O   UNL     1      -9.707  16.532  65.885  1.00  0.00    -0.396 OA 
BRANCH  12  13
HETATM   13  C   UNL     1      -8.959  15.584  66.514  1.00  0.00    -0.312 A  
HETATM   14  N   UNL     1      -7.800  15.926  67.080  1.00  0.00    -0.210 NA 
HETATM   15  S   UNL     1      -7.174  14.480  67.633  1.00  0.00    -0.190 SA 
HETATM   16  N   UNL     1      -8.362  13.420  67.138  1.00  0.00    -0.172 NA 
HETATM   17  C   UNL     1      -9.310  14.167  66.558  1.00  0.00    -0.265 A  
BRANCH  17  18
HETATM   18  N   UNL     1     -10.438  13.648  65.987  1.00  0.00    -0.294 NA 
HETATM   19  C   UNL     1     -11.775  13.797  66.566  1.00  0.00    -0.385 C  
HETATM   20  C   UNL     1     -12.769  14.063  65.423  1.00  0.00    -0.471 C  
HETATM   21  O   UNL     1     -12.731  13.010  64.442  1.00  0.00    -0.652 OA 
HETATM   22  C   UNL     1     -11.406  12.871  63.894  1.00  0.00    -0.436 C  
HETATM   23  C   UNL     1     -10.362  12.576  64.987  1.00  0.00    -0.299 C  
ENDBRANCH  17  18
ENDBRANCH  12  13
ENDBRANCH  11  12
ENDBRANCH   1  11
TORSDOF 6
ENDMDL
MODEL       29
REMARK 921   NORMALIZED FREE ENERGY PREDICTED BY IDOCK:   -5.35 KCAL/MOL
REMARK 922        TOTAL FREE ENERGY PREDICTED BY IDOCK:   -8.01 KCAL/MOL
REMARK 923 INTER-LIGAND FREE ENERGY PREDICTED BY IDOCK:   -7.43 KCAL/MOL
REMARK 924 INTRA-LIGAND FREE ENERGY PREDICTED BY IDOCK:   -0.58 KCAL/MOL
REMARK 927      BINDING AFFINITY PREDICTED BY RF-SCORE:    0.00 PKD
ROOT
HETATM    1  C   UNL     1     -11.793  11.483  68.838  1.00  0.00    -0.341 C  
HETATM    2  H   UNL     1     -11.998  11.146  66.924  1.00  0.00     0.000 HD 
HETATM    3  O   UNL     1     -11.681  10.652  67.670  1.00  0.00    -0.480 OA 
ENDROOT
BRANCH   1   4
HETATM    4  C   UNL     1     -11.277  10.680  70.051  1.00  0.00    -0.309 C  
BRANCH   4   5
HETATM    5  N   UNL     1     -11.732   9.287  70.058  1.00  0.00    -0.456 NA 
HETATM    6  C   UNL     1     -12.372   7.228  71.160  1.00  0.00    -0.381 C  
HETATM    7  C   UNL     1     -13.097   9.401  72.145  1.00  0.00    -0.526 C  
HETATM    8  C   UNL     1     -11.955   8.695  71.393  1.00  0.00    -0.304 C  
HETATM    9  H   UNL     1     -11.086   8.707  69.522  1.00  0.00     0.000 HD 
HETATM   10  C   UNL     1     -10.675   8.702  72.246  1.00  0.00    -0.383 C  
ENDBRANCH   4   5
ENDBRANCH   1   4
BRANCH   1  11
HETATM   11  C   UNL     1     -11.044  12.801  68.602  1.00  0.00    -0.266 C  
BRANCH  11  12
HETATM   12  O   UNL     1     -11.997  13.799  68.225  1.00  0.00    -0.357 OA 
BRANCH  12  13
HETATM   13  C   UNL     1     -11.921  14.215  66.931  1.00  0.00    -0.449 A  
HETATM   14  N   UNL     1     -12.589  13.553  65.985  1.00  0.00    -0.395 NA 
HETATM   15  S   UNL     1     -12.145  14.314  64.566  1.00  0.00    -0.463 SA 
HETATM   16  N   UNL     1     -11.092  15.466  65.149  1.00  0.00    -0.393 NA 
HETATM   17  C   UNL     1     -11.083  15.323  66.480  1.00  0.00    -0.271 A  
BRANCH  17  18
HETATM   18  N   UNL     1     -10.301  16.071  67.316  1.00  0.00    -0.290 NA 
HETATM   19  C   UNL     1      -8.909  15.739  67.628  1.00  0.00    -0.175 C  
HETATM   20  C   UNL     1      -8.096  17.043  67.658  1.00  0.00    -0.180 C  
HETATM   21  O   UNL     1      -8.642  17.978  68.607  1.00  0.00    -0.303 OA 
HETATM   22  C   UNL     1     -10.014  18.283  68.290  1.00  0.00    -0.364 C  
HETATM   23  C   UNL     1     -10.892  17.017  68.270  1.00  0.00    -0.341 C  
ENDBRANCH  17  18
ENDBRANCH  12  13
ENDBRANCH  11  12
ENDBRANCH   1  11
TORSDOF 6
ENDMDL
MODEL       30
REMARK 921   NORMALIZED FREE ENERGY PREDICTED BY IDOCK:   -5.33 KCAL/MOL
REMARK 922        TOTAL FREE ENERGY PREDICTED BY IDOCK:   -7.99 KCAL/MOL
REMARK 923 INTER-LIGAND FREE ENERGY PREDICTED BY IDOCK:   -7.13 KCAL/MOL
REMARK 924 INTRA-LIGAND FREE ENERGY PREDICTED BY IDOCK:   -0.86 KCAL/MOL
REMARK 927      BINDING AFFINITY PREDICTED BY RF-SCORE:    0.00 PKD
ROOT
HETATM    1  C   UNL     1     -12.022  14.958  70.281  1.00  0.00    -0.312 C  
HETATM    2  H   UNL     1     -12.789  16.517  71.175  1.00  0.00     0.000 HD 
HETATM    3  O   UNL     1     -13.035  15.606  71.069  1.00  0.00    -0.487 OA 
ENDROOT
BRANCH   1   4
HETATM    4  C   UNL     1     -12.422  13.477  70.108  1.00  0.00    -0.209 C  
BRANCH   4   5
HETATM    5  N   UNL     1     -11.272  12.570  70.054  1.00  0.00    -0.454 NA 
HETATM    6  C   UNL     1     -10.227  10.430  69.618  1.00  0.00    -0.245 C  
HETATM    7  C   UNL     1     -11.991  11.252  68.060  1.00  0.00    -0.132 C  
HETATM    8  C   UNL     1     -11.551  11.216  69.534  1.00  0.00    -0.321 C  
HETATM    9  H   UNL     1     -10.834  12.507  70.973  1.00  0.00     0.000 HD 
HETATM   10  C   UNL     1     -12.602  10.480  70.382  1.00  0.00    -0.364 C  
ENDBRANCH   4   5
ENDBRANCH   1   4
BRANCH   1  11
HETATM   11  C   UNL     1     -11.845  15.711  68.956  1.00  0.00    -0.364 C  
BRANCH  11  12
HETATM   12  O   UNL     1     -10.989  14.937  68.110  1.00  0.00    -0.256 OA 
BRANCH  12  13
HETATM   13  C   UNL     1     -11.205  15.087  66.774  1.00  0.00    -0.322 A  
HETATM   14  N   UNL     1     -11.823  14.120  66.093  1.00  0.00    -0.391 NA 
HETATM   15  S   UNL     1     -11.789  14.652  64.510  1.00  0.00    -0.400 SA 
HETATM   16  N   UNL     1     -10.976  16.096  64.687  1.00  0.00    -0.661 NA 
HETATM   17  C   UNL     1     -10.738  16.232  65.997  1.00  0.00    -0.214 A  
BRANCH  17  18
HETATM   18  N   UNL     1     -10.049  17.283  66.536  1.00  0.00    -0.298 NA 
HETATM   19  C   UNL     1     -10.387  18.684  66.276  1.00  0.00    -0.444 C  
HETATM   20  C   UNL     1     -10.236  19.469  67.590  1.00  0.00    -0.434 C  
HETATM   21  O   UNL     1      -8.908  19.335  68.129  1.00  0.00    -0.308 OA 
HETATM   22  C   UNL     1      -8.590  17.951  68.366  1.00  0.00    -0.293 C  
HETATM   23  C   UNL     1      -8.697  17.110  67.079  1.00  0.00    -0.225 C  
ENDBRANCH  17  18
ENDBRANCH  12  13
ENDBRANCH  11  12
ENDBRANCH   1  11
TORSDOF 6
ENDMDL
MODEL       31
REMARK 921   NORMALIZED FREE ENERGY PREDICTED BY IDOCK:   -5.33 KCAL/MOL
REMARK 922        TOTAL FREE ENERGY PREDICTED BY IDOCK:   -7.98 KCAL/MOL
REMARK 923 INTER-LIGAND FREE ENERGY PREDICTED BY IDOCK:   -7.21 KCAL/MOL
REMARK 924 INTRA-LIGAND FREE ENERGY PREDICTED BY IDOCK:   -0.77 KCAL/MOL
REMARK 927      BINDING AFFINITY PREDICTED BY RF-SCORE:    0.00 PKD
ROOT
HETATM    1  C   UNL     1     -12.107   9.945  71.787  1.00  0.00    -0.301 C  
HETATM    2  H   UNL     1     -13.169   9.498  73.365  1.00  0.00     0.000 HD 
HETATM    3  O   UNL     1     -12.796   9.014  72.639  1.00  0.00    -0.381 OA 
ENDROOT
BRANCH   1   4
HETATM    4  C   UNL     1     -11.500   9.158  70.606  1.00  0.00    -0.262 C  
BRANCH   4   5
HETATM    5  N   UNL     1     -11.649   9.843  69.318  1.00  0.00    -0.460 NA 
HETATM    6  C   UNL     1     -10.866  10.526  67.131  1.00  0.00    -0.319 C  
HETATM    7  C   UNL     1     -10.344   8.225  67.937  1.00  0.00    -0.278 C  
HETATM    8  C   UNL     1     -10.519   9.688  68.379  1.00  0.00    -0.223 C  
HETATM    9  H   UNL     1     -11.842  10.833  69.471  1.00  0.00     0.000 HD 
HETATM   10  C   UNL     1      -9.204  10.224  68.968  1.00  0.00    -0.188 C  
ENDBRANCH   4   5
ENDBRANCH   1   4
BRANCH   1  11
HETATM   11  C   UNL     1     -13.072  11.059  71.360  1.00  0.00    -0.341 C  
BRANCH  11  12
HETATM   12  O   UNL     1     -12.299  12.184  70.931  1.00  0.00    -0.373 OA 
BRANCH  12  13
HETATM   13  C   UNL     1     -12.848  13.401  71.198  1.00  0.00    -0.291 A  
HETATM   14  N   UNL     1     -13.698  13.532  72.218  1.00  0.00    -0.564 NA 
HETATM   15  S   UNL     1     -14.201  15.122  72.127  1.00  0.00    -0.552 SA 
HETATM   16  N   UNL     1     -13.357  15.636  70.785  1.00  0.00    -0.495 NA 
HETATM   17  C   UNL     1     -12.620  14.593  70.385  1.00  0.00    -0.343 A  
BRANCH  17  18
HETATM   18  N   UNL     1     -11.815  14.614  69.280  1.00  0.00    -0.309 NA 
HETATM   19  C   UNL     1     -11.989  13.711  68.141  1.00  0.00    -0.355 C  
HETATM   20  C   UNL     1     -11.750  14.511  66.849  1.00  0.00    -0.382 C  
HETATM   21  O   UNL     1     -10.446  15.121  66.847  1.00  0.00    -0.271 OA 
HETATM   22  C   UNL     1     -10.290  15.996  67.981  1.00  0.00    -0.266 C  
HETATM   23  C   UNL     1     -10.492  15.248  69.313  1.00  0.00    -0.258 C  
ENDBRANCH  17  18
ENDBRANCH  12  13
ENDBRANCH  11  12
ENDBRANCH   1  11
TORSDOF 6
ENDMDL
MODEL       32
REMARK 921   NORMALIZED FREE ENERGY PREDICTED BY IDOCK:   -5.32 KCAL/MOL
REMARK 922        TOTAL FREE ENERGY PREDICTED BY IDOCK:   -7.98 KCAL/MOL
REMARK 923 INTER-LIGAND FREE ENERGY PREDICTED BY IDOCK:   -6.86 KCAL/MOL
REMARK 924 INTRA-LIGAND FREE ENERGY PREDICTED BY IDOCK:   -1.11 KCAL/MOL
REMARK 927      BINDING AFFINITY PREDICTED BY RF-SCORE:    0.00 PKD
ROOT
HETATM    1  C   UNL     1     -10.463  19.529  67.047  1.00  0.00    -0.472 C  
HETATM    2  H   UNL     1     -11.341  18.105  68.058  1.00  0.00     0.000 HD 
HETATM    3  O   UNL     1     -10.515  18.571  68.118  1.00  0.00    -0.372 OA 
ENDROOT
BRANCH   1   4
HETATM    4  C   UNL     1      -9.121  20.286  67.145  1.00  0.00    -0.378 C  
BRANCH   4   5
HETATM    5  N   UNL     1      -7.957  19.429  66.901  1.00  0.00    -0.257 NA 
HETATM    6  C   UNL     1      -5.649  18.776  67.232  1.00  0.00    -0.148 C  
HETATM    7  C   UNL     1      -6.976  19.556  69.193  1.00  0.00    -0.392 C  
HETATM    8  C   UNL     1      -6.748  19.758  67.685  1.00  0.00    -0.234 C  
HETATM    9  H   UNL     1      -7.734  19.418  65.906  1.00  0.00     0.000 HD 
HETATM   10  C   UNL     1      -6.257  21.190  67.411  1.00  0.00    -0.420 C  
ENDBRANCH   4   5
ENDBRANCH   1   4
BRANCH   1  11
HETATM   11  C   UNL     1     -10.676  18.812  65.708  1.00  0.00    -0.207 C  
BRANCH  11  12
HETATM   12  O   UNL     1      -9.888  17.617  65.707  1.00  0.00    -0.539 OA 
BRANCH  12  13
HETATM   13  C   UNL     1     -10.556  16.483  65.359  1.00  0.00    -0.276 A  
HETATM   14  N   UNL     1     -11.349  16.487  64.286  1.00  0.00    -1.032 NA 
HETATM   15  S   UNL     1     -12.036  14.965  64.282  1.00  0.00    -0.220 SA 
HETATM   16  N   UNL     1     -11.344  14.310  65.649  1.00  0.00    -0.312 NA 
HETATM   17  C   UNL     1     -10.518  15.246  66.134  1.00  0.00    -0.309 A  
BRANCH  17  18
HETATM   18  N   UNL     1      -9.793  15.093  67.283  1.00  0.00    -0.227 NA 
HETATM   19  C   UNL     1      -8.335  14.954  67.302  1.00  0.00    -0.210 C  
HETATM   20  C   UNL     1      -7.788  15.764  68.488  1.00  0.00    -0.139 C  
HETATM   21  O   UNL     1      -8.376  15.335  69.730  1.00  0.00    -0.194 OA 
HETATM   22  C   UNL     1      -9.810  15.468  69.687  1.00  0.00    -0.278 C  
HETATM   23  C   UNL     1     -10.426  14.657  68.533  1.00  0.00    -0.247 C  
ENDBRANCH  17  18
ENDBRANCH  12  13
ENDBRANCH  11  12
ENDBRANCH   1  11
TORSDOF 6
ENDMDL
MODEL       33
REMARK 921   NORMALIZED FREE ENERGY PREDICTED BY IDOCK:   -5.32 KCAL/MOL
REMARK 922        TOTAL FREE ENERGY PREDICTED BY IDOCK:   -7.97 KCAL/MOL
REMARK 923 INTER-LIGAND FREE ENERGY PREDICTED BY IDOCK:   -6.80 KCAL/MOL
REMARK 924 INTRA-LIGAND FREE ENERGY PREDICTED BY IDOCK:   -1.18 KCAL/MOL
REMARK 927      BINDING AFFINITY PREDICTED BY RF-SCORE:    0.00 PKD
ROOT
HETATM    1  C   UNL     1     -11.999  10.883  70.626  1.00  0.00    -0.368 C  
HETATM    2  H   UNL     1     -13.848  11.261  70.119  1.00  0.00     0.000 HD 
HETATM    3  O   UNL     1     -13.361  10.491  70.385  1.00  0.00    -0.154 OA 
ENDROOT
BRANCH   1   4
HETATM    4  C   UNL     1     -11.207   9.631  71.057  1.00  0.00    -0.375 C  
BRANCH   4   5
HETATM    5  N   UNL     1     -11.456   8.467  70.202  1.00  0.00    -0.460 NA 
HETATM    6  C   UNL     1     -11.155   6.151  69.564  1.00  0.00    -0.490 C  
HETATM    7  C   UNL     1     -11.338   6.723  71.984  1.00  0.00    -0.308 C  
HETATM    8  C   UNL     1     -10.803   7.212  70.627  1.00  0.00    -0.245 C  
HETATM    9  H   UNL     1     -11.203   8.683  69.238  1.00  0.00     0.000 HD 
HETATM   10  C   UNL     1      -9.272   7.350  70.680  1.00  0.00    -0.157 C  
ENDBRANCH   4   5
ENDBRANCH   1   4
BRANCH   1  11
HETATM   11  C   UNL     1     -11.436  11.573  69.376  1.00  0.00    -0.309 C  
BRANCH  11  12
HETATM   12  O   UNL     1     -12.060  10.996  68.224  1.00  0.00    -0.604 OA 
BRANCH  12  13
HETATM   13  C   UNL     1     -11.205  10.504  67.287  1.00  0.00    -0.125 A  
HETATM   14  N   UNL     1     -10.685   9.285  67.442  1.00  0.00    -0.253 NA 
HETATM   15  S   UNL     1      -9.636   9.123  66.153  1.00  0.00    -0.278 SA 
HETATM   16  N   UNL     1      -9.826  10.603  65.411  1.00  0.00    -0.247 NA 
HETATM   17  C   UNL     1     -10.749  11.261  66.124  1.00  0.00    -0.250 A  
BRANCH  17  18
HETATM   18  N   UNL     1     -11.150  12.539  65.847  1.00  0.00    -0.288 NA 
HETATM   19  C   UNL     1     -10.491  13.726  66.396  1.00  0.00    -0.284 C  
HETATM   20  C   UNL     1     -10.413  14.791  65.290  1.00  0.00    -0.404 C  
HETATM   21  O   UNL     1     -11.720  15.102  64.772  1.00  0.00    -0.384 OA 
HETATM   22  C   UNL     1     -12.356  13.921  64.248  1.00  0.00    -0.348 C  
HETATM   23  C   UNL     1     -12.489  12.820  65.317  1.00  0.00    -0.465 C  
ENDBRANCH  17  18
ENDBRANCH  12  13
ENDBRANCH  11  12
ENDBRANCH   1  11
TORSDOF 6
ENDMDL
MODEL       34
REMARK 921   NORMALIZED FREE ENERGY PREDICTED BY IDOCK:   -5.29 KCAL/MOL
REMARK 922        TOTAL FREE ENERGY PREDICTED BY IDOCK:   -7.93 KCAL/MOL
REMARK 923 INTER-LIGAND FREE ENERGY PREDICTED BY IDOCK:   -7.08 KCAL/MOL
REMARK 924 INTRA-LIGAND FREE ENERGY PREDICTED BY IDOCK:   -0.85 KCAL/MOL
REMARK 927      BINDING AFFINITY PREDICTED BY RF-SCORE:    0.00 PKD
ROOT
HETATM    1  C   UNL     1     -10.872  15.886  64.951  1.00  0.00    -0.400 C  
HETATM    2  H   UNL     1     -11.822  15.901  63.243  1.00  0.00     0.000 HD 
HETATM    3  O   UNL     1     -11.644  16.536  63.927  1.00  0.00    -1.175 OA 
ENDROOT
BRANCH   1   4
HETATM    4  C   UNL     1     -10.584  16.918  66.063  1.00  0.00    -0.218 C  
BRANCH   4   5
HETATM    5  N   UNL     1      -9.334  17.656  65.856  1.00  0.00    -0.524 NA 
HETATM    6  C   UNL     1      -7.924  19.614  66.053  1.00  0.00    -0.337 C  
HETATM    7  C   UNL     1      -9.387  18.982  67.971  1.00  0.00    -0.365 C  
HETATM    8  C   UNL     1      -9.293  19.014  66.435  1.00  0.00    -0.336 C  
HETATM    9  H   UNL     1      -9.112  17.693  64.861  1.00  0.00     0.000 HD 
HETATM   10  C   UNL     1     -10.393  19.919  65.857  1.00  0.00    -0.567 C  
ENDBRANCH   4   5
ENDBRANCH   1   4
BRANCH   1  11
HETATM   11  C   UNL     1     -11.618  14.639  65.441  1.00  0.00    -0.345 C  
BRANCH  11  12
HETATM   12  O   UNL     1     -11.502  14.575  66.866  1.00  0.00    -0.340 OA 
BRANCH  12  13
HETATM   13  C   UNL     1     -11.129  13.364  67.364  1.00  0.00    -0.278 A  
HETATM   14  N   UNL     1     -11.980  12.339  67.315  1.00  0.00    -0.559 NA 
HETATM   15  S   UNL     1     -11.179  11.106  68.107  1.00  0.00    -0.316 SA 
HETATM   16  N   UNL     1      -9.763  11.877  68.527  1.00  0.00    -0.196 NA 
HETATM   17  C   UNL     1      -9.851  13.116  68.027  1.00  0.00    -0.231 A  
BRANCH  17  18
HETATM   18  N   UNL     1      -8.889  14.072  68.200  1.00  0.00    -0.175 NA 
HETATM   19  C   UNL     1      -9.053  15.227  69.085  1.00  0.00    -0.236 C  
HETATM   20  C   UNL     1      -7.722  15.467  69.818  1.00  0.00    -0.078 C  
HETATM   21  O   UNL     1      -6.641  15.662  68.888  1.00  0.00    -0.108 OA 
HETATM   22  C   UNL     1      -6.504  14.522  68.019  1.00  0.00    -0.150 C  
HETATM   23  C   UNL     1      -7.799  14.241  67.233  1.00  0.00    -0.147 C  
ENDBRANCH  17  18
ENDBRANCH  12  13
ENDBRANCH  11  12
ENDBRANCH   1  11
TORSDOF 6
ENDMDL
MODEL       35
REMARK 921   NORMALIZED FREE ENERGY PREDICTED BY IDOCK:   -5.28 KCAL/MOL
REMARK 922        TOTAL FREE ENERGY PREDICTED BY IDOCK:   -7.92 KCAL/MOL
REMARK 923 INTER-LIGAND FREE ENERGY PREDICTED BY IDOCK:   -7.07 KCAL/MOL
REMARK 924 INTRA-LIGAND FREE ENERGY PREDICTED BY IDOCK:   -0.85 KCAL/MOL
REMARK 927      BINDING AFFINITY PREDICTED BY RF-SCORE:    0.00 PKD
ROOT
HETATM    1  C   UNL     1     -10.740   9.173  67.394  1.00  0.00    -0.177 C  
HETATM    2  H   UNL     1     -10.078   8.562  65.659  1.00  0.00     0.000 HD 
HETATM    3  O   UNL     1      -9.925   8.325  66.565  1.00  0.00    -0.259 OA 
ENDROOT
BRANCH   1   4
HETATM    4  C   UNL     1     -10.490   8.787  68.868  1.00  0.00    -0.197 C  
BRANCH   4   5
HETATM    5  N   UNL     1     -11.462   9.378  69.792  1.00  0.00    -0.440 NA 
HETATM    6  C   UNL     1     -12.661   9.478  71.893  1.00  0.00    -0.479 C  
HETATM    7  C   UNL     1     -10.241   8.879  71.911  1.00  0.00    -0.403 C  
HETATM    8  C   UNL     1     -11.552   8.736  71.119  1.00  0.00    -0.289 C  
HETATM    9  H   UNL     1     -12.384   9.408  69.356  1.00  0.00     0.000 HD 
HETATM   10  C   UNL     1     -11.948   7.253  71.015  1.00  0.00    -0.362 C  
ENDBRANCH   4   5
ENDBRANCH   1   4
BRANCH   1  11
HETATM   11  C   UNL     1     -10.436  10.643  67.077  1.00  0.00    -0.243 C  
BRANCH  11  12
HETATM   12  O   UNL     1     -11.599  11.418  67.381  1.00  0.00    -0.509 OA 
BRANCH  12  13
HETATM   13  C   UNL     1     -11.831  12.468  66.546  1.00  0.00    -0.367 A  
HETATM   14  N   UNL     1     -12.211  12.240  65.288  1.00  0.00    -0.532 NA 
HETATM   15  S   UNL     1     -12.281  13.761  64.602  1.00  0.00    -0.394 SA 
HETATM   16  N   UNL     1     -11.812  14.704  65.893  1.00  0.00    -0.317 NA 
HETATM   17  C   UNL     1     -11.622  13.865  66.919  1.00  0.00    -0.378 A  
BRANCH  17  18
HETATM   18  N   UNL     1     -11.190  14.264  68.153  1.00  0.00    -0.263 NA 
HETATM   19  C   UNL     1      -9.775  14.420  68.498  1.00  0.00    -0.225 C  
HETATM   20  C   UNL     1      -9.626  15.683  69.363  1.00  0.00    -0.287 C  
HETATM   21  O   UNL     1     -10.452  15.611  70.540  1.00  0.00    -0.290 OA 
HETATM   22  C   UNL     1     -11.838  15.445  70.180  1.00  0.00    -0.335 C  
HETATM   23  C   UNL     1     -12.061  14.180  69.331  1.00  0.00    -0.328 C  
ENDBRANCH  17  18
ENDBRANCH  12  13
ENDBRANCH  11  12
ENDBRANCH   1  11
TORSDOF 6
ENDMDL
MODEL       36
REMARK 921   NORMALIZED FREE ENERGY PREDICTED BY IDOCK:   -5.28 KCAL/MOL
REMARK 922        TOTAL FREE ENERGY PREDICTED BY IDOCK:   -7.91 KCAL/MOL
REMARK 923 INTER-LIGAND FREE ENERGY PREDICTED BY IDOCK:   -7.52 KCAL/MOL
REMARK 924 INTRA-LIGAND FREE ENERGY PREDICTED BY IDOCK:   -0.40 KCAL/MOL
REMARK 927      BINDING AFFINITY PREDICTED BY RF-SCORE:    0.00 PKD
ROOT
HETATM    1  C   UNL     1     -11.842  11.364  68.966  1.00  0.00    -0.348 C  
HETATM    2  H   UNL     1     -11.934  11.179  67.023  1.00  0.00     0.000 HD 
HETATM    3  O   UNL     1     -11.658  10.627  67.744  1.00  0.00    -0.501 OA 
ENDROOT
BRANCH   1   4
HETATM    4  C   UNL     1     -11.393  10.466  70.140  1.00  0.00    -0.323 C  
BRANCH   4   5
HETATM    5  N   UNL     1     -11.629   9.040  69.899  1.00  0.00    -0.441 NA 
HETATM    6  C   UNL     1     -11.684   6.715  70.574  1.00  0.00    -0.453 C  
HETATM    7  C   UNL     1     -12.457   8.458  72.181  1.00  0.00    -0.422 C  
HETATM    8  C   UNL     1     -11.439   8.156  71.067  1.00  0.00    -0.279 C  
HETATM    9  H   UNL     1     -11.053   8.718  69.121  1.00  0.00     0.000 HD 
HETATM   10  C   UNL     1     -10.007   8.237  71.622  1.00  0.00    -0.277 C  
ENDBRANCH   4   5
ENDBRANCH   1   4
BRANCH   1  11
HETATM   11  C   UNL     1     -11.086  12.696  68.879  1.00  0.00    -0.259 C  
BRANCH  11  12
HETATM   12  O   UNL     1     -12.026  13.727  68.562  1.00  0.00    -0.356 OA 
BRANCH  12  13
HETATM   13  C   UNL     1     -11.517  14.989  68.541  1.00  0.00    -0.317 A  
HETATM   14  N   UNL     1     -10.872  15.423  67.457  1.00  0.00    -0.299 NA 
HETATM   15  S   UNL     1     -10.335  16.945  67.884  1.00  0.00    -0.345 SA 
HETATM   16  N   UNL     1     -10.904  17.046  69.447  1.00  0.00    -0.204 NA 
HETATM   17  C   UNL     1     -11.570  15.907  69.676  1.00  0.00    -0.336 A  
BRANCH  17  18
HETATM   18  N   UNL     1     -12.152  15.598  70.874  1.00  0.00    -0.374 NA 
HETATM   19  C   UNL     1     -11.389  15.347  72.099  1.00  0.00    -0.356 C  
HETATM   20  C   UNL     1     -12.131  16.006  73.273  1.00  0.00    -0.500 C  
HETATM   21  O   UNL     1     -13.481  15.514  73.380  1.00  0.00    -0.452 OA 
HETATM   22  C   UNL     1     -14.210  15.760  72.162  1.00  0.00    -0.296 C  
HETATM   23  C   UNL     1     -13.532  15.103  70.946  1.00  0.00    -0.376 C  
ENDBRANCH  17  18
ENDBRANCH  12  13
ENDBRANCH  11  12
ENDBRANCH   1  11
TORSDOF 6
ENDMDL
MODEL       37
REMARK 921   NORMALIZED FREE ENERGY PREDICTED BY IDOCK:   -5.28 KCAL/MOL
REMARK 922        TOTAL FREE ENERGY PREDICTED BY IDOCK:   -7.91 KCAL/MOL
REMARK 923 INTER-LIGAND FREE ENERGY PREDICTED BY IDOCK:   -7.38 KCAL/MOL
REMARK 924 INTRA-LIGAND FREE ENERGY PREDICTED BY IDOCK:   -0.53 KCAL/MOL
REMARK 927      BINDING AFFINITY PREDICTED BY RF-SCORE:    0.00 PKD
ROOT
HETATM    1  C   UNL     1     -10.891  15.831  64.833  1.00  0.00    -0.413 C  
HETATM    2  H   UNL     1     -11.924  16.411  63.278  1.00  0.00     0.000 HD 
HETATM    3  O   UNL     1     -11.608  16.821  64.074  1.00  0.00    -1.195 OA 
ENDROOT
BRANCH   1   4
HETATM    4  C   UNL     1     -10.378  16.497  66.128  1.00  0.00    -0.334 C  
BRANCH   4   5
HETATM    5  N   UNL     1      -9.484  17.631  65.879  1.00  0.00    -0.522 NA 
HETATM    6  C   UNL     1      -8.466  19.749  66.464  1.00  0.00    -0.380 C  
HETATM    7  C   UNL     1      -8.817  18.044  68.249  1.00  0.00    -0.291 C  
HETATM    8  C   UNL     1      -9.412  18.636  66.960  1.00  0.00    -0.298 C  
HETATM    9  H   UNL     1      -9.730  18.083  64.998  1.00  0.00     0.000 HD 
HETATM   10  C   UNL     1     -10.785  19.265  67.251  1.00  0.00    -0.594 C  
ENDBRANCH   4   5
ENDBRANCH   1   4
BRANCH   1  11
HETATM   11  C   UNL     1     -11.797  14.617  65.076  1.00  0.00    -0.377 C  
BRANCH  11  12
HETATM   12  O   UNL     1     -11.083  13.678  65.886  1.00  0.00    -0.285 OA 
BRANCH  12  13
HETATM   13  C   UNL     1     -10.689  12.543  65.247  1.00  0.00    -0.286 A  
HETATM   14  N   UNL     1     -10.709  12.495  63.914  1.00  0.00    -0.410 NA 
HETATM   15  S   UNL     1     -10.259  10.927  63.556  1.00  0.00    -0.252 SA 
HETATM   16  N   UNL     1     -10.058  10.306  65.089  1.00  0.00    -0.314 NA 
HETATM   17  C   UNL     1     -10.296  11.316  65.935  1.00  0.00    -0.253 A  
BRANCH  17  18
HETATM   18  N   UNL     1     -10.267  11.187  67.296  1.00  0.00    -0.188 NA 
HETATM   19  C   UNL     1     -11.472  11.047  68.117  1.00  0.00    -0.302 C  
HETATM   20  C   UNL     1     -11.191  10.007  69.214  1.00  0.00    -0.166 C  
HETATM   21  O   UNL     1     -10.050  10.381  70.008  1.00  0.00    -0.193 OA 
HETATM   22  C   UNL     1      -8.879  10.525  69.182  1.00  0.00    -0.151 C  
HETATM   23  C   UNL     1      -9.085  11.575  68.074  1.00  0.00    -0.174 C  
ENDBRANCH  17  18
ENDBRANCH  12  13
ENDBRANCH  11  12
ENDBRANCH   1  11
TORSDOF 6
ENDMDL
MODEL       38
REMARK 921   NORMALIZED FREE ENERGY PREDICTED BY IDOCK:   -5.27 KCAL/MOL
REMARK 922        TOTAL FREE ENERGY PREDICTED BY IDOCK:   -7.91 KCAL/MOL
REMARK 923 INTER-LIGAND FREE ENERGY PREDICTED BY IDOCK:   -7.00 KCAL/MOL
REMARK 924 INTRA-LIGAND FREE ENERGY PREDICTED BY IDOCK:   -0.91 KCAL/MOL
REMARK 927      BINDING AFFINITY PREDICTED BY RF-SCORE:    0.00 PKD
ROOT
HETATM    1  C   UNL     1      -9.451  16.450  66.435  1.00  0.00    -0.293 C  
HETATM    2  H   UNL     1     -11.136  17.020  65.625  1.00  0.00     0.000 HD 
HETATM    3  O   UNL     1     -10.219  17.237  65.508  1.00  0.00    -0.602 OA 
ENDROOT
BRANCH   1   4
HETATM    4  C   UNL     1      -7.960  16.804  66.246  1.00  0.00    -0.316 C  
BRANCH   4   5
HETATM    5  N   UNL     1      -7.752  18.124  65.643  1.00  0.00    -0.514 NA 
HETATM    6  C   UNL     1      -6.807  20.352  65.597  1.00  0.00    -0.278 C  
HETATM    7  C   UNL     1      -5.399  18.461  66.406  1.00  0.00    -0.174 C  
HETATM    8  C   UNL     1      -6.832  19.020  66.373  1.00  0.00    -0.209 C  
HETATM    9  H   UNL     1      -8.649  18.587  65.499  1.00  0.00     0.000 HD 
HETATM   10  C   UNL     1      -7.322  19.305  67.803  1.00  0.00    -0.285 C  
ENDBRANCH   4   5
ENDBRANCH   1   4
BRANCH   1  11
HETATM   11  C   UNL     1      -9.969  16.689  67.860  1.00  0.00    -0.254 C  
BRANCH  11  12
HETATM   12  O   UNL     1     -11.369  16.395  67.884  1.00  0.00    -0.240 OA 
BRANCH  12  13
HETATM   13  C   UNL     1     -11.726  15.335  68.661  1.00  0.00    -0.346 A  
HETATM   14  N   UNL     1     -11.867  15.499  69.977  1.00  0.00    -0.334 NA 
HETATM   15  S   UNL     1     -12.200  13.964  70.545  1.00  0.00    -0.378 SA 
HETATM   16  N   UNL     1     -12.145  13.091  69.126  1.00  0.00    -0.245 NA 
HETATM   17  C   UNL     1     -11.905  13.978  68.152  1.00  0.00    -0.367 A  
BRANCH  17  18
HETATM   18  N   UNL     1     -11.750  13.634  66.838  1.00  0.00    -0.366 NA 
HETATM   19  C   UNL     1     -12.760  13.902  65.812  1.00  0.00    -0.461 C  
HETATM   20  C   UNL     1     -12.040  14.358  64.532  1.00  0.00    -0.481 C  
HETATM   21  O   UNL     1     -11.085  13.375  64.091  1.00  0.00    -0.378 OA 
HETATM   22  C   UNL     1     -10.108  13.117  65.118  1.00  0.00    -0.223 C  
HETATM   23  C   UNL     1     -10.764  12.629  66.423  1.00  0.00    -0.255 C  
ENDBRANCH  17  18
ENDBRANCH  12  13
ENDBRANCH  11  12
ENDBRANCH   1  11
TORSDOF 6
ENDMDL
MODEL       39
REMARK 921   NORMALIZED FREE ENERGY PREDICTED BY IDOCK:   -5.27 KCAL/MOL
REMARK 922        TOTAL FREE ENERGY PREDICTED BY IDOCK:   -7.90 KCAL/MOL
REMARK 923 INTER-LIGAND FREE ENERGY PREDICTED BY IDOCK:   -6.74 KCAL/MOL
REMARK 924 INTRA-LIGAND FREE ENERGY PREDICTED BY IDOCK:   -1.16 KCAL/MOL
REMARK 927      BINDING AFFINITY PREDICTED BY RF-SCORE:    0.00 PKD
ROOT
HETATM    1  C   UNL     1     -11.794  12.323  70.111  1.00  0.00    -0.272 C  
HETATM    2  H   UNL     1     -12.440  13.587  71.455  1.00  0.00     0.000 HD 
HETATM    3  O   UNL     1     -12.581  12.668  71.264  1.00  0.00    -0.350 OA 
ENDROOT
BRANCH   1   4
HETATM    4  C   UNL     1     -12.024  10.829  69.801  1.00  0.00    -0.325 C  
BRANCH   4   5
HETATM    5  N   UNL     1     -11.698  10.469  68.418  1.00  0.00    -0.717 NA 
HETATM    6  C   UNL     1     -10.301   9.450  66.723  1.00  0.00    -0.303 C  
HETATM    7  C   UNL     1     -10.605   8.277  68.902  1.00  0.00    -0.160 C  
HETATM    8  C   UNL     1     -10.474   9.660  68.242  1.00  0.00    -0.219 C  
HETATM    9  H   UNL     1     -11.647  11.309  67.842  1.00  0.00     0.000 HD 
HETATM   10  C   UNL     1      -9.226  10.385  68.772  1.00  0.00    -0.172 C  
ENDBRANCH   4   5
ENDBRANCH   1   4
BRANCH   1  11
HETATM   11  C   UNL     1     -12.151  13.260  68.950  1.00  0.00    -0.222 C  
BRANCH  11  12
HETATM   12  O   UNL     1     -11.070  13.246  68.012  1.00  0.00    -0.239 OA 
BRANCH  12  13
HETATM   13  C   UNL     1     -11.410  13.553  66.730  1.00  0.00    -0.328 A  
HETATM   14  N   UNL     1     -12.169  12.709  66.029  1.00  0.00    -0.597 NA 
HETATM   15  S   UNL     1     -12.257  13.404  64.513  1.00  0.00    -0.388 SA 
HETATM   16  N   UNL     1     -11.318  14.762  64.741  1.00  0.00    -0.398 NA 
HETATM   17  C   UNL     1     -10.936  14.741  66.024  1.00  0.00    -0.328 A  
BRANCH  17  18
HETATM   18  N   UNL     1     -10.115  15.678  66.585  1.00  0.00    -0.264 NA 
HETATM   19  C   UNL     1      -8.654  15.581  66.567  1.00  0.00    -0.285 C  
HETATM   20  C   UNL     1      -8.080  16.983  66.300  1.00  0.00    -0.297 C  
HETATM   21  O   UNL     1      -8.536  17.930  67.284  1.00  0.00    -0.231 OA 
HETATM   22  C   UNL     1      -9.975  18.002  67.294  1.00  0.00    -0.323 C  
HETATM   23  C   UNL     1     -10.615  16.631  67.583  1.00  0.00    -0.321 C  
ENDBRANCH  17  18
ENDBRANCH  12  13
ENDBRANCH  11  12
ENDBRANCH   1  11
TORSDOF 6
ENDMDL
MODEL       40
REMARK 921   NORMALIZED FREE ENERGY PREDICTED BY IDOCK:   -5.26 KCAL/MOL
REMARK 922        TOTAL FREE ENERGY PREDICTED BY IDOCK:   -7.89 KCAL/MOL
REMARK 923 INTER-LIGAND FREE ENERGY PREDICTED BY IDOCK:   -6.95 KCAL/MOL
REMARK 924 INTRA-LIGAND FREE ENERGY PREDICTED BY IDOCK:   -0.94 KCAL/MOL
REMARK 927      BINDING AFFINITY PREDICTED BY RF-SCORE:    0.00 PKD
ROOT
HETATM    1  C   UNL     1     -12.044  15.198  69.334  1.00  0.00    -0.260 C  
HETATM    2  H   UNL     1     -13.624  15.062  70.477  1.00  0.00     0.000 HD 
HETATM    3  O   UNL     1     -12.810  15.551  70.499  1.00  0.00    -0.443 OA 
ENDROOT
BRANCH   1   4
HETATM    4  C   UNL     1     -10.721  15.993  69.371  1.00  0.00    -0.294 C  
BRANCH   4   5
HETATM    5  N   UNL     1     -10.032  16.027  68.077  1.00  0.00    -0.227 NA 
HETATM    6  C   UNL     1      -8.885  17.158  66.271  1.00  0.00    -0.266 C  
HETATM    7  C   UNL     1      -8.414  17.848  68.620  1.00  0.00    -0.272 C  
HETATM    8  C   UNL     1      -9.513  17.347  67.667  1.00  0.00    -0.251 C  
HETATM    9  H   UNL     1     -10.639  15.649  67.350  1.00  0.00     0.000 HD 
HETATM   10  C   UNL     1     -10.633  18.395  67.552  1.00  0.00    -0.447 C  
ENDBRANCH   4   5
ENDBRANCH   1   4
BRANCH   1  11
HETATM   11  C   UNL     1     -11.854  13.677  69.289  1.00  0.00    -0.346 C  
BRANCH  11  12
HETATM   12  O   UNL     1     -11.702  13.283  67.922  1.00  0.00    -0.317 OA 
BRANCH  12  13
HETATM   13  C   UNL     1     -10.592  12.543  67.651  1.00  0.00    -0.217 A  
HETATM   14  N   UNL     1      -9.851  12.072  68.656  1.00  0.00    -0.164 NA 
HETATM   15  S   UNL     1      -8.562  11.328  67.898  1.00  0.00    -0.139 SA 
HETATM   16  N   UNL     1      -8.934  11.618  66.300  1.00  0.00    -0.204 NA 
HETATM   17  C   UNL     1     -10.102  12.273  66.302  1.00  0.00    -0.234 A  
BRANCH  17  18
HETATM   18  N   UNL     1     -10.718  12.724  65.168  1.00  0.00    -0.287 NA 
HETATM   19  C   UNL     1     -10.998  11.870  64.011  1.00  0.00    -0.381 C  
HETATM   20  C   UNL     1     -12.391  12.231  63.469  1.00  0.00    -0.565 C  
HETATM   21  O   UNL     1     -12.472  13.628  63.129  1.00  0.00    -0.786 OA 
HETATM   22  C   UNL     1     -12.183  14.450  64.275  1.00  0.00    -0.423 C  
HETATM   23  C   UNL     1     -10.786  14.155  64.853  1.00  0.00    -0.428 C  
ENDBRANCH  17  18
ENDBRANCH  12  13
ENDBRANCH  11  12
ENDBRANCH   1  11
TORSDOF 6
ENDMDL
MODEL       41
REMARK 921   NORMALIZED FREE ENERGY PREDICTED BY IDOCK:   -5.25 KCAL/MOL
REMARK 922        TOTAL FREE ENERGY PREDICTED BY IDOCK:   -7.87 KCAL/MOL
REMARK 923 INTER-LIGAND FREE ENERGY PREDICTED BY IDOCK:   -7.20 KCAL/MOL
REMARK 924 INTRA-LIGAND FREE ENERGY PREDICTED BY IDOCK:   -0.68 KCAL/MOL
REMARK 927      BINDING AFFINITY PREDICTED BY RF-SCORE:    0.00 PKD
ROOT
HETATM    1  C   UNL     1     -10.893  10.192  67.870  1.00  0.00    -0.284 C  
HETATM    2  H   UNL     1     -10.392  10.260  65.982  1.00  0.00     0.000 HD 
HETATM    3  O   UNL     1     -10.083   9.795  66.750  1.00  0.00    -0.206 OA 
ENDROOT
BRANCH   1   4
HETATM    4  C   UNL     1     -10.390   9.435  69.119  1.00  0.00    -0.211 C  
BRANCH   4   5
HETATM    5  N   UNL     1     -11.402   8.551  69.705  1.00  0.00    -0.435 NA 
HETATM    6  C   UNL     1     -12.747   7.726  71.541  1.00  0.00    -0.355 C  
HETATM    7  C   UNL     1     -12.343  10.179  71.347  1.00  0.00    -0.515 C  
HETATM    8  C   UNL     1     -11.712   8.793  71.129  1.00  0.00    -0.291 C  
HETATM    9  H   UNL     1     -11.135   7.577  69.566  1.00  0.00     0.000 HD 
HETATM   10  C   UNL     1     -10.471   8.630  72.023  1.00  0.00    -0.422 C  
ENDBRANCH   4   5
ENDBRANCH   1   4
BRANCH   1  11
HETATM   11  C   UNL     1     -10.856  11.719  68.013  1.00  0.00    -0.213 C  
BRANCH  11  12
HETATM   12  O   UNL     1     -12.089  12.247  67.516  1.00  0.00    -0.514 OA 
BRANCH  12  13
HETATM   13  C   UNL     1     -11.997  12.926  66.340  1.00  0.00    -0.395 A  
HETATM   14  N   UNL     1     -12.443  12.363  65.216  1.00  0.00    -0.609 NA 
HETATM   15  S   UNL     1     -12.052  13.466  64.025  1.00  0.00    -0.423 SA 
HETATM   16  N   UNL     1     -11.302  14.646  64.931  1.00  0.00    -0.385 NA 
HETATM   17  C   UNL     1     -11.367  14.237  66.204  1.00  0.00    -0.342 A  
BRANCH  17  18
HETATM   18  N   UNL     1     -10.819  14.927  67.250  1.00  0.00    -0.299 NA 
HETATM   19  C   UNL     1     -11.618  15.575  68.292  1.00  0.00    -0.334 C  
HETATM   20  C   UNL     1     -10.924  15.346  69.645  1.00  0.00    -0.284 C  
HETATM   21  O   UNL     1      -9.572  15.840  69.629  1.00  0.00    -0.280 OA 
HETATM   22  C   UNL     1      -8.807  15.199  68.591  1.00  0.00    -0.186 C  
HETATM   23  C   UNL     1      -9.436  15.414  67.201  1.00  0.00    -0.213 C  
ENDBRANCH  17  18
ENDBRANCH  12  13
ENDBRANCH  11  12
ENDBRANCH   1  11
TORSDOF 6
ENDMDL
MODEL       42
REMARK 921   NORMALIZED FREE ENERGY PREDICTED BY IDOCK:   -5.24 KCAL/MOL
REMARK 922        TOTAL FREE ENERGY PREDICTED BY IDOCK:   -7.87 KCAL/MOL
REMARK 923 INTER-LIGAND FREE ENERGY PREDICTED BY IDOCK:   -7.26 KCAL/MOL
REMARK 924 INTRA-LIGAND FREE ENERGY PREDICTED BY IDOCK:   -0.61 KCAL/MOL
REMARK 927      BINDING AFFINITY PREDICTED BY RF-SCORE:    0.00 PKD
ROOT
HETATM    1  C   UNL     1     -11.955  11.355  68.776  1.00  0.00    -0.287 C  
HETATM    2  H   UNL     1     -12.030  10.934  66.869  1.00  0.00     0.000 HD 
HETATM    3  O   UNL     1     -11.773  10.471  67.657  1.00  0.00    -0.401 OA 
ENDROOT
BRANCH   1   4
HETATM    4  C   UNL     1     -11.538  10.602  70.057  1.00  0.00    -0.325 C  
BRANCH   4   5
HETATM    5  N   UNL     1     -11.713   9.150  69.956  1.00  0.00    -0.451 NA 
HETATM    6  C   UNL     1     -11.990   6.937  70.897  1.00  0.00    -0.430 C  
HETATM    7  C   UNL     1     -13.170   8.858  71.961  1.00  0.00    -0.459 C  
HETATM    8  C   UNL     1     -11.879   8.437  71.238  1.00  0.00    -0.289 C  
HETATM    9  H   UNL     1     -10.942   8.742  69.427  1.00  0.00     0.000 HD 
HETATM   10  C   UNL     1     -10.666   8.631  72.165  1.00  0.00    -0.417 C  
ENDBRANCH   4   5
ENDBRANCH   1   4
BRANCH   1  11
HETATM   11  C   UNL     1     -11.171  12.652  68.536  1.00  0.00    -0.279 C  
BRANCH  11  12
HETATM   12  O   UNL     1     -12.096  13.744  68.536  1.00  0.00    -0.363 OA 
BRANCH  12  13
HETATM   13  C   UNL     1     -11.957  14.621  69.568  1.00  0.00    -0.319 A  
HETATM   14  N   UNL     1     -12.674  14.451  70.680  1.00  0.00    -0.350 NA 
HETATM   15  S   UNL     1     -12.284  15.774  71.622  1.00  0.00    -0.491 SA 
HETATM   16  N   UNL     1     -11.222  16.569  70.613  1.00  0.00    -0.218 NA 
HETATM   17  C   UNL     1     -11.104  15.806  69.519  1.00  0.00    -0.306 A  
BRANCH  17  18
HETATM   18  N   UNL     1     -10.343  16.148  68.437  1.00  0.00    -0.248 NA 
HETATM   19  C   UNL     1      -9.063  15.511  68.120  1.00  0.00    -0.184 C  
HETATM   20  C   UNL     1      -8.988  15.308  66.597  1.00  0.00    -0.291 C  
HETATM   21  O   UNL     1      -9.146  16.556  65.896  1.00  0.00    -0.460 OA 
HETATM   22  C   UNL     1     -10.404  17.173  66.230  1.00  0.00    -0.313 C  
HETATM   23  C   UNL     1     -10.533  17.427  67.744  1.00  0.00    -0.376 C  
ENDBRANCH  17  18
ENDBRANCH  12  13
ENDBRANCH  11  12
ENDBRANCH   1  11
TORSDOF 6
ENDMDL
MODEL       43
REMARK 921   NORMALIZED FREE ENERGY PREDICTED BY IDOCK:   -5.23 KCAL/MOL
REMARK 922        TOTAL FREE ENERGY PREDICTED BY IDOCK:   -7.85 KCAL/MOL
REMARK 923 INTER-LIGAND FREE ENERGY PREDICTED BY IDOCK:   -7.20 KCAL/MOL
REMARK 924 INTRA-LIGAND FREE ENERGY PREDICTED BY IDOCK:   -0.65 KCAL/MOL
REMARK 927      BINDING AFFINITY PREDICTED BY RF-SCORE:    0.00 PKD
ROOT
HETATM    1  C   UNL     1     -10.882  11.035  69.157  1.00  0.00    -0.237 C  
HETATM    2  H   UNL     1     -11.734  12.769  69.450  1.00  0.00     0.000 HD 
HETATM    3  O   UNL     1     -11.761  11.919  69.873  1.00  0.00    -0.310 OA 
ENDROOT
BRANCH   1   4
HETATM    4  C   UNL     1     -10.926   9.653  69.845  1.00  0.00    -0.252 C  
BRANCH   4   5
HETATM    5  N   UNL     1     -12.271   9.269  70.282  1.00  0.00    -0.432 NA 
HETATM    6  C   UNL     1     -13.831   7.867  71.492  1.00  0.00    -0.415 C  
HETATM    7  C   UNL     1     -11.649   8.439  72.553  1.00  0.00    -0.426 C  
HETATM    8  C   UNL     1     -12.336   8.123  71.213  1.00  0.00    -0.265 C  
HETATM    9  H   UNL     1     -12.865   9.094  69.472  1.00  0.00     0.000 HD 
HETATM   10  C   UNL     1     -11.736   6.848  70.597  1.00  0.00    -0.417 C  
ENDBRANCH   4   5
ENDBRANCH   1   4
BRANCH   1  11
HETATM   11  C   UNL     1     -11.281  11.004  67.676  1.00  0.00    -0.305 C  
BRANCH  11  12
HETATM   12  O   UNL     1     -12.147  12.115  67.421  1.00  0.00    -0.553 OA 
BRANCH  12  13
HETATM   13  C   UNL     1     -11.963  12.729  66.220  1.00  0.00    -0.395 A  
HETATM   14  N   UNL     1     -12.385  12.134  65.103  1.00  0.00    -0.469 NA 
HETATM   15  S   UNL     1     -11.879  13.156  63.882  1.00  0.00    -0.482 SA 
HETATM   16  N   UNL     1     -11.111  14.339  64.769  1.00  0.00    -0.386 NA 
HETATM   17  C   UNL     1     -11.258  13.998  66.055  1.00  0.00    -0.310 A  
BRANCH  17  18
HETATM   18  N   UNL     1     -10.724  14.709  67.093  1.00  0.00    -0.287 NA 
HETATM   19  C   UNL     1      -9.374  14.483  67.613  1.00  0.00    -0.202 C  
HETATM   20  C   UNL     1      -8.743  15.850  67.928  1.00  0.00    -0.168 C  
HETATM   21  O   UNL     1      -9.550  16.596  68.858  1.00  0.00    -0.240 OA 
HETATM   22  C   UNL     1     -10.877  16.797  68.334  1.00  0.00    -0.355 C  
HETATM   23  C   UNL     1     -11.577  15.461  68.020  1.00  0.00    -0.292 C  
ENDBRANCH  17  18
ENDBRANCH  12  13
ENDBRANCH  11  12
ENDBRANCH   1  11
TORSDOF 6
ENDMDL
MODEL       44
REMARK 921   NORMALIZED FREE ENERGY PREDICTED BY IDOCK:   -5.21 KCAL/MOL
REMARK 922        TOTAL FREE ENERGY PREDICTED BY IDOCK:   -7.83 KCAL/MOL
REMARK 923 INTER-LIGAND FREE ENERGY PREDICTED BY IDOCK:   -7.30 KCAL/MOL
REMARK 924 INTRA-LIGAND FREE ENERGY PREDICTED BY IDOCK:   -0.53 KCAL/MOL
REMARK 927      BINDING AFFINITY PREDICTED BY RF-SCORE:    0.00 PKD
ROOT
HETATM    1  C   UNL     1     -12.774  10.588  70.744  1.00  0.00    -0.381 C  
HETATM    2  H   UNL     1     -13.338  11.672  69.218  1.00  0.00     0.000 HD 
HETATM    3  O   UNL     1     -12.598  11.109  69.416  1.00  0.00    -0.297 OA 
ENDROOT
BRANCH   1   4
HETATM    4  C   UNL     1     -11.572   9.674  71.065  1.00  0.00    -0.359 C  
BRANCH   4   5
HETATM    5  N   UNL     1     -11.432   8.554  70.131  1.00  0.00    -0.462 NA 
HETATM    6  C   UNL     1     -11.167   6.208  69.595  1.00  0.00    -0.488 C  
HETATM    7  C   UNL     1     -12.674   6.855  71.473  1.00  0.00    -0.396 C  
HETATM    8  C   UNL     1     -11.365   7.213  70.748  1.00  0.00    -0.289 C  
HETATM    9  H   UNL     1     -10.623   8.702  69.528  1.00  0.00     0.000 HD 
HETATM   10  C   UNL     1     -10.173   7.083  71.710  1.00  0.00    -0.209 C  
ENDBRANCH   4   5
ENDBRANCH   1   4
BRANCH   1  11
HETATM   11  C   UNL     1     -12.952  11.749  71.731  1.00  0.00    -0.361 C  
BRANCH  11  12
HETATM   12  O   UNL     1     -12.861  12.977  71.001  1.00  0.00    -0.288 OA 
BRANCH  12  13
HETATM   13  C   UNL     1     -12.659  14.089  71.759  1.00  0.00    -0.287 A  
HETATM   14  N   UNL     1     -13.252  14.193  72.950  1.00  0.00    -0.582 NA 
HETATM   15  S   UNL     1     -12.829  15.718  73.484  1.00  0.00    -0.617 SA 
HETATM   16  N   UNL     1     -11.912  16.251  72.199  1.00  0.00    -0.522 NA 
HETATM   17  C   UNL     1     -11.870  15.239  71.324  1.00  0.00    -0.361 A  
BRANCH  17  18
HETATM   18  N   UNL     1     -11.238  15.310  70.114  1.00  0.00    -0.270 NA 
HETATM   19  C   UNL     1      -9.794  15.512  69.971  1.00  0.00    -0.108 C  
HETATM   20  C   UNL     1      -9.291  14.614  68.830  1.00  0.00    -0.191 C  
HETATM   21  O   UNL     1      -9.988  14.890  67.601  1.00  0.00    -0.224 OA 
HETATM   22  C   UNL     1     -11.407  14.697  67.765  1.00  0.00    -0.322 C  
HETATM   23  C   UNL     1     -11.981  15.591  68.880  1.00  0.00    -0.284 C  
ENDBRANCH  17  18
ENDBRANCH  12  13
ENDBRANCH  11  12
ENDBRANCH   1  11
TORSDOF 6
ENDMDL
MODEL       45
REMARK 921   NORMALIZED FREE ENERGY PREDICTED BY IDOCK:   -5.20 KCAL/MOL
REMARK 922        TOTAL FREE ENERGY PREDICTED BY IDOCK:   -7.81 KCAL/MOL
REMARK 923 INTER-LIGAND FREE ENERGY PREDICTED BY IDOCK:   -7.20 KCAL/MOL
REMARK 924 INTRA-LIGAND FREE ENERGY PREDICTED BY IDOCK:   -0.61 KCAL/MOL
REMARK 927      BINDING AFFINITY PREDICTED BY RF-SCORE:    0.00 PKD
ROOT
HETATM    1  C   UNL     1     -11.676  10.725  70.174  1.00  0.00    -0.339 C  
HETATM    2  H   UNL     1     -13.462  11.453  69.858  1.00  0.00     0.000 HD 
HETATM    3  O   UNL     1     -13.112  10.657  70.237  1.00  0.00    -0.223 OA 
ENDROOT
BRANCH   1   4
HETATM    4  C   UNL     1     -11.106   9.430  70.791  1.00  0.00    -0.300 C  
BRANCH   4   5
HETATM    5  N   UNL     1     -11.123   8.293  69.865  1.00  0.00    -0.416 NA 
HETATM    6  C   UNL     1     -10.991   5.934  69.338  1.00  0.00    -0.421 C  
HETATM    7  C   UNL     1     -12.210   6.646  71.393  1.00  0.00    -0.378 C  
HETATM    8  C   UNL     1     -11.005   6.960  70.490  1.00  0.00    -0.273 C  
HETATM    9  H   UNL     1     -10.400   8.411  69.155  1.00  0.00     0.000 HD 
HETATM   10  C   UNL     1      -9.696   6.811  71.283  1.00  0.00    -0.179 C  
ENDBRANCH   4   5
ENDBRANCH   1   4
BRANCH   1  11
HETATM   11  C   UNL     1     -11.239  10.967  68.724  1.00  0.00    -0.266 C  
BRANCH  11  12
HETATM   12  O   UNL     1     -12.205  11.818  68.098  1.00  0.00    -0.507 OA 
BRANCH  12  13
HETATM   13  C   UNL     1     -11.853  13.129  68.012  1.00  0.00    -0.358 A  
HETATM   14  N   UNL     1     -12.004  13.925  69.072  1.00  0.00    -0.353 NA 
HETATM   15  S   UNL     1     -11.560  15.435  68.513  1.00  0.00    -0.340 SA 
HETATM   16  N   UNL     1     -11.196  15.083  66.926  1.00  0.00    -0.336 NA 
HETATM   17  C   UNL     1     -11.370  13.763  66.787  1.00  0.00    -0.330 A  
BRANCH  17  18
HETATM   18  N   UNL     1     -11.205  13.098  65.604  1.00  0.00    -0.281 NA 
HETATM   19  C   UNL     1     -10.073  12.209  65.332  1.00  0.00    -0.255 C  
HETATM   20  C   UNL     1     -10.595  10.983  64.565  1.00  0.00    -0.313 C  
HETATM   21  O   UNL     1     -11.266  11.372  63.352  1.00  0.00    -0.357 OA 
HETATM   22  C   UNL     1     -12.368  12.255  63.640  1.00  0.00    -0.562 C  
HETATM   23  C   UNL     1     -11.907  13.521  64.387  1.00  0.00    -0.414 C  
ENDBRANCH  17  18
ENDBRANCH  12  13
ENDBRANCH  11  12
ENDBRANCH   1  11
TORSDOF 6
ENDMDL
MODEL       46
REMARK 921   NORMALIZED FREE ENERGY PREDICTED BY IDOCK:   -5.17 KCAL/MOL
REMARK 922        TOTAL FREE ENERGY PREDICTED BY IDOCK:   -7.77 KCAL/MOL
REMARK 923 INTER-LIGAND FREE ENERGY PREDICTED BY IDOCK:   -7.31 KCAL/MOL
REMARK 924 INTRA-LIGAND FREE ENERGY PREDICTED BY IDOCK:   -0.47 KCAL/MOL
REMARK 927      BINDING AFFINITY PREDICTED BY RF-SCORE:    0.00 PKD
ROOT
HETATM    1  C   UNL     1     -11.290  13.154  66.701  1.00  0.00    -0.325 C  
HETATM    2  H   UNL     1     -13.200  13.531  66.873  1.00  0.00     0.000 HD 
HETATM    3  O   UNL     1     -12.405  14.050  66.848  1.00  0.00    -0.418 OA 
ENDROOT
BRANCH   1   4
HETATM    4  C   UNL     1      -9.998  13.998  66.660  1.00  0.00    -0.278 C  
BRANCH   4   5
HETATM    5  N   UNL     1      -9.990  15.089  67.638  1.00  0.00    -0.225 NA 
HETATM    6  C   UNL     1      -9.478  17.345  68.354  1.00  0.00    -0.293 C  
HETATM    7  C   UNL     1     -10.290  16.972  66.027  1.00  0.00    -0.324 C  
HETATM    8  C   UNL     1      -9.437  16.372  67.158  1.00  0.00    -0.231 C  
HETATM    9  H   UNL     1      -9.503  14.795  68.485  1.00  0.00     0.000 HD 
HETATM   10  C   UNL     1      -7.974  16.232  66.701  1.00  0.00    -0.324 C  
ENDBRANCH   4   5
ENDBRANCH   1   4
BRANCH   1  11
HETATM   11  C   UNL     1     -11.317  12.115  67.829  1.00  0.00    -0.307 C  
BRANCH  11  12
HETATM   12  O   UNL     1     -11.596  12.792  69.058  1.00  0.00    -0.276 OA 
BRANCH  12  13
HETATM   13  C   UNL     1     -12.143  12.018  70.035  1.00  0.00    -0.280 A  
HETATM   14  N   UNL     1     -12.278  10.705  69.839  1.00  0.00    -0.300 NA 
HETATM   15  S   UNL     1     -13.067  10.168  71.210  1.00  0.00    -0.388 SA 
HETATM   16  N   UNL     1     -13.253  11.600  72.040  1.00  0.00    -0.457 NA 
HETATM   17  C   UNL     1     -12.668  12.544  71.292  1.00  0.00    -0.252 A  
BRANCH  17  18
HETATM   18  N   UNL     1     -12.648  13.870  71.626  1.00  0.00    -0.324 NA 
HETATM   19  C   UNL     1     -13.182  14.390  72.887  1.00  0.00    -0.517 C  
HETATM   20  C   UNL     1     -12.228  15.481  73.401  1.00  0.00    -0.522 C  
HETATM   21  O   UNL     1     -12.056  16.527  72.427  1.00  0.00    -0.473 OA 
HETATM   22  C   UNL     1     -11.543  15.994  71.191  1.00  0.00    -0.443 C  
HETATM   23  C   UNL     1     -12.468  14.910  70.607  1.00  0.00    -0.352 C  
ENDBRANCH  17  18
ENDBRANCH  12  13
ENDBRANCH  11  12
ENDBRANCH   1  11
TORSDOF 6
ENDMDL
MODEL       47
REMARK 921   NORMALIZED FREE ENERGY PREDICTED BY IDOCK:   -5.17 KCAL/MOL
REMARK 922        TOTAL FREE ENERGY PREDICTED BY IDOCK:   -7.76 KCAL/MOL
REMARK 923 INTER-LIGAND FREE ENERGY PREDICTED BY IDOCK:   -7.61 KCAL/MOL
REMARK 924 INTRA-LIGAND FREE ENERGY PREDICTED BY IDOCK:   -0.16 KCAL/MOL
REMARK 927      BINDING AFFINITY PREDICTED BY RF-SCORE:    0.00 PKD
ROOT
HETATM    1  C   UNL     1     -11.699  14.870  67.268  1.00  0.00    -0.291 C  
HETATM    2  H   UNL     1     -10.874  16.579  66.800  1.00  0.00     0.000 HD 
HETATM    3  O   UNL     1     -10.676  15.664  66.642  1.00  0.00    -0.308 OA 
ENDROOT
BRANCH   1   4
HETATM    4  C   UNL     1     -11.376  13.382  67.012  1.00  0.00    -0.317 C  
BRANCH   4   5
HETATM    5  N   UNL     1     -12.204  12.784  65.961  1.00  0.00    -0.559 NA 
HETATM    6  C   UNL     1     -12.529  11.718  63.811  1.00  0.00    -0.436 C  
HETATM    7  C   UNL     1     -10.569  11.057  65.203  1.00  0.00    -0.295 C  
HETATM    8  C   UNL     1     -11.467  12.239  64.802  1.00  0.00    -0.329 C  
HETATM    9  H   UNL     1     -12.905  13.454  65.645  1.00  0.00     0.000 HD 
HETATM   10  C   UNL     1     -10.635  13.320  64.091  1.00  0.00    -0.331 C  
ENDBRANCH   4   5
ENDBRANCH   1   4
BRANCH   1  11
HETATM   11  C   UNL     1     -11.795  15.237  68.754  1.00  0.00    -0.307 C  
BRANCH  11  12
HETATM   12  O   UNL     1     -11.799  14.027  69.518  1.00  0.00    -0.282 OA 
BRANCH  12  13
HETATM   13  C   UNL     1     -12.594  14.041  70.622  1.00  0.00    -0.344 A  
HETATM   14  N   UNL     1     -13.011  15.206  71.121  1.00  0.00    -0.385 NA 
HETATM   15  S   UNL     1     -13.854  14.780  72.498  1.00  0.00    -0.422 SA 
HETATM   16  N   UNL     1     -13.674  13.124  72.471  1.00  0.00    -0.668 NA 
HETATM   17  C   UNL     1     -12.982  12.842  71.361  1.00  0.00    -0.266 A  
BRANCH  17  18
HETATM   18  N   UNL     1     -12.599  11.578  71.008  1.00  0.00    -0.387 NA 
HETATM   19  C   UNL     1     -12.080  11.234  69.683  1.00  0.00    -0.322 C  
HETATM   20  C   UNL     1     -10.918  10.242  69.860  1.00  0.00    -0.303 C  
HETATM   21  O   UNL     1     -11.339   9.071  70.584  1.00  0.00    -0.260 OA 
HETATM   22  C   UNL     1     -11.856   9.430  71.880  1.00  0.00    -0.332 C  
HETATM   23  C   UNL     1     -13.043  10.406  71.771  1.00  0.00    -0.462 C  
ENDBRANCH  17  18
ENDBRANCH  12  13
ENDBRANCH  11  12
ENDBRANCH   1  11
TORSDOF 6
ENDMDL
MODEL       48
REMARK 921   NORMALIZED FREE ENERGY PREDICTED BY IDOCK:   -5.16 KCAL/MOL
REMARK 922        TOTAL FREE ENERGY PREDICTED BY IDOCK:   -7.76 KCAL/MOL
REMARK 923 INTER-LIGAND FREE ENERGY PREDICTED BY IDOCK:   -7.00 KCAL/MOL
REMARK 924 INTRA-LIGAND FREE ENERGY PREDICTED BY IDOCK:   -0.76 KCAL/MOL
REMARK 927      BINDING AFFINITY PREDICTED BY RF-SCORE:    0.00 PKD
ROOT
HETATM    1  C   UNL     1     -11.237  10.190  70.583  1.00  0.00    -0.340 C  
HETATM    2  H   UNL     1     -12.352   9.445  72.005  1.00  0.00     0.000 HD 
HETATM    3  O   UNL     1     -11.757   9.093  71.353  1.00  0.00    -0.293 OA 
ENDROOT
BRANCH   1   4
HETATM    4  C   UNL     1     -10.271   9.617  69.523  1.00  0.00    -0.218 C  
BRANCH   4   5
HETATM    5  N   UNL     1     -10.910   8.660  68.616  1.00  0.00    -0.438 NA 
HETATM    6  C   UNL     1     -10.973   6.601  67.343  1.00  0.00    -0.434 C  
HETATM    7  C   UNL     1      -9.969   6.579  69.625  1.00  0.00    -0.186 C  
HETATM    8  C   UNL     1     -10.145   7.424  68.351  1.00  0.00    -0.177 C  
HETATM    9  H   UNL     1     -11.148   9.118  67.737  1.00  0.00     0.000 HD 
HETATM   10  C   UNL     1      -8.775   7.721  67.720  1.00  0.00    -0.123 C  
ENDBRANCH   4   5
ENDBRANCH   1   4
BRANCH   1  11
HETATM   11  C   UNL     1     -12.400  10.996  69.990  1.00  0.00    -0.305 C  
BRANCH  11  12
HETATM   12  O   UNL     1     -12.044  11.391  68.662  1.00  0.00    -0.518 OA 
BRANCH  12  13
HETATM   13  C   UNL     1     -11.850  12.727  68.486  1.00  0.00    -0.306 A  
HETATM   14  N   UNL     1     -11.965  13.553  69.527  1.00  0.00    -0.330 NA 
HETATM   15  S   UNL     1     -11.756  15.072  68.866  1.00  0.00    -0.318 SA 
HETATM   16  N   UNL     1     -11.540  14.683  67.260  1.00  0.00    -0.379 NA 
HETATM   17  C   UNL     1     -11.583  13.347  67.191  1.00  0.00    -0.358 A  
BRANCH  17  18
HETATM   18  N   UNL     1     -11.483  12.646  66.022  1.00  0.00    -0.347 NA 
HETATM   19  C   UNL     1     -12.485  12.712  64.956  1.00  0.00    -0.487 C  
HETATM   20  C   UNL     1     -11.753  12.738  63.604  1.00  0.00    -0.519 C  
HETATM   21  O   UNL     1     -10.894  11.592  63.453  1.00  0.00    -0.391 OA 
HETATM   22  C   UNL     1      -9.923  11.539  64.517  1.00  0.00    -0.263 C  
HETATM   23  C   UNL     1     -10.594  11.485  65.902  1.00  0.00    -0.268 C  
ENDBRANCH  17  18
ENDBRANCH  12  13
ENDBRANCH  11  12
ENDBRANCH   1  11
TORSDOF 6
ENDMDL
MODEL       49
REMARK 921   NORMALIZED FREE ENERGY PREDICTED BY IDOCK:   -5.15 KCAL/MOL
REMARK 922        TOTAL FREE ENERGY PREDICTED BY IDOCK:   -7.75 KCAL/MOL
REMARK 923 INTER-LIGAND FREE ENERGY PREDICTED BY IDOCK:   -7.06 KCAL/MOL
REMARK 924 INTRA-LIGAND FREE ENERGY PREDICTED BY IDOCK:   -0.68 KCAL/MOL
REMARK 927      BINDING AFFINITY PREDICTED BY RF-SCORE:    0.00 PKD
ROOT
HETATM    1  C   UNL     1      -8.784  15.921  67.079  1.00  0.00    -0.222 C  
HETATM    2  H   UNL     1     -10.627  15.506  66.578  1.00  0.00     0.000 HD 
HETATM    3  O   UNL     1     -10.201  16.167  67.109  1.00  0.00    -0.269 OA 
ENDROOT
BRANCH   1   4
HETATM    4  C   UNL     1      -8.091  16.997  67.942  1.00  0.00    -0.195 C  
BRANCH   4   5
HETATM    5  N   UNL     1      -7.615  18.144  67.163  1.00  0.00    -0.208 NA 
HETATM    6  C   UNL     1      -7.357  20.515  66.747  1.00  0.00    -0.315 C  
HETATM    7  C   UNL     1      -7.150  19.670  69.083  1.00  0.00    -0.378 C  
HETATM    8  C   UNL     1      -7.891  19.471  67.750  1.00  0.00    -0.288 C  
HETATM    9  H   UNL     1      -7.985  18.098  66.214  1.00  0.00     0.000 HD 
HETATM   10  C   UNL     1      -9.397  19.714  67.940  1.00  0.00    -0.424 C  
ENDBRANCH   4   5
ENDBRANCH   1   4
BRANCH   1  11
HETATM   11  C   UNL     1      -8.505  14.484  67.537  1.00  0.00    -0.190 C  
BRANCH  11  12
HETATM   12  O   UNL     1      -9.265  13.594  66.714  1.00  0.00    -0.246 OA 
BRANCH  12  13
HETATM   13  C   UNL     1     -10.092  12.746  67.385  1.00  0.00    -0.219 A  
HETATM   14  N   UNL     1      -9.670  12.164  68.508  1.00  0.00    -0.186 NA 
HETATM   15  S   UNL     1     -10.926  11.151  68.938  1.00  0.00    -0.245 SA 
HETATM   16  N   UNL     1     -11.994  11.437  67.692  1.00  0.00    -0.626 NA 
HETATM   17  C   UNL     1     -11.422  12.366  66.916  1.00  0.00    -0.360 A  
BRANCH  17  18
HETATM   18  N   UNL     1     -11.982  12.837  65.761  1.00  0.00    -0.432 NA 
HETATM   19  C   UNL     1     -12.752  14.081  65.688  1.00  0.00    -0.481 C  
HETATM   20  C   UNL     1     -12.376  14.806  64.386  1.00  0.00    -0.368 C  
HETATM   21  O   UNL     1     -12.611  13.970  63.237  1.00  0.00    -0.801 OA 
HETATM   22  C   UNL     1     -11.854  12.748  63.332  1.00  0.00    -0.518 C  
HETATM   23  C   UNL     1     -12.203  11.957  64.607  1.00  0.00    -0.090 C  
ENDBRANCH  17  18
ENDBRANCH  12  13
ENDBRANCH  11  12
ENDBRANCH   1  11
TORSDOF 6
ENDMDL
MODEL       50
REMARK 921   NORMALIZED FREE ENERGY PREDICTED BY IDOCK:   -5.14 KCAL/MOL
REMARK 922        TOTAL FREE ENERGY PREDICTED BY IDOCK:   -7.72 KCAL/MOL
REMARK 923 INTER-LIGAND FREE ENERGY PREDICTED BY IDOCK:   -6.73 KCAL/MOL
REMARK 924 INTRA-LIGAND FREE ENERGY PREDICTED BY IDOCK:   -1.00 KCAL/MOL
REMARK 927      BINDING AFFINITY PREDICTED BY RF-SCORE:    0.00 PKD
ROOT
HETATM    1  C   UNL     1     -10.628   7.928  67.137  1.00  0.00    -0.313 C  
HETATM    2  H   UNL     1     -10.407   6.566  65.752  1.00  0.00     0.000 HD 
HETATM    3  O   UNL     1     -10.261   6.612  66.689  1.00  0.00    -0.189 OA 
ENDROOT
BRANCH   1   4
HETATM    4  C   UNL     1     -10.389   8.002  68.660  1.00  0.00    -0.200 C  
BRANCH   4   5
HETATM    5  N   UNL     1     -11.079   9.126  69.299  1.00  0.00    -0.440 NA 
HETATM    6  C   UNL     1     -12.082  10.250  71.195  1.00  0.00    -0.494 C  
HETATM    7  C   UNL     1      -9.976   8.958  71.532  1.00  0.00    -0.391 C  
HETATM    8  C   UNL     1     -11.303   8.994  70.753  1.00  0.00    -0.277 C  
HETATM    9  H   UNL     1     -11.964   9.307  68.825  1.00  0.00     0.000 HD 
HETATM   10  C   UNL     1     -12.150   7.757  71.094  1.00  0.00    -0.306 C  
ENDBRANCH   4   5
ENDBRANCH   1   4
BRANCH   1  11
HETATM   11  C   UNL     1      -9.848   8.978  66.334  1.00  0.00    -0.286 C  
BRANCH  11  12
HETATM   12  O   UNL     1     -10.456  10.255  66.553  1.00  0.00    -0.223 OA 
BRANCH  12  13
HETATM   13  C   UNL     1      -9.602  11.247  66.924  1.00  0.00    -0.191 A  
HETATM   14  N   UNL     1      -8.725  11.031  67.906  1.00  0.00    -0.130 NA 
HETATM   15  S   UNL     1      -7.965  12.505  68.105  1.00  0.00    -0.165 SA 
HETATM   16  N   UNL     1      -8.760  13.419  66.961  1.00  0.00    -0.211 NA 
HETATM   17  C   UNL     1      -9.621  12.593  66.355  1.00  0.00    -0.248 A  
BRANCH  17  18
HETATM   18  N   UNL     1     -10.489  12.989  65.376  1.00  0.00    -0.290 NA 
HETATM   19  C   UNL     1     -10.516  12.396  64.037  1.00  0.00    -0.416 C  
HETATM   20  C   UNL     1     -11.985  12.244  63.606  1.00  0.00    -0.543 C  
HETATM   21  O   UNL     1     -12.672  13.509  63.639  1.00  0.00    -0.695 OA 
HETATM   22  C   UNL     1     -12.623  14.081  64.960  1.00  0.00    -0.390 C  
HETATM   23  C   UNL     1     -11.175  14.284  65.443  1.00  0.00    -0.329 C  
ENDBRANCH  17  18
ENDBRANCH  12  13
ENDBRANCH  11  12
ENDBRANCH   1  11
TORSDOF 6
ENDMDL
MODEL       51
REMARK 921   NORMALIZED FREE ENERGY PREDICTED BY IDOCK:   -5.13 KCAL/MOL
REMARK 922        TOTAL FREE ENERGY PREDICTED BY IDOCK:   -7.71 KCAL/MOL
REMARK 923 INTER-LIGAND FREE ENERGY PREDICTED BY IDOCK:   -7.64 KCAL/MOL
REMARK 924 INTRA-LIGAND FREE ENERGY PREDICTED BY IDOCK:   -0.07 KCAL/MOL
REMARK 927      BINDING AFFINITY PREDICTED BY RF-SCORE:    0.00 PKD
ROOT
HETATM    1  C   UNL     1      -9.914  13.507  67.177  1.00  0.00    -0.246 C  
HETATM    2  H   UNL     1      -8.030  13.281  67.647  1.00  0.00     0.000 HD 
HETATM    3  O   UNL     1      -8.533  13.286  66.841  1.00  0.00    -0.166 OA 
ENDROOT
BRANCH   1   4
HETATM    4  C   UNL     1     -10.732  13.513  65.868  1.00  0.00    -0.277 C  
BRANCH   4   5
HETATM    5  N   UNL     1      -9.956  13.087  64.700  1.00  0.00    -0.586 NA 
HETATM    6  C   UNL     1      -9.437  11.565  62.890  1.00  0.00    -0.309 C  
HETATM    7  C   UNL     1     -11.826  12.014  63.442  1.00  0.00    -0.542 C  
HETATM    8  C   UNL     1     -10.420  11.847  64.044  1.00  0.00    -0.373 C  
HETATM    9  H   UNL     1      -8.971  13.002  64.949  1.00  0.00     0.000 HD 
HETATM   10  C   UNL     1     -10.394  10.645  65.003  1.00  0.00    -0.341 C  
ENDBRANCH   4   5
ENDBRANCH   1   4
BRANCH   1  11
HETATM   11  C   UNL     1     -10.370  12.447  68.189  1.00  0.00    -0.226 C  
BRANCH  11  12
HETATM   12  O   UNL     1     -11.474  12.978  68.930  1.00  0.00    -0.260 OA 
BRANCH  12  13
HETATM   13  C   UNL     1     -12.004  12.139  69.861  1.00  0.00    -0.309 A  
HETATM   14  N   UNL     1     -12.107  10.836  69.594  1.00  0.00    -0.308 NA 
HETATM   15  S   UNL     1     -12.886  10.206  70.930  1.00  0.00    -0.332 SA 
HETATM   16  N   UNL     1     -13.108  11.587  71.837  1.00  0.00    -0.459 NA 
HETATM   17  C   UNL     1     -12.544  12.584  71.144  1.00  0.00    -0.253 A  
BRANCH  17  18
HETATM   18  N   UNL     1     -12.556  13.889  71.549  1.00  0.00    -0.347 NA 
HETATM   19  C   UNL     1     -13.050  14.320  72.859  1.00  0.00    -0.491 C  
HETATM   20  C   UNL     1     -12.114  15.417  73.391  1.00  0.00    -0.491 C  
HETATM   21  O   UNL     1     -12.024  16.520  72.469  1.00  0.00    -0.521 OA 
HETATM   22  C   UNL     1     -11.549  16.074  71.185  1.00  0.00    -0.443 C  
HETATM   23  C   UNL     1     -12.460  14.989  70.582  1.00  0.00    -0.365 C  
ENDBRANCH  17  18
ENDBRANCH  12  13
ENDBRANCH  11  12
ENDBRANCH   1  11
TORSDOF 6
ENDMDL
MODEL       52
REMARK 921   NORMALIZED FREE ENERGY PREDICTED BY IDOCK:   -5.12 KCAL/MOL
REMARK 922        TOTAL FREE ENERGY PREDICTED BY IDOCK:   -7.71 KCAL/MOL
REMARK 923 INTER-LIGAND FREE ENERGY PREDICTED BY IDOCK:   -6.72 KCAL/MOL
REMARK 924 INTRA-LIGAND FREE ENERGY PREDICTED BY IDOCK:   -0.98 KCAL/MOL
REMARK 927      BINDING AFFINITY PREDICTED BY RF-SCORE:    0.00 PKD
ROOT
HETATM    1  C   UNL     1     -11.723  10.885  70.399  1.00  0.00    -0.350 C  
HETATM    2  H   UNL     1     -11.862  10.063  72.166  1.00  0.00     0.000 HD 
HETATM    3  O   UNL     1     -11.893   9.753  71.269  1.00  0.00    -0.340 OA 
ENDROOT
BRANCH   1   4
HETATM    4  C   UNL     1     -11.774  10.382  68.940  1.00  0.00    -0.068 C  
BRANCH   4   5
HETATM    5  N   UNL     1     -12.156  11.424  67.983  1.00  0.00    -0.615 NA 
HETATM    6  C   UNL     1     -11.703  12.958  66.166  1.00  0.00    -0.451 C  
HETATM    7  C   UNL     1     -10.710  10.673  66.092  1.00  0.00    -0.146 C  
HETATM    8  C   UNL     1     -11.104  11.828  67.028  1.00  0.00    -0.304 C  
HETATM    9  H   UNL     1     -12.509  12.241  68.480  1.00  0.00     0.000 HD 
HETATM   10  C   UNL     1      -9.858  12.378  67.744  1.00  0.00    -0.203 C  
ENDBRANCH   4   5
ENDBRANCH   1   4
BRANCH   1  11
HETATM   11  C   UNL     1     -12.781  11.946  70.727  1.00  0.00    -0.153 C  
BRANCH  11  12
HETATM   12  O   UNL     1     -12.321  13.208  70.235  1.00  0.00    -0.310 OA 
BRANCH  12  13
HETATM   13  C   UNL     1     -12.277  14.209  71.157  1.00  0.00    -0.358 A  
HETATM   14  N   UNL     1     -12.954  14.084  72.299  1.00  0.00    -0.373 NA 
HETATM   15  S   UNL     1     -12.716  15.543  73.076  1.00  0.00    -0.516 SA 
HETATM   16  N   UNL     1     -11.772  16.338  71.956  1.00  0.00    -0.499 NA 
HETATM   17  C   UNL     1     -11.575  15.474  70.952  1.00  0.00    -0.375 A  
BRANCH  17  18
HETATM   18  N   UNL     1     -10.875  15.777  69.818  1.00  0.00    -0.285 NA 
HETATM   19  C   UNL     1     -11.511  16.039  68.525  1.00  0.00    -0.357 C  
HETATM   20  C   UNL     1     -10.772  17.208  67.852  1.00  0.00    -0.355 C  
HETATM   21  O   UNL     1      -9.369  16.922  67.703  1.00  0.00    -0.230 OA 
HETATM   22  C   UNL     1      -8.764  16.655  68.983  1.00  0.00    -0.193 C  
HETATM   23  C   UNL     1      -9.444  15.474  69.702  1.00  0.00    -0.243 C  
ENDBRANCH  17  18
ENDBRANCH  12  13
ENDBRANCH  11  12
ENDBRANCH   1  11
TORSDOF 6
ENDMDL
MODEL       53
REMARK 921   NORMALIZED FREE ENERGY PREDICTED BY IDOCK:   -5.12 KCAL/MOL
REMARK 922        TOTAL FREE ENERGY PREDICTED BY IDOCK:   -7.70 KCAL/MOL
REMARK 923 INTER-LIGAND FREE ENERGY PREDICTED BY IDOCK:   -7.19 KCAL/MOL
REMARK 924 INTRA-LIGAND FREE ENERGY PREDICTED BY IDOCK:   -0.51 KCAL/MOL
REMARK 927      BINDING AFFINITY PREDICTED BY RF-SCORE:    0.00 PKD
ROOT
HETATM    1  C   UNL     1     -11.755  11.842  70.003  1.00  0.00    -0.286 C  
HETATM    2  H   UNL     1     -12.035  13.773  69.886  1.00  0.00     0.000 HD 
HETATM    3  O   UNL     1     -12.397  13.065  70.405  1.00  0.00    -0.334 OA 
ENDROOT
BRANCH   1   4
HETATM    4  C   UNL     1     -12.343  10.691  70.846  1.00  0.00    -0.401 C  
BRANCH   4   5
HETATM    5  N   UNL     1     -12.077   9.365  70.279  1.00  0.00    -0.465 NA 
HETATM    6  C   UNL     1     -11.869   6.957  70.421  1.00  0.00    -0.351 C  
HETATM    7  C   UNL     1     -13.712   8.085  71.665  1.00  0.00    -0.410 C  
HETATM    8  C   UNL     1     -12.250   8.229  71.207  1.00  0.00    -0.270 C  
HETATM    9  H   UNL     1     -11.143   9.343  69.870  1.00  0.00     0.000 HD 
HETATM   10  C   UNL     1     -11.321   8.337  72.428  1.00  0.00    -0.457 C  
ENDBRANCH   4   5
ENDBRANCH   1   4
BRANCH   1  11
HETATM   11  C   UNL     1     -11.922  11.651  68.490  1.00  0.00    -0.217 C  
BRANCH  11  12
HETATM   12  O   UNL     1     -10.879  12.373  67.827  1.00  0.00    -0.213 OA 
BRANCH  12  13
HETATM   13  C   UNL     1      -9.948  11.603  67.201  1.00  0.00    -0.199 A  
HETATM   14  N   UNL     1      -9.088  10.886  67.926  1.00  0.00    -0.146 NA 
HETATM   15  S   UNL     1      -8.080  10.189  66.791  1.00  0.00    -0.120 SA 
HETATM   16  N   UNL     1      -8.722  10.811  65.385  1.00  0.00    -0.188 NA 
HETATM   17  C   UNL     1      -9.773  11.554  65.751  1.00  0.00    -0.235 A  
BRANCH  17  18
HETATM   18  N   UNL     1     -10.540  12.265  64.871  1.00  0.00    -0.282 NA 
HETATM   19  C   UNL     1     -11.096  11.693  63.643  1.00  0.00    -0.425 C  
HETATM   20  C   UNL     1     -12.526  12.229  63.464  1.00  0.00    -0.534 C  
HETATM   21  O   UNL     1     -12.544  13.668  63.433  1.00  0.00    -0.799 OA 
HETATM   22  C   UNL     1     -11.983  14.212  64.643  1.00  0.00    -0.445 C  
HETATM   23  C   UNL     1     -10.537  13.733  64.870  1.00  0.00    -0.413 C  
ENDBRANCH  17  18
ENDBRANCH  12  13
ENDBRANCH  11  12
ENDBRANCH   1  11
TORSDOF 6
ENDMDL
MODEL       54
REMARK 921   NORMALIZED FREE ENERGY PREDICTED BY IDOCK:   -5.10 KCAL/MOL
REMARK 922        TOTAL FREE ENERGY PREDICTED BY IDOCK:   -7.68 KCAL/MOL
REMARK 923 INTER-LIGAND FREE ENERGY PREDICTED BY IDOCK:   -6.80 KCAL/MOL
REMARK 924 INTRA-LIGAND FREE ENERGY PREDICTED BY IDOCK:   -0.88 KCAL/MOL
REMARK 927      BINDING AFFINITY PREDICTED BY RF-SCORE:    0.00 PKD
ROOT
HETATM    1  C   UNL     1     -11.362  12.305  69.292  1.00  0.00    -0.256 C  
HETATM    2  H   UNL     1     -12.398  13.498  70.443  1.00  0.00     0.000 HD 
HETATM    3  O   UNL     1     -12.282  12.558  70.368  1.00  0.00    -0.348 OA 
ENDROOT
BRANCH   1   4
HETATM    4  C   UNL     1     -11.174  10.777  69.170  1.00  0.00    -0.262 C  
BRANCH   4   5
HETATM    5  N   UNL     1     -10.186  10.240  70.110  1.00  0.00    -0.424 NA 
HETATM    6  C   UNL     1      -9.458   8.711  71.840  1.00  0.00    -0.369 C  
HETATM    7  C   UNL     1     -10.889   7.848  69.989  1.00  0.00    -0.238 C  
HETATM    8  C   UNL     1     -10.622   9.065  70.892  1.00  0.00    -0.250 C  
HETATM    9  H   UNL     1      -9.865  10.978  70.737  1.00  0.00     0.000 HD 
HETATM   10  C   UNL     1     -11.863   9.373  71.747  1.00  0.00    -0.452 C  
ENDBRANCH   4   5
ENDBRANCH   1   4
BRANCH   1  11
HETATM   11  C   UNL     1     -11.878  12.971  68.010  1.00  0.00    -0.347 C  
BRANCH  11  12
HETATM   12  O   UNL     1     -12.224  11.942  67.077  1.00  0.00    -0.492 OA 
BRANCH  12  13
HETATM   13  C   UNL     1     -11.939  12.221  65.775  1.00  0.00    -0.293 A  
HETATM   14  N   UNL     1     -12.805  12.928  65.046  1.00  0.00    -0.798 NA 
HETATM   15  S   UNL     1     -12.129  12.949  63.519  1.00  0.00    -0.511 SA 
HETATM   16  N   UNL     1     -10.752  12.047  63.778  1.00  0.00    -0.379 NA 
HETATM   17  C   UNL     1     -10.751  11.732  65.080  1.00  0.00    -0.292 A  
BRANCH  17  18
HETATM   18  N   UNL     1      -9.793  10.957  65.670  1.00  0.00    -0.228 NA 
HETATM   19  C   UNL     1      -9.895   9.501  65.787  1.00  0.00    -0.293 C  
HETATM   20  C   UNL     1      -8.508   8.896  65.512  1.00  0.00    -0.159 C  
HETATM   21  O   UNL     1      -7.517   9.431  66.409  1.00  0.00    -0.092 OA 
HETATM   22  C   UNL     1      -7.441  10.864  66.288  1.00  0.00    -0.129 C  
HETATM   23  C   UNL     1      -8.796  11.536  66.577  1.00  0.00    -0.190 C  
ENDBRANCH  17  18
ENDBRANCH  12  13
ENDBRANCH  11  12
ENDBRANCH   1  11
TORSDOF 6
ENDMDL
MODEL       55
REMARK 921   NORMALIZED FREE ENERGY PREDICTED BY IDOCK:   -5.10 KCAL/MOL
REMARK 922        TOTAL FREE ENERGY PREDICTED BY IDOCK:   -7.68 KCAL/MOL
REMARK 923 INTER-LIGAND FREE ENERGY PREDICTED BY IDOCK:   -6.88 KCAL/MOL
REMARK 924 INTRA-LIGAND FREE ENERGY PREDICTED BY IDOCK:   -0.79 KCAL/MOL
REMARK 927      BINDING AFFINITY PREDICTED BY RF-SCORE:    0.00 PKD
ROOT
HETATM    1  C   UNL     1     -10.833  16.083  64.872  1.00  0.00    -0.372 C  
HETATM    2  H   UNL     1     -11.943  15.581  63.344  1.00  0.00     0.000 HD 
HETATM    3  O   UNL     1     -11.847  16.353  63.888  1.00  0.00    -1.034 OA 
ENDROOT
BRANCH   1   4
HETATM    4  C   UNL     1     -10.677  17.337  65.758  1.00  0.00    -0.131 C  
BRANCH   4   5
HETATM    5  N   UNL     1      -9.288  17.787  65.884  1.00  0.00    -0.514 NA 
HETATM    6  C   UNL     1      -7.562  19.259  66.730  1.00  0.00    -0.251 C  
HETATM    7  C   UNL     1      -9.413  18.570  68.251  1.00  0.00    -0.360 C  
HETATM    8  C   UNL     1      -9.067  18.928  66.796  1.00  0.00    -0.312 C  
HETATM    9  H   UNL     1      -8.905  17.997  64.963  1.00  0.00     0.000 HD 
HETATM   10  C   UNL     1      -9.853  20.175  66.356  1.00  0.00    -0.560 C  
ENDBRANCH   4   5
ENDBRANCH   1   4
BRANCH   1  11
HETATM   11  C   UNL     1     -11.202  14.814  65.652  1.00  0.00    -0.343 C  
BRANCH  11  12
HETATM   12  O   UNL     1     -10.425  14.783  66.854  1.00  0.00    -0.270 OA 
BRANCH  12  13
HETATM   13  C   UNL     1     -11.126  14.517  67.990  1.00  0.00    -0.276 A  
HETATM   14  N   UNL     1     -11.779  15.502  68.608  1.00  0.00    -0.363 NA 
HETATM   15  S   UNL     1     -12.401  14.780  69.980  1.00  0.00    -0.291 SA 
HETATM   16  N   UNL     1     -11.826  13.227  69.799  1.00  0.00    -0.324 NA 
HETATM   17  C   UNL     1     -11.161  13.208  68.637  1.00  0.00    -0.276 A  
BRANCH  17  18
HETATM   18  N   UNL     1     -10.507  12.108  68.157  1.00  0.00    -0.205 NA 
HETATM   19  C   UNL     1      -9.054  11.942  68.226  1.00  0.00    -0.183 C  
HETATM   20  C   UNL     1      -8.751  10.478  68.586  1.00  0.00    -0.143 C  
HETATM   21  O   UNL     1      -9.342   9.573  67.635  1.00  0.00    -0.124 OA 
HETATM   22  C   UNL     1     -10.769   9.759  67.574  1.00  0.00    -0.264 C  
HETATM   23  C   UNL     1     -11.142  11.204  67.191  1.00  0.00    -0.287 C  
ENDBRANCH  17  18
ENDBRANCH  12  13
ENDBRANCH  11  12
ENDBRANCH   1  11
TORSDOF 6
ENDMDL
MODEL       56
REMARK 921   NORMALIZED FREE ENERGY PREDICTED BY IDOCK:   -5.07 KCAL/MOL
REMARK 922        TOTAL FREE ENERGY PREDICTED BY IDOCK:   -7.64 KCAL/MOL
REMARK 923 INTER-LIGAND FREE ENERGY PREDICTED BY IDOCK:   -7.64 KCAL/MOL
REMARK 924 INTRA-LIGAND FREE ENERGY PREDICTED BY IDOCK:    0.00 KCAL/MOL
REMARK 927      BINDING AFFINITY PREDICTED BY RF-SCORE:    0.00 PKD
ROOT
HETATM    1  C   UNL     1     -10.608  15.435  67.918  1.00  0.00    -0.267 C  
HETATM    2  H   UNL     1     -11.516  13.926  67.071  1.00  0.00     0.000 HD 
HETATM    3  O   UNL     1     -11.603  14.871  67.047  1.00  0.00    -0.362 OA 
ENDROOT
BRANCH   1   4
HETATM    4  C   UNL     1     -10.750  16.972  67.879  1.00  0.00    -0.348 C  
BRANCH   4   5
HETATM    5  N   UNL     1      -9.476  17.665  67.669  1.00  0.00    -0.255 NA 
HETATM    6  C   UNL     1      -8.134  19.626  67.208  1.00  0.00    -0.317 C  
HETATM    7  C   UNL     1     -10.116  19.844  68.703  1.00  0.00    -0.518 C  
HETATM    8  C   UNL     1      -9.570  19.124  67.459  1.00  0.00    -0.310 C  
HETATM    9  H   UNL     1      -8.967  17.233  66.897  1.00  0.00     0.000 HD 
HETATM   10  C   UNL     1     -10.424  19.473  66.228  1.00  0.00    -0.609 C  
ENDBRANCH   4   5
ENDBRANCH   1   4
BRANCH   1  11
HETATM   11  C   UNL     1     -10.757  14.834  69.322  1.00  0.00    -0.256 C  
BRANCH  11  12
HETATM   12  O   UNL     1     -11.903  13.978  69.325  1.00  0.00    -0.299 OA 
BRANCH  12  13
HETATM   13  C   UNL     1     -12.600  13.947  70.494  1.00  0.00    -0.312 A  
HETATM   14  N   UNL     1     -13.038  15.086  71.032  1.00  0.00    -0.398 NA 
HETATM   15  S   UNL     1     -13.733  14.614  72.476  1.00  0.00    -0.450 SA 
HETATM   16  N   UNL     1     -13.462  12.971  72.426  1.00  0.00    -0.565 NA 
HETATM   17  C   UNL     1     -12.853  12.728  71.258  1.00  0.00    -0.262 A  
BRANCH  17  18
HETATM   18  N   UNL     1     -12.431  11.488  70.868  1.00  0.00    -0.389 NA 
HETATM   19  C   UNL     1     -11.868  11.208  69.546  1.00  0.00    -0.353 C  
HETATM   20  C   UNL     1     -10.689  10.236  69.718  1.00  0.00    -0.285 C  
HETATM   21  O   UNL     1     -11.101   9.028  70.384  1.00  0.00    -0.239 OA 
HETATM   22  C   UNL     1     -11.663   9.325  71.677  1.00  0.00    -0.392 C  
HETATM   23  C   UNL     1     -12.869  10.277  71.572  1.00  0.00    -0.452 C  
ENDBRANCH  17  18
ENDBRANCH  12  13
ENDBRANCH  11  12
ENDBRANCH   1  11
TORSDOF 6
ENDMDL
MODEL       57
REMARK 921   NORMALIZED FREE ENERGY PREDICTED BY IDOCK:   -5.07 KCAL/MOL
REMARK 922        TOTAL FREE ENERGY PREDICTED BY IDOCK:   -7.63 KCAL/MOL
REMARK 923 INTER-LIGAND FREE ENERGY PREDICTED BY IDOCK:   -6.63 KCAL/MOL
REMARK 924 INTRA-LIGAND FREE ENERGY PREDICTED BY IDOCK:   -1.01 KCAL/MOL
REMARK 927      BINDING AFFINITY PREDICTED BY RF-SCORE:    0.00 PKD
ROOT
HETATM    1  C   UNL     1      -8.803  13.282  67.993  1.00  0.00    -0.190 C  
HETATM    2  H   UNL     1     -10.313  13.501  69.214  1.00  0.00     0.000 HD 
HETATM    3  O   UNL     1     -10.093  12.908  68.506  1.00  0.00    -0.233 OA 
ENDROOT
BRANCH   1   4
HETATM    4  C   UNL     1      -8.447  12.317  66.841  1.00  0.00    -0.159 C  
BRANCH   4   5
HETATM    5  N   UNL     1      -9.355  12.425  65.695  1.00  0.00    -0.441 NA 
HETATM    6  C   UNL     1     -10.690  11.496  63.903  1.00  0.00    -0.458 C  
HETATM    7  C   UNL     1     -10.644  10.328  66.104  1.00  0.00    -0.124 C  
HETATM    8  C   UNL     1      -9.799  11.144  65.111  1.00  0.00    -0.259 C  
HETATM    9  H   UNL     1      -8.936  13.012  64.973  1.00  0.00     0.000 HD 
HETATM   10  C   UNL     1      -8.615  10.301  64.606  1.00  0.00    -0.194 C  
ENDBRANCH   4   5
ENDBRANCH   1   4
BRANCH   1  11
HETATM   11  C   UNL     1      -8.825  14.759  67.580  1.00  0.00    -0.179 C  
BRANCH  11  12
HETATM   12  O   UNL     1     -10.177  15.223  67.639  1.00  0.00    -0.238 OA 
BRANCH  12  13
HETATM   13  C   UNL     1     -10.739  15.525  66.437  1.00  0.00    -0.303 A  
HETATM   14  N   UNL     1     -11.406  14.585  65.765  1.00  0.00    -0.332 NA 
HETATM   15  S   UNL     1     -11.830  15.331  64.332  1.00  0.00    -0.157 SA 
HETATM   16  N   UNL     1     -11.152  16.837  64.557  1.00  0.00    -1.039 NA 
HETATM   17  C   UNL     1     -10.605  16.822  65.778  1.00  0.00    -0.250 A  
BRANCH  17  18
HETATM   18  N   UNL     1      -9.915  17.875  66.312  1.00  0.00    -0.425 NA 
HETATM   19  C   UNL     1      -8.454  17.976  66.284  1.00  0.00    -0.184 C  
HETATM   20  C   UNL     1      -8.077  19.435  65.981  1.00  0.00    -0.250 C  
HETATM   21  O   UNL     1      -8.651  20.334  66.948  1.00  0.00    -0.320 OA 
HETATM   22  C   UNL     1     -10.086  20.211  66.969  1.00  0.00    -0.459 C  
HETATM   23  C   UNL     1     -10.533  18.773  67.293  1.00  0.00    -0.431 C  
ENDBRANCH  17  18
ENDBRANCH  12  13
ENDBRANCH  11  12
ENDBRANCH   1  11
TORSDOF 6
ENDMDL
MODEL       58
REMARK 921   NORMALIZED FREE ENERGY PREDICTED BY IDOCK:   -5.07 KCAL/MOL
REMARK 922        TOTAL FREE ENERGY PREDICTED BY IDOCK:   -7.63 KCAL/MOL
REMARK 923 INTER-LIGAND FREE ENERGY PREDICTED BY IDOCK:   -7.08 KCAL/MOL
REMARK 924 INTRA-LIGAND FREE ENERGY PREDICTED BY IDOCK:   -0.55 KCAL/MOL
REMARK 927      BINDING AFFINITY PREDICTED BY RF-SCORE:    0.00 PKD
ROOT
HETATM    1  C   UNL     1      -9.960  18.543  67.786  1.00  0.00    -0.343 C  
HETATM    2  H   UNL     1     -11.356  19.554  68.708  1.00  0.00     0.000 HD 
HETATM    3  O   UNL     1     -10.447  19.706  68.479  1.00  0.00    -0.392 OA 
ENDROOT
BRANCH   1   4
HETATM    4  C   UNL     1      -8.482  18.789  67.414  1.00  0.00    -0.272 C  
BRANCH   4   5
HETATM    5  N   UNL     1      -7.682  19.297  68.533  1.00  0.00    -0.332 NA 
HETATM    6  C   UNL     1      -5.690  20.284  69.491  1.00  0.00    -0.354 C  
HETATM    7  C   UNL     1      -6.521  21.128  67.297  1.00  0.00    -0.428 C  
HETATM    8  C   UNL     1      -6.370  19.870  68.170  1.00  0.00    -0.254 C  
HETATM    9  H   UNL     1      -7.561  18.566  69.235  1.00  0.00     0.000 HD 
HETATM   10  C   UNL     1      -5.468  18.842  67.466  1.00  0.00    -0.162 C  
ENDBRANCH   4   5
ENDBRANCH   1   4
BRANCH   1  11
HETATM   11  C   UNL     1     -10.183  17.299  68.655  1.00  0.00    -0.351 C  
BRANCH  11  12
HETATM   12  O   UNL     1     -11.352  16.623  68.182  1.00  0.00    -0.289 OA 
BRANCH  12  13
HETATM   13  C   UNL     1     -11.680  15.488  68.859  1.00  0.00    -0.370 A  
HETATM   14  N   UNL     1     -11.909  15.546  70.172  1.00  0.00    -0.329 NA 
HETATM   15  S   UNL     1     -12.168  13.955  70.610  1.00  0.00    -0.371 SA 
HETATM   16  N   UNL     1     -11.971  13.194  69.141  1.00  0.00    -0.302 NA 
HETATM   17  C   UNL     1     -11.735  14.163  68.247  1.00  0.00    -0.348 A  
BRANCH  17  18
HETATM   18  N   UNL     1     -11.480  13.927  66.925  1.00  0.00    -0.334 NA 
HETATM   19  C   UNL     1     -10.130  13.907  66.357  1.00  0.00    -0.295 C  
HETATM   20  C   UNL     1     -10.051  12.757  65.340  1.00  0.00    -0.259 C  
HETATM   21  O   UNL     1     -11.055  12.894  64.316  1.00  0.00    -0.337 OA 
HETATM   22  C   UNL     1     -12.373  12.924  64.896  1.00  0.00    -0.475 C  
HETATM   23  C   UNL     1     -12.528  14.074  65.908  1.00  0.00    -0.481 C  
ENDBRANCH  17  18
ENDBRANCH  12  13
ENDBRANCH  11  12
ENDBRANCH   1  11
TORSDOF 6
ENDMDL
MODEL       59
REMARK 921   NORMALIZED FREE ENERGY PREDICTED BY IDOCK:   -5.04 KCAL/MOL
REMARK 922        TOTAL FREE ENERGY PREDICTED BY IDOCK:   -7.60 KCAL/MOL
REMARK 923 INTER-LIGAND FREE ENERGY PREDICTED BY IDOCK:   -6.24 KCAL/MOL
REMARK 924 INTRA-LIGAND FREE ENERGY PREDICTED BY IDOCK:   -1.36 KCAL/MOL
REMARK 927      BINDING AFFINITY PREDICTED BY RF-SCORE:    0.00 PKD
ROOT
HETATM    1  C   UNL     1     -11.483  12.891  63.768  1.00  0.00    -0.459 C  
HETATM    2  H   UNL     1     -10.992  14.709  64.293  1.00  0.00     0.000 HD 
HETATM    3  O   UNL     1     -10.522  13.901  64.122  1.00  0.00    -0.204 OA 
ENDROOT
BRANCH   1   4
HETATM    4  C   UNL     1     -10.719  11.578  63.490  1.00  0.00    -0.414 C  
BRANCH   4   5
HETATM    5  N   UNL     1     -10.833  10.603  64.578  1.00  0.00    -0.132 NA 
HETATM    6  C   UNL     1      -9.914   9.050  66.192  1.00  0.00    -0.311 C  
HETATM    7  C   UNL     1      -8.723  11.199  65.772  1.00  0.00    -0.153 C  
HETATM    8  C   UNL     1      -9.554  10.087  65.109  1.00  0.00    -0.291 C  
HETATM    9  H   UNL     1     -11.429   9.827  64.290  1.00  0.00     0.000 HD 
HETATM   10  C   UNL     1      -8.725   9.381  64.023  1.00  0.00    -0.225 C  
ENDBRANCH   4   5
ENDBRANCH   1   4
BRANCH   1  11
HETATM   11  C   UNL     1     -12.535  12.774  64.878  1.00  0.00    -0.497 C  
BRANCH  11  12
HETATM   12  O   UNL     1     -12.145  13.626  65.959  1.00  0.00    -0.389 OA 
BRANCH  12  13
HETATM   13  C   UNL     1     -11.663  12.984  67.058  1.00  0.00    -0.383 A  
HETATM   14  N   UNL     1     -12.105  11.760  67.355  1.00  0.00    -0.530 NA 
HETATM   15  S   UNL     1     -11.352  11.395  68.800  1.00  0.00    -0.302 SA 
HETATM   16  N   UNL     1     -10.482  12.793  69.058  1.00  0.00    -0.066 NA 
HETATM   17  C   UNL     1     -10.719  13.580  68.001  1.00  0.00    -0.251 A  
BRANCH  17  18
HETATM   18  N   UNL     1     -10.208  14.840  67.866  1.00  0.00    -0.228 NA 
HETATM   19  C   UNL     1      -8.992  15.139  67.107  1.00  0.00    -0.213 C  
HETATM   20  C   UNL     1      -9.217  16.444  66.327  1.00  0.00    -0.315 C  
HETATM   21  O   UNL     1      -9.569  17.526  67.209  1.00  0.00    -0.263 OA 
HETATM   22  C   UNL     1     -10.760  17.209  67.955  1.00  0.00    -0.372 C  
HETATM   23  C   UNL     1     -10.591  15.921  68.782  1.00  0.00    -0.245 C  
ENDBRANCH  17  18
ENDBRANCH  12  13
ENDBRANCH  11  12
ENDBRANCH   1  11
TORSDOF 6
ENDMDL
MODEL       60
REMARK 921   NORMALIZED FREE ENERGY PREDICTED BY IDOCK:   -5.04 KCAL/MOL
REMARK 922        TOTAL FREE ENERGY PREDICTED BY IDOCK:   -7.60 KCAL/MOL
REMARK 923 INTER-LIGAND FREE ENERGY PREDICTED BY IDOCK:   -6.88 KCAL/MOL
REMARK 924 INTRA-LIGAND FREE ENERGY PREDICTED BY IDOCK:   -0.71 KCAL/MOL
REMARK 927      BINDING AFFINITY PREDICTED BY RF-SCORE:    0.00 PKD
ROOT
HETATM    1  C   UNL     1     -11.890  12.182  70.204  1.00  0.00    -0.287 C  
HETATM    2  H   UNL     1     -13.038  12.317  71.780  1.00  0.00     0.000 HD 
HETATM    3  O   UNL     1     -12.999  11.757  71.014  1.00  0.00    -0.253 OA 
ENDROOT
BRANCH   1   4
HETATM    4  C   UNL     1     -11.827  11.271  68.959  1.00  0.00    -0.352 C  
BRANCH   4   5
HETATM    5  N   UNL     1     -11.768   9.845  69.289  1.00  0.00    -0.460 NA 
HETATM    6  C   UNL     1     -10.652   7.700  69.410  1.00  0.00    -0.217 C  
HETATM    7  C   UNL     1      -9.362   9.764  69.950  1.00  0.00    -0.262 C  
HETATM    8  C   UNL     1     -10.467   9.188  69.048  1.00  0.00    -0.221 C  
HETATM    9  H   UNL     1     -12.509   9.342  68.800  1.00  0.00     0.000 HD 
HETATM   10  C   UNL     1     -10.045   9.275  67.571  1.00  0.00    -0.273 C  
ENDBRANCH   4   5
ENDBRANCH   1   4
BRANCH   1  11
HETATM   11  C   UNL     1     -12.038  13.673  69.875  1.00  0.00    -0.341 C  
BRANCH  11  12
HETATM   12  O   UNL     1     -12.247  13.804  68.465  1.00  0.00    -0.348 OA 
BRANCH  12  13
HETATM   13  C   UNL     1     -11.555  14.813  67.868  1.00  0.00    -0.351 A  
HETATM   14  N   UNL     1     -11.343  15.951  68.530  1.00  0.00    -0.362 NA 
HETATM   15  S   UNL     1     -10.567  16.929  67.422  1.00  0.00    -0.251 SA 
HETATM   16  N   UNL     1     -10.517  15.917  66.099  1.00  0.00    -0.315 NA 
HETATM   17  C   UNL     1     -11.070  14.763  66.491  1.00  0.00    -0.334 A  
BRANCH  17  18
HETATM   18  N   UNL     1     -11.246  13.689  65.664  1.00  0.00    -0.296 NA 
HETATM   19  C   UNL     1     -12.500  13.414  64.958  1.00  0.00    -0.428 C  
HETATM   20  C   UNL     1     -12.158  12.927  63.540  1.00  0.00    -0.555 C  
HETATM   21  O   UNL     1     -11.307  11.767  63.577  1.00  0.00    -0.418 OA 
HETATM   22  C   UNL     1     -10.086  12.053  64.286  1.00  0.00    -0.293 C  
HETATM   23  C   UNL     1     -10.357  12.523  65.727  1.00  0.00    -0.265 C  
ENDBRANCH  17  18
ENDBRANCH  12  13
ENDBRANCH  11  12
ENDBRANCH   1  11
TORSDOF 6
ENDMDL
MODEL       61
REMARK 921   NORMALIZED FREE ENERGY PREDICTED BY IDOCK:   -5.04 KCAL/MOL
REMARK 922        TOTAL FREE ENERGY PREDICTED BY IDOCK:   -7.59 KCAL/MOL
REMARK 923 INTER-LIGAND FREE ENERGY PREDICTED BY IDOCK:   -7.35 KCAL/MOL
REMARK 924 INTRA-LIGAND FREE ENERGY PREDICTED BY IDOCK:   -0.24 KCAL/MOL
REMARK 927      BINDING AFFINITY PREDICTED BY RF-SCORE:    0.00 PKD
ROOT
HETATM    1  C   UNL     1     -11.381  14.643  68.375  1.00  0.00    -0.292 C  
HETATM    2  H   UNL     1     -11.468  13.027  67.279  1.00  0.00     0.000 HD 
HETATM    3  O   UNL     1     -11.877  13.326  68.082  1.00  0.00    -0.335 OA 
ENDROOT
BRANCH   1   4
HETATM    4  C   UNL     1     -12.046  15.128  69.681  1.00  0.00    -0.304 C  
BRANCH   4   5
HETATM    5  N   UNL     1     -12.552  14.033  70.513  1.00  0.00    -0.341 NA 
HETATM    6  C   UNL     1     -13.549  13.132  72.527  1.00  0.00    -0.595 C  
HETATM    7  C   UNL     1     -14.401  15.293  71.620  1.00  0.00    -0.666 C  
HETATM    8  C   UNL     1     -13.138  14.434  71.808  1.00  0.00    -0.354 C  
HETATM    9  H   UNL     1     -11.818  13.340  70.661  1.00  0.00     0.000 HD 
HETATM   10  C   UNL     1     -12.122  15.173  72.694  1.00  0.00    -0.487 C  
ENDBRANCH   4   5
ENDBRANCH   1   4
BRANCH   1  11
HETATM   11  C   UNL     1      -9.848  14.611  68.434  1.00  0.00    -0.220 C  
BRANCH  11  12
HETATM   12  O   UNL     1      -9.346  14.608  67.094  1.00  0.00    -0.207 OA 
BRANCH  12  13
HETATM   13  C   UNL     1      -9.879  15.555  66.273  1.00  0.00    -0.294 A  
HETATM   14  N   UNL     1      -9.713  16.847  66.561  1.00  0.00    -0.267 NA 
HETATM   15  S   UNL     1     -10.592  17.642  65.384  1.00  0.00     0.282 SA 
HETATM   16  N   UNL     1     -11.196  16.349  64.524  1.00  0.00    -0.767 NA 
HETATM   17  C   UNL     1     -10.698  15.250  65.103  1.00  0.00    -0.436 A  
BRANCH  17  18
HETATM   18  N   UNL     1     -11.001  13.979  64.700  1.00  0.00    -0.397 NA 
HETATM   19  C   UNL     1     -12.371  13.471  64.602  1.00  0.00    -0.372 C  
HETATM   20  C   UNL     1     -12.478  12.612  63.331  1.00  0.00    -0.372 C  
HETATM   21  O   UNL     1     -11.516  11.541  63.343  1.00  0.00    -0.372 OA 
HETATM   22  C   UNL     1     -10.176  12.060  63.452  1.00  0.00    -0.426 C  
HETATM   23  C   UNL     1      -9.994  12.912  64.722  1.00  0.00    -0.129 C  
ENDBRANCH  17  18
ENDBRANCH  12  13
ENDBRANCH  11  12
ENDBRANCH   1  11
TORSDOF 6
ENDMDL
MODEL       62
REMARK 921   NORMALIZED FREE ENERGY PREDICTED BY IDOCK:   -5.04 KCAL/MOL
REMARK 922        TOTAL FREE ENERGY PREDICTED BY IDOCK:   -7.59 KCAL/MOL
REMARK 923 INTER-LIGAND FREE ENERGY PREDICTED BY IDOCK:   -7.09 KCAL/MOL
REMARK 924 INTRA-LIGAND FREE ENERGY PREDICTED BY IDOCK:   -0.50 KCAL/MOL
REMARK 927      BINDING AFFINITY PREDICTED BY RF-SCORE:    0.00 PKD
ROOT
HETATM    1  C   UNL     1     -13.053   9.984  71.936  1.00  0.00    -0.460 C  
HETATM    2  H   UNL     1     -14.979   9.656  71.939  1.00  0.00     0.000 HD 
HETATM    3  O   UNL     1     -14.199   9.116  71.907  1.00  0.00    -0.319 OA 
ENDROOT
BRANCH   1   4
HETATM    4  C   UNL     1     -11.784   9.106  71.885  1.00  0.00    -0.366 C  
BRANCH   4   5
HETATM    5  N   UNL     1     -11.939   7.826  72.582  1.00  0.00    -0.583 NA 
HETATM    6  C   UNL     1     -11.510   5.462  72.879  1.00  0.00    -0.340 C  
HETATM    7  C   UNL     1      -9.640   6.947  72.163  1.00  0.00    -0.154 C  
HETATM    8  C   UNL     1     -11.154   6.701  72.034  1.00  0.00    -0.255 C  
HETATM    9  H   UNL     1     -12.926   7.572  72.630  1.00  0.00     0.000 HD 
HETATM   10  C   UNL     1     -11.519   6.406  70.569  1.00  0.00    -0.444 C  
ENDBRANCH   4   5
ENDBRANCH   1   4
BRANCH   1  11
HETATM   11  C   UNL     1     -13.151  10.999  70.791  1.00  0.00    -0.052 C  
BRANCH  11  12
HETATM   12  O   UNL     1     -12.267  12.088  71.077  1.00  0.00    -0.311 OA 
BRANCH  12  13
HETATM   13  C   UNL     1     -12.876  13.280  71.322  1.00  0.00    -0.312 A  
HETATM   14  N   UNL     1     -13.790  13.369  72.289  1.00  0.00    -0.577 NA 
HETATM   15  S   UNL     1     -14.345  14.940  72.183  1.00  0.00    -0.466 SA 
HETATM   16  N   UNL     1     -13.441  15.501  70.900  1.00  0.00    -0.530 NA 
HETATM   17  C   UNL     1     -12.643  14.489  70.535  1.00  0.00    -0.351 A  
BRANCH  17  18
HETATM   18  N   UNL     1     -11.775  14.552  69.481  1.00  0.00    -0.295 NA 
HETATM   19  C   UNL     1     -12.012  13.880  68.202  1.00  0.00    -0.350 C  
HETATM   20  C   UNL     1     -11.569  14.824  67.071  1.00  0.00    -0.339 C  
HETATM   21  O   UNL     1     -10.189  15.205  67.221  1.00  0.00    -0.239 OA 
HETATM   22  C   UNL     1      -9.973  15.853  68.489  1.00  0.00    -0.216 C  
HETATM   23  C   UNL     1     -10.375  14.948  69.670  1.00  0.00    -0.128 C  
ENDBRANCH  17  18
ENDBRANCH  12  13
ENDBRANCH  11  12
ENDBRANCH   1  11
TORSDOF 6
ENDMDL
MODEL       63
REMARK 921   NORMALIZED FREE ENERGY PREDICTED BY IDOCK:   -5.04 KCAL/MOL
REMARK 922        TOTAL FREE ENERGY PREDICTED BY IDOCK:   -7.59 KCAL/MOL
REMARK 923 INTER-LIGAND FREE ENERGY PREDICTED BY IDOCK:   -6.93 KCAL/MOL
REMARK 924 INTRA-LIGAND FREE ENERGY PREDICTED BY IDOCK:   -0.66 KCAL/MOL
REMARK 927      BINDING AFFINITY PREDICTED BY RF-SCORE:    0.00 PKD
ROOT
HETATM    1  C   UNL     1     -10.452  17.014  65.319  1.00  0.00    -0.037 C  
HETATM    2  H   UNL     1     -11.303  16.244  63.738  1.00  0.00     0.000 HD 
HETATM    3  O   UNL     1     -11.427  17.025  64.262  1.00  0.00    -1.124 OA 
ENDROOT
BRANCH   1   4
HETATM    4  C   UNL     1     -10.654  18.285  66.172  1.00  0.00    -0.303 C  
BRANCH   4   5
HETATM    5  N   UNL     1      -9.434  19.086  66.312  1.00  0.00    -0.394 NA 
HETATM    6  C   UNL     1      -7.694  20.162  67.606  1.00  0.00    -0.331 C  
HETATM    7  C   UNL     1      -8.502  17.911  68.308  1.00  0.00    -0.280 C  
HETATM    8  C   UNL     1      -8.936  19.253  67.693  1.00  0.00    -0.298 C  
HETATM    9  H   UNL     1      -9.564  19.999  65.876  1.00  0.00     0.000 HD 
HETATM   10  C   UNL     1      -9.973  19.939  68.599  1.00  0.00    -0.492 C  
ENDBRANCH   4   5
ENDBRANCH   1   4
BRANCH   1  11
HETATM   11  C   UNL     1     -10.574  15.708  66.114  1.00  0.00    -0.320 C  
BRANCH  11  12
HETATM   12  O   UNL     1      -9.492  14.850  65.738  1.00  0.00    -0.308 OA 
BRANCH  12  13
HETATM   13  C   UNL     1      -9.195  13.867  66.632  1.00  0.00    -0.236 A  
HETATM   14  N   UNL     1      -8.265  14.081  67.564  1.00  0.00    -0.173 NA 
HETATM   15  S   UNL     1      -8.144  12.619  68.362  1.00  0.00    -0.103 SA 
HETATM   16  N   UNL     1      -9.255  11.711  67.514  1.00  0.00    -0.169 NA 
HETATM   17  C   UNL     1      -9.790  12.533  66.602  1.00  0.00    -0.241 A  
BRANCH  17  18
HETATM   18  N   UNL     1     -10.721  12.139  65.682  1.00  0.00    -0.265 NA 
HETATM   19  C   UNL     1     -12.136  12.510  65.759  1.00  0.00    -0.378 C  
HETATM   20  C   UNL     1     -12.628  12.836  64.339  1.00  0.00    -0.352 C  
HETATM   21  O   UNL     1     -12.420  11.725  63.447  1.00  0.00    -0.555 OA 
HETATM   22  C   UNL     1     -11.026  11.367  63.394  1.00  0.00    -0.258 C  
HETATM   23  C   UNL     1     -10.475  11.003  64.785  1.00  0.00    -0.316 C  
ENDBRANCH  17  18
ENDBRANCH  12  13
ENDBRANCH  11  12
ENDBRANCH   1  11
TORSDOF 6
ENDMDL
MODEL       64
REMARK 921   NORMALIZED FREE ENERGY PREDICTED BY IDOCK:   -5.04 KCAL/MOL
REMARK 922        TOTAL FREE ENERGY PREDICTED BY IDOCK:   -7.59 KCAL/MOL
REMARK 923 INTER-LIGAND FREE ENERGY PREDICTED BY IDOCK:   -7.04 KCAL/MOL
REMARK 924 INTRA-LIGAND FREE ENERGY PREDICTED BY IDOCK:   -0.54 KCAL/MOL
REMARK 927      BINDING AFFINITY PREDICTED BY RF-SCORE:    0.00 PKD
ROOT
HETATM    1  C   UNL     1     -10.097  10.396  66.943  1.00  0.00    -0.219 C  
HETATM    2  H   UNL     1      -9.375   8.615  67.300  1.00  0.00     0.000 HD 
HETATM    3  O   UNL     1      -9.641   9.097  66.526  1.00  0.00    -0.188 OA 
ENDROOT
BRANCH   1   4
HETATM    4  C   UNL     1     -10.529  11.180  65.686  1.00  0.00    -0.248 C  
BRANCH   4   5
HETATM    5  N   UNL     1     -11.655  12.087  65.930  1.00  0.00    -0.409 NA 
HETATM    6  C   UNL     1     -13.008  14.033  65.435  1.00  0.00    -0.346 C  
HETATM    7  C   UNL     1     -12.132  12.660  63.547  1.00  0.00    -0.648 C  
HETATM    8  C   UNL     1     -11.810  13.187  64.956  1.00  0.00    -0.354 C  
HETATM    9  H   UNL     1     -11.601  12.463  66.876  1.00  0.00     0.000 HD 
HETATM   10  C   UNL     1     -10.568  14.094  64.911  1.00  0.00    -0.449 C  
ENDBRANCH   4   5
ENDBRANCH   1   4
BRANCH   1  11
HETATM   11  C   UNL     1     -11.208  10.237  67.988  1.00  0.00    -0.235 C  
BRANCH  11  12
HETATM   12  O   UNL     1     -11.104  11.314  68.924  1.00  0.00    -0.202 OA 
BRANCH  12  13
HETATM   13  C   UNL     1     -11.859  11.180  70.049  1.00  0.00    -0.361 A  
HETATM   14  N   UNL     1     -12.159   9.962  70.502  1.00  0.00    -0.240 NA 
HETATM   15  S   UNL     1     -13.160  10.247  71.807  1.00  0.00    -0.450 SA 
HETATM   16  N   UNL     1     -13.228  11.912  71.786  1.00  0.00    -0.414 NA 
HETATM   17  C   UNL     1     -12.436  12.305  70.781  1.00  0.00    -0.265 A  
BRANCH  17  18
HETATM   18  N   UNL     1     -12.263  13.612  70.421  1.00  0.00    -0.353 NA 
HETATM   19  C   UNL     1     -12.598  14.739  71.295  1.00  0.00    -0.334 C  
HETATM   20  C   UNL     1     -11.500  15.805  71.151  1.00  0.00    -0.414 C  
HETATM   21  O   UNL     1     -11.354  16.223  69.781  1.00  0.00    -0.321 OA 
HETATM   22  C   UNL     1     -11.037  15.100  68.936  1.00  0.00    -0.270 C  
HETATM   23  C   UNL     1     -12.114  14.003  69.014  1.00  0.00    -0.323 C  
ENDBRANCH  17  18
ENDBRANCH  12  13
ENDBRANCH  11  12
ENDBRANCH   1  11
TORSDOF 6
ENDMDL
MODEL       65
REMARK 921   NORMALIZED FREE ENERGY PREDICTED BY IDOCK:   -5.03 KCAL/MOL
REMARK 922        TOTAL FREE ENERGY PREDICTED BY IDOCK:   -7.58 KCAL/MOL
REMARK 923 INTER-LIGAND FREE ENERGY PREDICTED BY IDOCK:   -6.64 KCAL/MOL
REMARK 924 INTRA-LIGAND FREE ENERGY PREDICTED BY IDOCK:   -0.95 KCAL/MOL
REMARK 927      BINDING AFFINITY PREDICTED BY RF-SCORE:    0.00 PKD
ROOT
HETATM    1  C   UNL     1     -12.223  13.605  64.710  1.00  0.00    -0.403 C  
HETATM    2  H   UNL     1     -14.046  13.485  65.406  1.00  0.00     0.000 HD 
HETATM    3  O   UNL     1     -13.316  14.083  65.514  1.00  0.00    -0.673 OA 
ENDROOT
BRANCH   1   4
HETATM    4  C   UNL     1     -11.036  14.576  64.886  1.00  0.00    -0.394 C  
BRANCH   4   5
HETATM    5  N   UNL     1     -10.111  14.171  65.947  1.00  0.00    -0.309 NA 
HETATM    6  C   UNL     1      -8.643  14.617  67.820  1.00  0.00    -0.175 C  
HETATM    7  C   UNL     1     -10.783  15.883  67.635  1.00  0.00    -0.312 C  
HETATM    8  C   UNL     1      -9.633  15.258  66.826  1.00  0.00    -0.241 C  
HETATM    9  H   UNL     1      -9.317  13.672  65.546  1.00  0.00     0.000 HD 
HETATM   10  C   UNL     1      -8.887  16.348  66.039  1.00  0.00    -0.296 C  
ENDBRANCH   4   5
ENDBRANCH   1   4
BRANCH   1  11
HETATM   11  C   UNL     1     -11.901  12.155  65.094  1.00  0.00    -0.298 C  
BRANCH  11  12
HETATM   12  O   UNL     1     -12.022  12.028  66.514  1.00  0.00    -0.616 OA 
BRANCH  12  13
HETATM   13  C   UNL     1     -10.952  11.466  67.139  1.00  0.00    -0.285 A  
HETATM   14  N   UNL     1      -9.972  10.926  66.413  1.00  0.00    -0.213 NA 
HETATM   15  S   UNL     1      -8.936  10.273  67.549  1.00  0.00    -0.134 SA 
HETATM   16  N   UNL     1      -9.740  10.658  68.957  1.00  0.00    -0.202 NA 
HETATM   17  C   UNL     1     -10.828  11.347  68.590  1.00  0.00    -0.208 A  
BRANCH  17  18
HETATM   18  N   UNL     1     -11.766  11.805  69.471  1.00  0.00    -0.317 NA 
HETATM   19  C   UNL     1     -12.756  10.939  70.116  1.00  0.00    -0.161 C  
HETATM   20  C   UNL     1     -12.906  11.384  71.580  1.00  0.00    -0.391 C  
HETATM   21  O   UNL     1     -13.280  12.772  71.669  1.00  0.00    -0.397 OA 
HETATM   22  C   UNL     1     -12.301  13.606  71.019  1.00  0.00    -0.354 C  
HETATM   23  C   UNL     1     -12.121  13.228  69.537  1.00  0.00    -0.258 C  
ENDBRANCH  17  18
ENDBRANCH  12  13
ENDBRANCH  11  12
ENDBRANCH   1  11
TORSDOF 6
ENDMDL
MODEL       66
REMARK 921   NORMALIZED FREE ENERGY PREDICTED BY IDOCK:   -5.02 KCAL/MOL
REMARK 922        TOTAL FREE ENERGY PREDICTED BY IDOCK:   -7.57 KCAL/MOL
REMARK 923 INTER-LIGAND FREE ENERGY PREDICTED BY IDOCK:   -6.69 KCAL/MOL
REMARK 924 INTRA-LIGAND FREE ENERGY PREDICTED BY IDOCK:   -0.88 KCAL/MOL
REMARK 927      BINDING AFFINITY PREDICTED BY RF-SCORE:    0.00 PKD
ROOT
HETATM    1  C   UNL     1     -12.043   9.716  71.545  1.00  0.00    -0.401 C  
HETATM    2  H   UNL     1     -13.551   9.620  72.784  1.00  0.00     0.000 HD 
HETATM    3  O   UNL     1     -13.003   8.990  72.332  1.00  0.00    -0.408 OA 
ENDROOT
BRANCH   1   4
HETATM    4  C   UNL     1     -11.152   8.692  70.809  1.00  0.00    -0.255 C  
BRANCH   4   5
HETATM    5  N   UNL     1     -11.243   8.791  69.350  1.00  0.00    -0.432 NA 
HETATM    6  C   UNL     1     -10.659   8.118  67.099  1.00  0.00    -0.355 C  
HETATM    7  C   UNL     1     -10.966   6.363  68.842  1.00  0.00    -0.412 C  
HETATM    8  C   UNL     1     -10.459   7.794  68.593  1.00  0.00    -0.172 C  
HETATM    9  H   UNL     1     -10.993   9.733  69.048  1.00  0.00     0.000 HD 
HETATM   10  C   UNL     1      -8.956   7.885  68.908  1.00  0.00    -0.141 C  
ENDBRANCH   4   5
ENDBRANCH   1   4
BRANCH   1  11
HETATM   11  C   UNL     1     -12.777  10.685  70.610  1.00  0.00    -0.359 C  
BRANCH  11  12
HETATM   12  O   UNL     1     -11.824  11.621  70.094  1.00  0.00    -0.330 OA 
BRANCH  12  13
HETATM   13  C   UNL     1     -12.172  12.930  70.218  1.00  0.00    -0.289 A  
HETATM   14  N   UNL     1     -12.758  13.355  71.339  1.00  0.00    -0.347 NA 
HETATM   15  S   UNL     1     -13.101  14.961  71.036  1.00  0.00    -0.404 SA 
HETATM   16  N   UNL     1     -12.526  15.111  69.479  1.00  0.00    -0.149 NA 
HETATM   17  C   UNL     1     -12.008  13.920  69.156  1.00  0.00    -0.363 A  
BRANCH  17  18
HETATM   18  N   UNL     1     -11.470  13.636  67.932  1.00  0.00    -0.295 NA 
HETATM   19  C   UNL     1     -10.035  13.443  67.709  1.00  0.00    -0.233 C  
HETATM   20  C   UNL     1      -9.852  12.277  66.724  1.00  0.00    -0.209 C  
HETATM   21  O   UNL     1     -10.551  12.521  65.489  1.00  0.00    -0.263 OA 
HETATM   22  C   UNL     1     -11.957  12.720  65.730  1.00  0.00    -0.449 C  
HETATM   23  C   UNL     1     -12.212  13.895  66.693  1.00  0.00    -0.424 C  
ENDBRANCH  17  18
ENDBRANCH  12  13
ENDBRANCH  11  12
ENDBRANCH   1  11
TORSDOF 6
ENDMDL
MODEL       67
REMARK 921   NORMALIZED FREE ENERGY PREDICTED BY IDOCK:   -5.01 KCAL/MOL
REMARK 922        TOTAL FREE ENERGY PREDICTED BY IDOCK:   -7.56 KCAL/MOL
REMARK 923 INTER-LIGAND FREE ENERGY PREDICTED BY IDOCK:   -6.96 KCAL/MOL
REMARK 924 INTRA-LIGAND FREE ENERGY PREDICTED BY IDOCK:   -0.59 KCAL/MOL
REMARK 927      BINDING AFFINITY PREDICTED BY RF-SCORE:    0.00 PKD
ROOT
HETATM    1  C   UNL     1     -11.114  15.421  64.683  1.00  0.00    -0.347 C  
HETATM    2  H   UNL     1     -12.048  16.159  63.133  1.00  0.00     0.000 HD 
HETATM    3  O   UNL     1     -11.681  16.510  63.935  1.00  0.00    -1.148 OA 
ENDROOT
BRANCH   1   4
HETATM    4  C   UNL     1     -10.517  15.992  65.987  1.00  0.00    -0.345 C  
BRANCH   4   5
HETATM    5  N   UNL     1      -9.251  15.359  66.369  1.00  0.00    -0.282 NA 
HETATM    6  C   UNL     1      -7.047  15.369  67.370  1.00  0.00    -0.229 C  
HETATM    7  C   UNL     1      -8.890  16.613  68.497  1.00  0.00    -0.235 C  
HETATM    8  C   UNL     1      -8.315  16.213  67.127  1.00  0.00    -0.197 C  
HETATM    9  H   UNL     1      -8.788  14.981  65.543  1.00  0.00     0.000 HD 
HETATM   10  C   UNL     1      -7.912  17.469  66.335  1.00  0.00    -0.320 C  
ENDBRANCH   4   5
ENDBRANCH   1   4
BRANCH   1  11
HETATM   11  C   UNL     1     -12.183  14.344  64.909  1.00  0.00    -0.433 C  
BRANCH  11  12
HETATM   12  O   UNL     1     -11.919  13.704  66.161  1.00  0.00    -0.370 OA 
BRANCH  12  13
HETATM   13  C   UNL     1     -11.297  12.497  66.076  1.00  0.00    -0.344 A  
HETATM   14  N   UNL     1     -11.031  11.974  64.878  1.00  0.00    -0.298 NA 
HETATM   15  S   UNL     1     -10.375  10.477  65.223  1.00  0.00    -0.161 SA 
HETATM   16  N   UNL     1     -10.447  10.485  66.887  1.00  0.00    -0.242 NA 
HETATM   17  C   UNL     1     -10.949  11.677  67.234  1.00  0.00    -0.267 A  
BRANCH  17  18
HETATM   18  N   UNL     1     -11.197  12.047  68.526  1.00  0.00    -0.233 NA 
HETATM   19  C   UNL     1     -11.080  13.426  69.005  1.00  0.00    -0.249 C  
HETATM   20  C   UNL     1     -12.247  13.703  69.968  1.00  0.00    -0.329 C  
HETATM   21  O   UNL     1     -12.259  12.764  71.059  1.00  0.00    -0.307 OA 
HETATM   22  C   UNL     1     -12.362  11.413  70.567  1.00  0.00    -0.349 C  
HETATM   23  C   UNL     1     -11.205  11.061  69.614  1.00  0.00    -0.278 C  
ENDBRANCH  17  18
ENDBRANCH  12  13
ENDBRANCH  11  12
ENDBRANCH   1  11
TORSDOF 6
ENDMDL
MODEL       68
REMARK 921   NORMALIZED FREE ENERGY PREDICTED BY IDOCK:   -5.01 KCAL/MOL
REMARK 922        TOTAL FREE ENERGY PREDICTED BY IDOCK:   -7.56 KCAL/MOL
REMARK 923 INTER-LIGAND FREE ENERGY PREDICTED BY IDOCK:   -6.73 KCAL/MOL
REMARK 924 INTRA-LIGAND FREE ENERGY PREDICTED BY IDOCK:   -0.82 KCAL/MOL
REMARK 927      BINDING AFFINITY PREDICTED BY RF-SCORE:    0.00 PKD
ROOT
HETATM    1  C   UNL     1     -11.071  14.753  70.218  1.00  0.00    -0.145 C  
HETATM    2  H   UNL     1     -11.877  15.022  71.978  1.00  0.00     0.000 HD 
HETATM    3  O   UNL     1     -11.988  14.401  71.268  1.00  0.00    -0.335 OA 
ENDROOT
BRANCH   1   4
HETATM    4  C   UNL     1     -11.251  13.744  69.064  1.00  0.00    -0.272 C  
BRANCH   4   5
HETATM    5  N   UNL     1     -10.309  12.622  69.125  1.00  0.00    -0.423 NA 
HETATM    6  C   UNL     1      -9.759  10.266  69.214  1.00  0.00    -0.240 C  
HETATM    7  C   UNL     1     -11.629  11.014  67.745  1.00  0.00    -0.277 C  
HETATM    8  C   UNL     1     -10.917  11.277  69.084  1.00  0.00    -0.240 C  
HETATM    9  H   UNL     1      -9.715  12.711  69.949  1.00  0.00     0.000 HD 
HETATM   10  C   UNL     1     -11.889  11.048  70.254  1.00  0.00    -0.456 C  
ENDBRANCH   4   5
ENDBRANCH   1   4
BRANCH   1  11
HETATM   11  C   UNL     1     -11.300  16.213  69.806  1.00  0.00    -0.323 C  
BRANCH  11  12
HETATM   12  O   UNL     1     -11.452  16.262  68.384  1.00  0.00    -0.357 OA 
BRANCH  12  13
HETATM   13  C   UNL     1     -10.751  17.247  67.760  1.00  0.00    -0.333 A  
HETATM   14  N   UNL     1     -10.532  18.403  68.389  1.00  0.00    -0.314 NA 
HETATM   15  S   UNL     1      -9.747  19.342  67.254  1.00  0.00    -0.353 SA 
HETATM   16  N   UNL     1      -9.701  18.292  65.961  1.00  0.00    -0.525 NA 
HETATM   17  C   UNL     1     -10.264  17.153  66.386  1.00  0.00    -0.328 A  
BRANCH  17  18
HETATM   18  N   UNL     1     -10.446  16.057  65.590  1.00  0.00    -0.379 NA 
HETATM   19  C   UNL     1      -9.601  14.863  65.659  1.00  0.00    -0.223 C  
HETATM   20  C   UNL     1     -10.502  13.624  65.516  1.00  0.00    -0.306 C  
HETATM   21  O   UNL     1     -11.258  13.668  64.292  1.00  0.00    -0.379 OA 
HETATM   22  C   UNL     1     -12.073  14.854  64.237  1.00  0.00    -0.353 C  
HETATM   23  C   UNL     1     -11.226  16.136  64.350  1.00  0.00    -0.171 C  
ENDBRANCH  17  18
ENDBRANCH  12  13
ENDBRANCH  11  12
ENDBRANCH   1  11
TORSDOF 6
ENDMDL
MODEL       69
REMARK 921   NORMALIZED FREE ENERGY PREDICTED BY IDOCK:   -4.99 KCAL/MOL
REMARK 922        TOTAL FREE ENERGY PREDICTED BY IDOCK:   -7.53 KCAL/MOL
REMARK 923 INTER-LIGAND FREE ENERGY PREDICTED BY IDOCK:   -6.73 KCAL/MOL
REMARK 924 INTRA-LIGAND FREE ENERGY PREDICTED BY IDOCK:   -0.80 KCAL/MOL
REMARK 927      BINDING AFFINITY PREDICTED BY RF-SCORE:    0.00 PKD
ROOT
HETATM    1  C   UNL     1      -9.078  15.435  68.084  1.00  0.00    -0.184 C  
HETATM    2  H   UNL     1      -7.271  14.694  68.159  1.00  0.00     0.000 HD 
HETATM    3  O   UNL     1      -7.700  15.470  68.496  1.00  0.00    -0.124 OA 
ENDROOT
BRANCH   1   4
HETATM    4  C   UNL     1      -9.777  16.697  68.633  1.00  0.00    -0.248 C  
BRANCH   4   5
HETATM    5  N   UNL     1     -10.361  17.537  67.583  1.00  0.00    -0.346 NA 
HETATM    6  C   UNL     1     -10.607  19.615  66.367  1.00  0.00    -0.592 C  
HETATM    7  C   UNL     1      -8.331  18.905  67.095  1.00  0.00    -0.288 C  
HETATM    8  C   UNL     1      -9.818  18.907  67.488  1.00  0.00    -0.327 C  
HETATM    9  H   UNL     1     -11.375  17.569  67.687  1.00  0.00     0.000 HD 
HETATM   10  C   UNL     1     -10.021  19.698  68.792  1.00  0.00    -0.542 C  
ENDBRANCH   4   5
ENDBRANCH   1   4
BRANCH   1  11
HETATM   11  C   UNL     1      -9.152  15.299  66.558  1.00  0.00    -0.300 C  
BRANCH  11  12
HETATM   12  O   UNL     1      -9.190  13.906  66.232  1.00  0.00    -0.206 OA 
BRANCH  12  13
HETATM   13  C   UNL     1     -10.359  13.470  65.686  1.00  0.00    -0.297 A  
HETATM   14  N   UNL     1     -10.749  13.941  64.500  1.00  0.00    -0.405 NA 
HETATM   15  S   UNL     1     -12.246  13.242  64.258  1.00  0.00    -0.377 SA 
HETATM   16  N   UNL     1     -12.407  12.360  65.663  1.00  0.00    -0.621 NA 
HETATM   17  C   UNL     1     -11.275  12.549  66.353  1.00  0.00    -0.306 A  
BRANCH  17  18
HETATM   18  N   UNL     1     -11.046  12.015  67.590  1.00  0.00    -0.247 NA 
HETATM   19  C   UNL     1     -11.444  12.671  68.837  1.00  0.00    -0.306 C  
HETATM   20  C   UNL     1     -11.985  11.598  69.797  1.00  0.00    -0.332 C  
HETATM   21  O   UNL     1     -11.009  10.567  70.030  1.00  0.00    -0.277 OA 
HETATM   22  C   UNL     1     -10.621   9.942  68.792  1.00  0.00    -0.222 C  
HETATM   23  C   UNL     1     -10.044  10.961  67.792  1.00  0.00    -0.177 C  
ENDBRANCH  17  18
ENDBRANCH  12  13
ENDBRANCH  11  12
ENDBRANCH   1  11
TORSDOF 6
ENDMDL
MODEL       70
REMARK 921   NORMALIZED FREE ENERGY PREDICTED BY IDOCK:   -4.99 KCAL/MOL
REMARK 922        TOTAL FREE ENERGY PREDICTED BY IDOCK:   -7.52 KCAL/MOL
REMARK 923 INTER-LIGAND FREE ENERGY PREDICTED BY IDOCK:   -6.89 KCAL/MOL
REMARK 924 INTRA-LIGAND FREE ENERGY PREDICTED BY IDOCK:   -0.63 KCAL/MOL
REMARK 927      BINDING AFFINITY PREDICTED BY RF-SCORE:    0.00 PKD
ROOT
HETATM    1  C   UNL     1     -11.910  14.205  68.413  1.00  0.00    -0.353 C  
HETATM    2  H   UNL     1     -11.051  13.284  66.918  1.00  0.00     0.000 HD 
HETATM    3  O   UNL     1     -11.269  13.064  67.816  1.00  0.00    -0.254 OA 
ENDROOT
BRANCH   1   4
HETATM    4  C   UNL     1     -12.264  13.848  69.873  1.00  0.00    -0.333 C  
BRANCH   4   5
HETATM    5  N   UNL     1     -13.192  14.799  70.491  1.00  0.00    -0.603 NA 
HETATM    6  C   UNL     1     -14.279  15.831  72.392  1.00  0.00    -0.428 C  
HETATM    7  C   UNL     1     -11.855  15.268  72.546  1.00  0.00    -0.532 C  
HETATM    8  C   UNL     1     -13.205  14.809  71.968  1.00  0.00    -0.351 C  
HETATM    9  H   UNL     1     -14.136  14.646  70.135  1.00  0.00     0.000 HD 
HETATM   10  C   UNL     1     -13.590  13.437  72.549  1.00  0.00    -0.659 C  
ENDBRANCH   4   5
ENDBRANCH   1   4
BRANCH   1  11
HETATM   11  C   UNL     1     -10.999  15.432  68.278  1.00  0.00    -0.288 C  
BRANCH  11  12
HETATM   12  O   UNL     1     -10.221  15.286  67.086  1.00  0.00    -0.246 OA 
BRANCH  12  13
HETATM   13  C   UNL     1      -8.874  15.370  67.259  1.00  0.00    -0.195 A  
HETATM   14  N   UNL     1      -8.142  14.254  67.297  1.00  0.00    -0.193 NA 
HETATM   15  S   UNL     1      -6.595  14.793  67.622  1.00  0.00    -0.107 SA 
HETATM   16  N   UNL     1      -6.857  16.435  67.734  1.00  0.00    -0.125 NA 
HETATM   17  C   UNL     1      -8.158  16.624  67.480  1.00  0.00    -0.168 A  
BRANCH  17  18
HETATM   18  N   UNL     1      -8.766  17.847  67.518  1.00  0.00    -0.242 NA 
HETATM   19  C   UNL     1      -9.335  18.499  66.336  1.00  0.00    -0.282 C  
HETATM   20  C   UNL     1     -10.661  19.165  66.743  1.00  0.00    -0.439 C  
HETATM   21  O   UNL     1     -10.466  20.099  67.821  1.00  0.00    -0.351 OA 
HETATM   22  C   UNL     1      -9.895  19.442  68.969  1.00  0.00    -0.419 C  
HETATM   23  C   UNL     1      -8.548  18.774  68.634  1.00  0.00    -0.323 C  
ENDBRANCH  17  18
ENDBRANCH  12  13
ENDBRANCH  11  12
ENDBRANCH   1  11
TORSDOF 6
ENDMDL
MODEL       71
REMARK 921   NORMALIZED FREE ENERGY PREDICTED BY IDOCK:   -4.98 KCAL/MOL
REMARK 922        TOTAL FREE ENERGY PREDICTED BY IDOCK:   -7.51 KCAL/MOL
REMARK 923 INTER-LIGAND FREE ENERGY PREDICTED BY IDOCK:   -6.91 KCAL/MOL
REMARK 924 INTRA-LIGAND FREE ENERGY PREDICTED BY IDOCK:   -0.60 KCAL/MOL
REMARK 927      BINDING AFFINITY PREDICTED BY RF-SCORE:    0.00 PKD
ROOT
HETATM    1  C   UNL     1     -11.129  10.760  68.877  1.00  0.00    -0.253 C  
HETATM    2  H   UNL     1     -12.840  11.660  69.167  1.00  0.00     0.000 HD 
HETATM    3  O   UNL     1     -12.491  10.794  69.340  1.00  0.00    -0.333 OA 
ENDROOT
BRANCH   1   4
HETATM    4  C   UNL     1     -10.561   9.353  69.158  1.00  0.00    -0.218 C  
BRANCH   4   5
HETATM    5  N   UNL     1     -10.849   8.390  68.092  1.00  0.00    -0.456 NA 
HETATM    6  C   UNL     1     -10.795   6.180  67.105  1.00  0.00    -0.442 C  
HETATM    7  C   UNL     1     -11.236   6.400  69.549  1.00  0.00    -0.477 C  
HETATM    8  C   UNL     1     -10.449   6.995  68.368  1.00  0.00    -0.201 C  
HETATM    9  H   UNL     1     -10.434   8.705  67.216  1.00  0.00     0.000 HD 
HETATM   10  C   UNL     1      -8.937   6.870  68.622  1.00  0.00    -0.129 C  
ENDBRANCH   4   5
ENDBRANCH   1   4
BRANCH   1  11
HETATM   11  C   UNL     1     -11.082  11.164  67.398  1.00  0.00    -0.307 C  
BRANCH  11  12
HETATM   12  O   UNL     1     -12.153  12.080  67.147  1.00  0.00    -0.587 OA 
BRANCH  12  13
HETATM   13  C   UNL     1     -11.995  12.870  66.049  1.00  0.00    -0.446 A  
HETATM   14  N   UNL     1     -12.450  12.455  64.866  1.00  0.00    -0.549 NA 
HETATM   15  S   UNL     1     -11.968  13.649  63.803  1.00  0.00    -0.284 SA 
HETATM   16  N   UNL     1     -11.167  14.679  64.838  1.00  0.00    -0.379 NA 
HETATM   17  C   UNL     1     -11.284  14.146  66.061  1.00  0.00    -0.319 A  
BRANCH  17  18
HETATM   18  N   UNL     1     -10.718  14.688  67.180  1.00  0.00    -0.287 NA 
HETATM   19  C   UNL     1     -11.488  15.378  68.218  1.00  0.00    -0.353 C  
HETATM   20  C   UNL     1     -10.923  14.972  69.589  1.00  0.00    -0.279 C  
HETATM   21  O   UNL     1      -9.518  15.273  69.684  1.00  0.00    -0.237 OA 
HETATM   22  C   UNL     1      -8.780  14.596  68.649  1.00  0.00    -0.174 C  
HETATM   23  C   UNL     1      -9.281  14.979  67.244  1.00  0.00    -0.201 C  
ENDBRANCH  17  18
ENDBRANCH  12  13
ENDBRANCH  11  12
ENDBRANCH   1  11
TORSDOF 6
ENDMDL
MODEL       72
REMARK 921   NORMALIZED FREE ENERGY PREDICTED BY IDOCK:   -4.96 KCAL/MOL
REMARK 922        TOTAL FREE ENERGY PREDICTED BY IDOCK:   -7.49 KCAL/MOL
REMARK 923 INTER-LIGAND FREE ENERGY PREDICTED BY IDOCK:   -6.95 KCAL/MOL
REMARK 924 INTRA-LIGAND FREE ENERGY PREDICTED BY IDOCK:   -0.54 KCAL/MOL
REMARK 927      BINDING AFFINITY PREDICTED BY RF-SCORE:    0.00 PKD
ROOT
HETATM    1  C   UNL     1      -9.392  15.643  65.807  1.00  0.00    -0.268 C  
HETATM    2  H   UNL     1      -9.764  13.996  64.821  1.00  0.00     0.000 HD 
HETATM    3  O   UNL     1     -10.228  14.808  64.987  1.00  0.00    -0.389 OA 
ENDROOT
BRANCH   1   4
HETATM    4  C   UNL     1     -10.148  16.962  66.076  1.00  0.00    -0.319 C  
BRANCH   4   5
HETATM    5  N   UNL     1      -9.298  18.150  65.952  1.00  0.00    -0.492 NA 
HETATM    6  C   UNL     1      -8.440  20.281  66.715  1.00  0.00    -0.326 C  
HETATM    7  C   UNL     1      -8.832  18.470  68.384  1.00  0.00    -0.346 C  
HETATM    8  C   UNL     1      -9.360  19.099  67.082  1.00  0.00    -0.310 C  
HETATM    9  H   UNL     1      -9.501  18.634  65.078  1.00  0.00     0.000 HD 
HETATM   10  C   UNL     1     -10.782  19.644  67.297  1.00  0.00    -0.583 C  
ENDBRANCH   4   5
ENDBRANCH   1   4
BRANCH   1  11
HETATM   11  C   UNL     1      -9.000  14.881  67.080  1.00  0.00    -0.236 C  
BRANCH  11  12
HETATM   12  O   UNL     1      -9.103  13.479  66.814  1.00  0.00    -0.243 OA 
BRANCH  12  13
HETATM   13  C   UNL     1     -10.159  12.854  67.403  1.00  0.00    -0.223 A  
HETATM   14  N   UNL     1     -10.547  13.222  68.625  1.00  0.00    -0.256 NA 
HETATM   15  S   UNL     1     -11.777  12.156  69.002  1.00  0.00    -0.319 SA 
HETATM   16  N   UNL     1     -11.803  11.217  67.625  1.00  0.00    -0.627 NA 
HETATM   17  C   UNL     1     -10.878  11.731  66.805  1.00  0.00    -0.270 A  
BRANCH  17  18
HETATM   18  N   UNL     1     -10.574  11.203  65.581  1.00  0.00    -0.248 NA 
HETATM   19  C   UNL     1     -11.280  11.567  64.350  1.00  0.00    -0.256 C  
HETATM   20  C   UNL     1     -10.246  11.686  63.218  1.00  0.00    -0.407 C  
HETATM   21  O   UNL     1      -9.501  10.464  63.060  1.00  0.00    -0.296 OA 
HETATM   22  C   UNL     1      -8.825  10.117  64.284  1.00  0.00    -0.222 C  
HETATM   23  C   UNL     1      -9.810   9.956  65.457  1.00  0.00    -0.311 C  
ENDBRANCH  17  18
ENDBRANCH  12  13
ENDBRANCH  11  12
ENDBRANCH   1  11
TORSDOF 6
ENDMDL
MODEL       73
REMARK 921   NORMALIZED FREE ENERGY PREDICTED BY IDOCK:   -4.95 KCAL/MOL
REMARK 922        TOTAL FREE ENERGY PREDICTED BY IDOCK:   -7.48 KCAL/MOL
REMARK 923 INTER-LIGAND FREE ENERGY PREDICTED BY IDOCK:   -6.71 KCAL/MOL
REMARK 924 INTRA-LIGAND FREE ENERGY PREDICTED BY IDOCK:   -0.77 KCAL/MOL
REMARK 927      BINDING AFFINITY PREDICTED BY RF-SCORE:    0.00 PKD
ROOT
HETATM    1  C   UNL     1      -9.321  18.269  66.291  1.00  0.00    -0.213 C  
HETATM    2  H   UNL     1     -10.916  18.274  65.162  1.00  0.00     0.000 HD 
HETATM    3  O   UNL     1     -10.653  18.704  65.967  1.00  0.00    -0.457 OA 
ENDROOT
BRANCH   1   4
HETATM    4  C   UNL     1      -8.893  18.968  67.600  1.00  0.00    -0.289 C  
BRANCH   4   5
HETATM    5  N   UNL     1      -8.128  18.096  68.496  1.00  0.00    -0.301 NA 
HETATM    6  C   UNL     1      -6.095  17.385  69.601  1.00  0.00    -0.249 C  
HETATM    7  C   UNL     1      -6.547  19.824  69.359  1.00  0.00    -0.390 C  
HETATM    8  C   UNL     1      -6.706  18.455  68.675  1.00  0.00    -0.256 C  
HETATM    9  H   UNL     1      -8.207  17.126  68.190  1.00  0.00     0.000 HD 
HETATM   10  C   UNL     1      -5.936  18.436  67.343  1.00  0.00    -0.170 C  
ENDBRANCH   4   5
ENDBRANCH   1   4
BRANCH   1  11
HETATM   11  C   UNL     1      -9.286  16.737  66.365  1.00  0.00    -0.278 C  
BRANCH  11  12
HETATM   12  O   UNL     1     -10.615  16.247  66.164  1.00  0.00    -0.312 OA 
BRANCH  12  13
HETATM   13  C   UNL     1     -11.130  15.526  67.198  1.00  0.00    -0.256 A  
HETATM   14  N   UNL     1     -11.183  16.064  68.417  1.00  0.00    -0.356 NA 
HETATM   15  S   UNL     1     -11.771  14.834  69.381  1.00  0.00    -0.342 SA 
HETATM   16  N   UNL     1     -11.940  13.615  68.257  1.00  0.00    -0.363 NA 
HETATM   17  C   UNL     1     -11.580  14.141  67.079  1.00  0.00    -0.382 A  
BRANCH  17  18
HETATM   18  N   UNL     1     -11.547  13.431  65.912  1.00  0.00    -0.330 NA 
HETATM   19  C   UNL     1     -12.696  13.309  65.011  1.00  0.00    -0.375 C  
HETATM   20  C   UNL     1     -12.188  13.410  63.563  1.00  0.00    -0.400 C  
HETATM   21  O   UNL     1     -11.192  12.407  63.289  1.00  0.00    -0.441 OA 
HETATM   22  C   UNL     1     -10.077  12.535  64.192  1.00  0.00    -0.284 C  
HETATM   23  C   UNL     1     -10.515  12.418  65.664  1.00  0.00    -0.261 C  
ENDBRANCH  17  18
ENDBRANCH  12  13
ENDBRANCH  11  12
ENDBRANCH   1  11
TORSDOF 6
ENDMDL
MODEL       74
REMARK 921   NORMALIZED FREE ENERGY PREDICTED BY IDOCK:   -4.94 KCAL/MOL
REMARK 922        TOTAL FREE ENERGY PREDICTED BY IDOCK:   -7.46 KCAL/MOL
REMARK 923 INTER-LIGAND FREE ENERGY PREDICTED BY IDOCK:   -6.60 KCAL/MOL
REMARK 924 INTRA-LIGAND FREE ENERGY PREDICTED BY IDOCK:   -0.85 KCAL/MOL
REMARK 927      BINDING AFFINITY PREDICTED BY RF-SCORE:    0.00 PKD
ROOT
HETATM    1  C   UNL     1     -11.934  14.520  64.958  1.00  0.00    -0.399 C  
HETATM    2  H   UNL     1     -12.658  15.356  63.346  1.00  0.00     0.000 HD 
HETATM    3  O   UNL     1     -12.548  14.466  63.659  1.00  0.00    -0.817 OA 
ENDROOT
BRANCH   1   4
HETATM    4  C   UNL     1     -11.754  13.073  65.466  1.00  0.00    -0.368 C  
BRANCH   4   5
HETATM    5  N   UNL     1     -10.444  12.834  66.078  1.00  0.00    -0.269 NA 
HETATM    6  C   UNL     1      -9.004  12.100  67.880  1.00  0.00    -0.184 C  
HETATM    7  C   UNL     1     -11.055  10.782  67.360  1.00  0.00    -0.363 C  
HETATM    8  C   UNL     1     -10.470  12.204  67.414  1.00  0.00    -0.213 C  
HETATM    9  H   UNL     1      -9.912  13.704  66.113  1.00  0.00     0.000 HD 
HETATM   10  C   UNL     1     -11.242  13.055  68.436  1.00  0.00    -0.304 C  
ENDBRANCH   4   5
ENDBRANCH   1   4
BRANCH   1  11
HETATM   11  C   UNL     1     -10.624  15.315  64.872  1.00  0.00    -0.351 C  
BRANCH  11  12
HETATM   12  O   UNL     1     -10.336  15.848  66.168  1.00  0.00    -0.297 OA 
BRANCH  12  13
HETATM   13  C   UNL     1     -10.286  17.207  66.238  1.00  0.00    -0.334 A  
HETATM   14  N   UNL     1     -10.927  17.939  65.326  1.00  0.00    -0.472 NA 
HETATM   15  S   UNL     1     -10.528  19.513  65.712  1.00  0.00    -0.309 SA 
HETATM   16  N   UNL     1      -9.528  19.265  67.022  1.00  0.00    -0.312 NA 
HETATM   17  C   UNL     1      -9.504  17.943  67.229  1.00  0.00    -0.263 A  
BRANCH  17  18
HETATM   18  N   UNL     1      -8.754  17.342  68.201  1.00  0.00    -0.235 NA 
HETATM   19  C   UNL     1      -9.284  16.324  69.111  1.00  0.00    -0.235 C  
HETATM   20  C   UNL     1      -8.212  15.236  69.295  1.00  0.00    -0.244 C  
HETATM   21  O   UNL     1      -6.980  15.796  69.786  1.00  0.00    -0.178 OA 
HETATM   22  C   UNL     1      -6.482  16.803  68.884  1.00  0.00    -0.178 C  
HETATM   23  C   UNL     1      -7.501  17.939  68.675  1.00  0.00    -0.278 C  
ENDBRANCH  17  18
ENDBRANCH  12  13
ENDBRANCH  11  12
ENDBRANCH   1  11
TORSDOF 6
ENDMDL
MODEL       75
REMARK 921   NORMALIZED FREE ENERGY PREDICTED BY IDOCK:   -4.94 KCAL/MOL
REMARK 922        TOTAL FREE ENERGY PREDICTED BY IDOCK:   -7.45 KCAL/MOL
REMARK 923 INTER-LIGAND FREE ENERGY PREDICTED BY IDOCK:   -6.49 KCAL/MOL
REMARK 924 INTRA-LIGAND FREE ENERGY PREDICTED BY IDOCK:   -0.96 KCAL/MOL
REMARK 927      BINDING AFFINITY PREDICTED BY RF-SCORE:    0.00 PKD
ROOT
HETATM    1  C   UNL     1     -10.600  11.546  67.118  1.00  0.00    -0.237 C  
HETATM    2  H   UNL     1     -10.803  10.044  65.883  1.00  0.00     0.000 HD 
HETATM    3  O   UNL     1     -10.732  10.987  65.799  1.00  0.00    -0.228 OA 
ENDROOT
BRANCH   1   4
HETATM    4  C   UNL     1     -10.485  13.079  66.981  1.00  0.00    -0.247 C  
BRANCH   4   5
HETATM    5  N   UNL     1      -9.897  13.721  68.160  1.00  0.00    -0.232 NA 
HETATM    6  C   UNL     1      -9.156  15.647  69.427  1.00  0.00    -0.278 C  
HETATM    7  C   UNL     1     -11.269  15.806  68.113  1.00  0.00    -0.344 C  
HETATM    8  C   UNL     1      -9.856  15.198  68.128  1.00  0.00    -0.218 C  
HETATM    9  H   UNL     1      -8.962  13.350  68.328  1.00  0.00     0.000 HD 
HETATM   10  C   UNL     1      -9.041  15.725  66.935  1.00  0.00    -0.259 C  
ENDBRANCH   4   5
ENDBRANCH   1   4
BRANCH   1  11
HETATM   11  C   UNL     1     -11.778  11.087  67.987  1.00  0.00    -0.179 C  
BRANCH  11  12
HETATM   12  O   UNL     1     -11.334  11.019  69.346  1.00  0.00    -0.235 OA 
BRANCH  12  13
HETATM   13  C   UNL     1     -12.092  11.712  70.239  1.00  0.00    -0.358 A  
HETATM   14  N   UNL     1     -12.172  13.040  70.146  1.00  0.00    -0.305 NA 
HETATM   15  S   UNL     1     -13.095  13.486  71.465  1.00  0.00    -0.311 SA 
HETATM   16  N   UNL     1     -13.376  11.999  72.162  1.00  0.00    -0.439 NA 
HETATM   17  C   UNL     1     -12.791  11.096  71.365  1.00  0.00    -0.439 A  
BRANCH  17  18
HETATM   18  N   UNL     1     -12.770   9.755  71.627  1.00  0.00    -0.388 NA 
HETATM   19  C   UNL     1     -13.932   9.014  72.125  1.00  0.00    -0.435 C  
HETATM   20  C   UNL     1     -13.981   7.654  71.410  1.00  0.00    -0.343 C  
HETATM   21  O   UNL     1     -12.759   6.917  71.606  1.00  0.00    -0.365 OA 
HETATM   22  C   UNL     1     -11.628   7.666  71.121  1.00  0.00    -0.280 C  
HETATM   23  C   UNL     1     -11.507   9.034  71.818  1.00  0.00    -0.372 C  
ENDBRANCH  17  18
ENDBRANCH  12  13
ENDBRANCH  11  12
ENDBRANCH   1  11
TORSDOF 6
ENDMDL
MODEL       76
REMARK 921   NORMALIZED FREE ENERGY PREDICTED BY IDOCK:   -4.92 KCAL/MOL
REMARK 922        TOTAL FREE ENERGY PREDICTED BY IDOCK:   -7.44 KCAL/MOL
REMARK 923 INTER-LIGAND FREE ENERGY PREDICTED BY IDOCK:   -6.78 KCAL/MOL
REMARK 924 INTRA-LIGAND FREE ENERGY PREDICTED BY IDOCK:   -0.65 KCAL/MOL
REMARK 927      BINDING AFFINITY PREDICTED BY RF-SCORE:    0.00 PKD
ROOT
HETATM    1  C   UNL     1     -11.777  11.174  68.620  1.00  0.00    -0.320 C  
HETATM    2  H   UNL     1     -12.518  12.045  67.035  1.00  0.00     0.000 HD 
HETATM    3  O   UNL     1     -11.862  11.378  67.199  1.00  0.00    -0.566 OA 
ENDROOT
BRANCH   1   4
HETATM    4  C   UNL     1     -10.710  10.091  68.887  1.00  0.00    -0.219 C  
BRANCH   4   5
HETATM    5  N   UNL     1      -9.495  10.620  69.514  1.00  0.00    -0.423 NA 
HETATM    6  C   UNL     1      -7.098  10.927  69.659  1.00  0.00    -0.117 C  
HETATM    7  C   UNL     1      -8.192  11.007  67.420  1.00  0.00    -0.122 C  
HETATM    8  C   UNL     1      -8.233  10.331  68.802  1.00  0.00    -0.119 C  
HETATM    9  H   UNL     1      -9.432  10.297  70.479  1.00  0.00     0.000 HD 
HETATM   10  C   UNL     1      -7.986   8.820  68.659  1.00  0.00    -0.107 C  
ENDBRANCH   4   5
ENDBRANCH   1   4
BRANCH   1  11
HETATM   11  C   UNL     1     -11.489  12.513  69.313  1.00  0.00    -0.293 C  
BRANCH  11  12
HETATM   12  O   UNL     1     -12.256  13.530  68.662  1.00  0.00    -0.323 OA 
BRANCH  12  13
HETATM   13  C   UNL     1     -11.659  14.751  68.593  1.00  0.00    -0.319 A  
HETATM   14  N   UNL     1     -10.920  15.066  67.528  1.00  0.00    -0.298 NA 
HETATM   15  S   UNL     1     -10.305  16.575  67.890  1.00  0.00    -0.305 SA 
HETATM   16  N   UNL     1     -10.959  16.820  69.403  1.00  0.00    -0.252 NA 
HETATM   17  C   UNL     1     -11.716  15.746  69.661  1.00  0.00    -0.355 A  
BRANCH  17  18
HETATM   18  N   UNL     1     -12.390  15.560  70.835  1.00  0.00    -0.389 NA 
HETATM   19  C   UNL     1     -13.794  15.147  70.900  1.00  0.00    -0.241 C  
HETATM   20  C   UNL     1     -13.946  14.132  72.045  1.00  0.00    -0.513 C  
HETATM   21  O   UNL     1     -13.498  14.685  73.297  1.00  0.00    -0.570 OA 
HETATM   22  C   UNL     1     -12.120  15.097  73.209  1.00  0.00    -0.399 C  
HETATM   23  C   UNL     1     -11.903  16.137  72.094  1.00  0.00    -0.536 C  
ENDBRANCH  17  18
ENDBRANCH  12  13
ENDBRANCH  11  12
ENDBRANCH   1  11
TORSDOF 6
ENDMDL
MODEL       77
REMARK 921   NORMALIZED FREE ENERGY PREDICTED BY IDOCK:   -4.92 KCAL/MOL
REMARK 922        TOTAL FREE ENERGY PREDICTED BY IDOCK:   -7.44 KCAL/MOL
REMARK 923 INTER-LIGAND FREE ENERGY PREDICTED BY IDOCK:   -6.88 KCAL/MOL
REMARK 924 INTRA-LIGAND FREE ENERGY PREDICTED BY IDOCK:   -0.56 KCAL/MOL
REMARK 927      BINDING AFFINITY PREDICTED BY RF-SCORE:    0.00 PKD
ROOT
HETATM    1  C   UNL     1      -8.899  15.587  66.419  1.00  0.00    -0.324 C  
HETATM    2  H   UNL     1     -10.671  14.984  66.982  1.00  0.00     0.000 HD 
HETATM    3  O   UNL     1     -10.216  15.817  66.950  1.00  0.00    -0.267 OA 
ENDROOT
BRANCH   1   4
HETATM    4  C   UNL     1      -8.159  16.941  66.367  1.00  0.00    -0.315 C  
BRANCH   4   5
HETATM    5  N   UNL     1      -9.055  18.081  66.157  1.00  0.00    -0.504 NA 
HETATM    6  C   UNL     1      -9.982  20.238  66.750  1.00  0.00    -0.587 C  
HETATM    7  C   UNL     1      -7.535  19.855  67.037  1.00  0.00    -0.281 C  
HETATM    8  C   UNL     1      -8.918  19.187  67.127  1.00  0.00    -0.288 C  
HETATM    9  H   UNL     1     -10.023  17.762  66.126  1.00  0.00     0.000 HD 
HETATM   10  C   UNL     1      -9.190  18.724  68.569  1.00  0.00    -0.386 C  
ENDBRANCH   4   5
ENDBRANCH   1   4
BRANCH   1  11
HETATM   11  C   UNL     1      -8.186  14.522  67.263  1.00  0.00    -0.208 C  
BRANCH  11  12
HETATM   12  O   UNL     1      -9.064  13.402  67.409  1.00  0.00    -0.196 OA 
BRANCH  12  13
HETATM   13  C   UNL     1      -8.676  12.273  66.756  1.00  0.00    -0.175 A  
HETATM   14  N   UNL     1      -7.474  11.748  67.000  1.00  0.00    -0.147 NA 
HETATM   15  S   UNL     1      -7.366  10.465  65.937  1.00  0.00    -0.136 SA 
HETATM   16  N   UNL     1      -8.833  10.586  65.156  1.00  0.00    -0.184 NA 
HETATM   17  C   UNL     1      -9.477  11.612  65.728  1.00  0.00    -0.226 A  
BRANCH  17  18
HETATM   18  N   UNL     1     -10.709  12.050  65.328  1.00  0.00    -0.278 NA 
HETATM   19  C   UNL     1     -11.796  12.354  66.261  1.00  0.00    -0.364 C  
HETATM   20  C   UNL     1     -12.514  13.622  65.770  1.00  0.00    -0.477 C  
HETATM   21  O   UNL     1     -13.000  13.458  64.424  1.00  0.00    -0.601 OA 
HETATM   22  C   UNL     1     -11.919  13.148  63.525  1.00  0.00    -0.513 C  
HETATM   23  C   UNL     1     -11.171  11.869  63.948  1.00  0.00    -0.420 C  
ENDBRANCH  17  18
ENDBRANCH  12  13
ENDBRANCH  11  12
ENDBRANCH   1  11
TORSDOF 6
ENDMDL
MODEL       78
REMARK 921   NORMALIZED FREE ENERGY PREDICTED BY IDOCK:   -4.91 KCAL/MOL
REMARK 922        TOTAL FREE ENERGY PREDICTED BY IDOCK:   -7.42 KCAL/MOL
REMARK 923 INTER-LIGAND FREE ENERGY PREDICTED BY IDOCK:   -6.51 KCAL/MOL
REMARK 924 INTRA-LIGAND FREE ENERGY PREDICTED BY IDOCK:   -0.91 KCAL/MOL
REMARK 927      BINDING AFFINITY PREDICTED BY RF-SCORE:    0.00 PKD
ROOT
HETATM    1  C   UNL     1     -11.023  11.021  69.004  1.00  0.00    -0.233 C  
HETATM    2  H   UNL     1     -11.943  11.794  67.463  1.00  0.00     0.000 HD 
HETATM    3  O   UNL     1     -12.196  11.264  68.210  1.00  0.00    -0.611 OA 
ENDROOT
BRANCH   1   4
HETATM    4  C   UNL     1     -11.434  10.159  70.218  1.00  0.00    -0.306 C  
BRANCH   4   5
HETATM    5  N   UNL     1     -11.563   8.735  69.897  1.00  0.00    -0.433 NA 
HETATM    6  C   UNL     1     -11.229   6.380  70.349  1.00  0.00    -0.435 C  
HETATM    7  C   UNL     1     -11.827   7.898  72.234  1.00  0.00    -0.404 C  
HETATM    8  C   UNL     1     -11.040   7.802  70.916  1.00  0.00    -0.259 C  
HETATM    9  H   UNL     1     -11.133   8.541  68.993  1.00  0.00     0.000 HD 
HETATM   10  C   UNL     1      -9.540   8.019  71.177  1.00  0.00    -0.189 C  
ENDBRANCH   4   5
ENDBRANCH   1   4
BRANCH   1  11
HETATM   11  C   UNL     1      -9.936  10.382  68.130  1.00  0.00    -0.149 C  
BRANCH  11  12
HETATM   12  O   UNL     1     -10.567   9.780  66.996  1.00  0.00    -0.239 OA 
BRANCH  12  13
HETATM   13  C   UNL     1      -9.784   9.667  65.888  1.00  0.00    -0.275 A  
HETATM   14  N   UNL     1      -8.956   8.629  65.768  1.00  0.00    -0.195 NA 
HETATM   15  S   UNL     1      -8.130   8.929  64.348  1.00  0.00    -0.160 SA 
HETATM   16  N   UNL     1      -8.809  10.382  63.897  1.00  0.00    -0.196 NA 
HETATM   17  C   UNL     1      -9.736  10.664  64.821  1.00  0.00    -0.292 A  
BRANCH  17  18
HETATM   18  N   UNL     1     -10.486  11.806  64.817  1.00  0.00    -0.278 NA 
HETATM   19  C   UNL     1     -10.223  12.945  65.699  1.00  0.00    -0.285 C  
HETATM   20  C   UNL     1     -10.429  14.239  64.893  1.00  0.00    -0.430 C  
HETATM   21  O   UNL     1     -11.753  14.299  64.332  1.00  0.00    -0.406 OA 
HETATM   22  C   UNL     1     -11.997  13.165  63.477  1.00  0.00    -0.513 C  
HETATM   23  C   UNL     1     -11.832  11.833  64.233  1.00  0.00    -0.217 C  
ENDBRANCH  17  18
ENDBRANCH  12  13
ENDBRANCH  11  12
ENDBRANCH   1  11
TORSDOF 6
ENDMDL
MODEL       79
REMARK 921   NORMALIZED FREE ENERGY PREDICTED BY IDOCK:   -4.91 KCAL/MOL
REMARK 922        TOTAL FREE ENERGY PREDICTED BY IDOCK:   -7.42 KCAL/MOL
REMARK 923 INTER-LIGAND FREE ENERGY PREDICTED BY IDOCK:   -6.76 KCAL/MOL
REMARK 924 INTRA-LIGAND FREE ENERGY PREDICTED BY IDOCK:   -0.65 KCAL/MOL
REMARK 927      BINDING AFFINITY PREDICTED BY RF-SCORE:    0.00 PKD
ROOT
HETATM    1  C   UNL     1     -11.051  12.155  67.895  1.00  0.00    -0.245 C  
HETATM    2  H   UNL     1      -9.341  12.145  68.841  1.00  0.00     0.000 HD 
HETATM    3  O   UNL     1      -9.774  12.726  68.227  1.00  0.00    -0.218 OA 
ENDROOT
BRANCH   1   4
HETATM    4  C   UNL     1     -11.755  13.099  66.897  1.00  0.00    -0.387 C  
BRANCH   4   5
HETATM    5  N   UNL     1     -12.283  12.405  65.719  1.00  0.00    -0.638 NA 
HETATM    6  C   UNL     1     -12.572  12.113  63.333  1.00  0.00    -0.584 C  
HETATM    7  C   UNL     1     -10.345  12.820  64.202  1.00  0.00    -0.401 C  
HETATM    8  C   UNL     1     -11.863  12.954  64.413  1.00  0.00    -0.383 C  
HETATM    9  H   UNL     1     -13.301  12.361  65.767  1.00  0.00     0.000 HD 
HETATM   10  C   UNL     1     -12.294  14.421  64.241  1.00  0.00    -0.402 C  
ENDBRANCH   4   5
ENDBRANCH   1   4
BRANCH   1  11
HETATM   11  C   UNL     1     -10.852  10.729  67.365  1.00  0.00    -0.290 C  
BRANCH  11  12
HETATM   12  O   UNL     1     -11.353   9.812  68.342  1.00  0.00    -0.087 OA 
BRANCH  12  13
HETATM   13  C   UNL     1     -10.525   8.774  68.641  1.00  0.00    -0.183 A  
HETATM   14  N   UNL     1      -9.584   8.408  67.770  1.00  0.00    -0.152 NA 
HETATM   15  S   UNL     1      -8.881   7.064  68.471  1.00  0.00    -0.123 SA 
HETATM   16  N   UNL     1      -9.782   6.937  69.867  1.00  0.00    -0.162 NA 
HETATM   17  C   UNL     1     -10.638   7.966  69.853  1.00  0.00    -0.242 A  
BRANCH  17  18
HETATM   18  N   UNL     1     -11.578   8.181  70.822  1.00  0.00    -0.270 NA 
HETATM   19  C   UNL     1     -11.524   9.304  71.761  1.00  0.00    -0.378 C  
HETATM   20  C   UNL     1     -12.950   9.849  71.945  1.00  0.00    -0.448 C  
HETATM   21  O   UNL     1     -13.848   8.820  72.402  1.00  0.00    -0.428 OA 
HETATM   22  C   UNL     1     -13.878   7.720  71.471  1.00  0.00    -0.358 C  
HETATM   23  C   UNL     1     -12.480   7.109  71.261  1.00  0.00    -0.386 C  
ENDBRANCH  17  18
ENDBRANCH  12  13
ENDBRANCH  11  12
ENDBRANCH   1  11
TORSDOF 6
ENDMDL
MODEL       80
REMARK 921   NORMALIZED FREE ENERGY PREDICTED BY IDOCK:   -4.89 KCAL/MOL
REMARK 922        TOTAL FREE ENERGY PREDICTED BY IDOCK:   -7.40 KCAL/MOL
REMARK 923 INTER-LIGAND FREE ENERGY PREDICTED BY IDOCK:   -6.72 KCAL/MOL
REMARK 924 INTRA-LIGAND FREE ENERGY PREDICTED BY IDOCK:   -0.67 KCAL/MOL
REMARK 927      BINDING AFFINITY PREDICTED BY RF-SCORE:    0.00 PKD
ROOT
HETATM    1  C   UNL     1     -11.169  12.712  68.043  1.00  0.00    -0.265 C  
HETATM    2  H   UNL     1     -11.433  12.456  69.963  1.00  0.00     0.000 HD 
HETATM    3  O   UNL     1     -11.885  12.926  69.272  1.00  0.00    -0.301 OA 
ENDROOT
BRANCH   1   4
HETATM    4  C   UNL     1     -11.902  13.475  66.920  1.00  0.00    -0.407 C  
BRANCH   4   5
HETATM    5  N   UNL     1     -12.339  12.608  65.822  1.00  0.00    -0.619 NA 
HETATM    6  C   UNL     1     -12.483  11.986  63.487  1.00  0.00    -0.654 C  
HETATM    7  C   UNL     1     -10.333  12.893  64.365  1.00  0.00    -0.393 C  
HETATM    8  C   UNL     1     -11.864  12.993  64.477  1.00  0.00    -0.377 C  
HETATM    9  H   UNL     1     -13.356  12.531  65.823  1.00  0.00     0.000 HD 
HETATM   10  C   UNL     1     -12.332  14.404  64.084  1.00  0.00    -0.340 C  
ENDBRANCH   4   5
ENDBRANCH   1   4
BRANCH   1  11
HETATM   11  C   UNL     1      -9.704  13.131  68.225  1.00  0.00    -0.223 C  
BRANCH  11  12
HETATM   12  O   UNL     1      -9.676  14.499  68.645  1.00  0.00    -0.215 OA 
BRANCH  12  13
HETATM   13  C   UNL     1      -8.458  15.101  68.577  1.00  0.00    -0.160 A  
HETATM   14  N   UNL     1      -7.362  14.415  68.906  1.00  0.00    -0.124 NA 
HETATM   15  S   UNL     1      -6.129  15.534  68.785  1.00  0.00    -0.101 SA 
HETATM   16  N   UNL     1      -6.986  16.891  68.334  1.00  0.00    -0.166 NA 
HETATM   17  C   UNL     1      -8.263  16.505  68.223  1.00  0.00    -0.185 A  
BRANCH  17  18
HETATM   18  N   UNL     1      -9.285  17.356  67.905  1.00  0.00    -0.251 NA 
HETATM   19  C   UNL     1      -9.905  18.265  68.872  1.00  0.00    -0.320 C  
HETATM   20  C   UNL     1     -10.170  19.607  68.170  1.00  0.00    -0.461 C  
HETATM   21  O   UNL     1     -10.996  19.432  67.004  1.00  0.00    -0.467 OA 
HETATM   22  C   UNL     1     -10.376  18.526  66.071  1.00  0.00    -0.393 C  
HETATM   23  C   UNL     1     -10.105  17.149  66.706  1.00  0.00    -0.303 C  
ENDBRANCH  17  18
ENDBRANCH  12  13
ENDBRANCH  11  12
ENDBRANCH   1  11
TORSDOF 6
ENDMDL
MODEL       81
REMARK 921   NORMALIZED FREE ENERGY PREDICTED BY IDOCK:   -4.89 KCAL/MOL
REMARK 922        TOTAL FREE ENERGY PREDICTED BY IDOCK:   -7.39 KCAL/MOL
REMARK 923 INTER-LIGAND FREE ENERGY PREDICTED BY IDOCK:   -6.80 KCAL/MOL
REMARK 924 INTRA-LIGAND FREE ENERGY PREDICTED BY IDOCK:   -0.59 KCAL/MOL
REMARK 927      BINDING AFFINITY PREDICTED BY RF-SCORE:    0.00 PKD
ROOT
HETATM    1  C   UNL     1     -11.534  15.484  67.699  1.00  0.00    -0.209 C  
HETATM    2  H   UNL     1     -12.521  15.261  69.371  1.00  0.00     0.000 HD 
HETATM    3  O   UNL     1     -11.871  15.870  69.043  1.00  0.00    -0.389 OA 
ENDROOT
BRANCH   1   4
HETATM    4  C   UNL     1     -10.478  16.475  67.165  1.00  0.00    -0.300 C  
BRANCH   4   5
HETATM    5  N   UNL     1     -10.328  17.667  68.005  1.00  0.00    -0.357 NA 
HETATM    6  C   UNL     1      -9.541  19.914  68.445  1.00  0.00    -0.406 C  
HETATM    7  C   UNL     1     -10.420  19.365  66.177  1.00  0.00    -0.600 C  
HETATM    8  C   UNL     1      -9.631  18.807  67.375  1.00  0.00    -0.306 C  
HETATM    9  H   UNL     1      -9.870  17.420  68.882  1.00  0.00     0.000 HD 
HETATM   10  C   UNL     1      -8.202  18.439  66.942  1.00  0.00    -0.258 C  
ENDBRANCH   4   5
ENDBRANCH   1   4
BRANCH   1  11
HETATM   11  C   UNL     1     -11.074  14.021  67.687  1.00  0.00    -0.282 C  
BRANCH  11  12
HETATM   12  O   UNL     1     -12.120  13.225  67.121  1.00  0.00    -0.361 OA 
BRANCH  12  13
HETATM   13  C   UNL     1     -11.945  12.881  65.816  1.00  0.00    -0.443 A  
HETATM   14  N   UNL     1     -12.705  13.447  64.877  1.00  0.00    -0.686 NA 
HETATM   15  S   UNL     1     -12.244  12.684  63.465  1.00  0.00    -0.506 SA 
HETATM   16  N   UNL     1     -11.097  11.625  64.047  1.00  0.00    -0.373 NA 
HETATM   17  C   UNL     1     -11.005  11.860  65.362  1.00  0.00    -0.301 A  
BRANCH  17  18
HETATM   18  N   UNL     1     -10.188  11.154  66.201  1.00  0.00    -0.237 NA 
HETATM   19  C   UNL     1      -8.734  11.089  66.042  1.00  0.00    -0.188 C  
HETATM   20  C   UNL     1      -8.091  11.173  67.436  1.00  0.00    -0.132 C  
HETATM   21  O   UNL     1      -8.576  10.128  68.299  1.00  0.00    -0.113 OA 
HETATM   22  C   UNL     1     -10.009  10.202  68.434  1.00  0.00    -0.156 C  
HETATM   23  C   UNL     1     -10.718  10.097  67.070  1.00  0.00    -0.196 C  
ENDBRANCH  17  18
ENDBRANCH  12  13
ENDBRANCH  11  12
ENDBRANCH   1  11
TORSDOF 6
ENDMDL
MODEL       82
REMARK 921   NORMALIZED FREE ENERGY PREDICTED BY IDOCK:   -4.88 KCAL/MOL
REMARK 922        TOTAL FREE ENERGY PREDICTED BY IDOCK:   -7.37 KCAL/MOL
REMARK 923 INTER-LIGAND FREE ENERGY PREDICTED BY IDOCK:   -6.00 KCAL/MOL
REMARK 924 INTRA-LIGAND FREE ENERGY PREDICTED BY IDOCK:   -1.37 KCAL/MOL
REMARK 927      BINDING AFFINITY PREDICTED BY RF-SCORE:    0.00 PKD
ROOT
HETATM    1  C   UNL     1      -6.437  16.580  68.228  1.00  0.00    -0.135 C  
HETATM    2  H   UNL     1      -6.073  15.092  67.015  1.00  0.00     0.000 HD 
HETATM    3  O   UNL     1      -6.308  16.007  66.915  1.00  0.00    -0.306 OA 
ENDROOT
BRANCH   1   4
HETATM    4  C   UNL     1      -6.820  18.067  68.066  1.00  0.00    -0.206 C  
BRANCH   4   5
HETATM    5  N   UNL     1      -8.144  18.385  68.608  1.00  0.00    -0.315 NA 
HETATM    6  C   UNL     1     -10.361  19.347  68.469  1.00  0.00    -0.413 C  
HETATM    7  C   UNL     1      -9.426  18.175  66.477  1.00  0.00    -0.307 C  
HETATM    8  C   UNL     1      -9.067  19.067  67.678  1.00  0.00    -0.291 C  
HETATM    9  H   UNL     1      -8.048  18.929  69.466  1.00  0.00     0.000 HD 
HETATM   10  C   UNL     1      -8.501  20.411  67.189  1.00  0.00    -0.393 C  
ENDBRANCH   4   5
ENDBRANCH   1   4
BRANCH   1  11
HETATM   11  C   UNL     1      -7.448  15.765  69.045  1.00  0.00    -0.186 C  
BRANCH  11  12
HETATM   12  O   UNL     1      -8.414  15.214  68.145  1.00  0.00    -0.146 OA 
BRANCH  12  13
HETATM   13  C   UNL     1      -9.700  15.232  68.593  1.00  0.00    -0.212 A  
HETATM   14  N   UNL     1      -9.979  15.779  69.778  1.00  0.00    -0.276 NA 
HETATM   15  S   UNL     1     -11.613  15.502  69.979  1.00  0.00    -0.373 SA 
HETATM   16  N   UNL     1     -11.961  14.674  68.575  1.00  0.00    -0.297 NA 
HETATM   17  C   UNL     1     -10.818  14.621  67.880  1.00  0.00    -0.259 A  
BRANCH  17  18
HETATM   18  N   UNL     1     -10.693  13.981  66.679  1.00  0.00    -0.280 NA 
HETATM   19  C   UNL     1     -10.202  12.607  66.546  1.00  0.00    -0.243 C  
HETATM   20  C   UNL     1     -11.045  11.894  65.476  1.00  0.00    -0.304 C  
HETATM   21  O   UNL     1     -10.998  12.597  64.220  1.00  0.00    -0.319 OA 
HETATM   22  C   UNL     1     -11.473  13.948  64.374  1.00  0.00    -0.361 C  
HETATM   23  C   UNL     1     -10.651  14.729  65.417  1.00  0.00    -0.378 C  
ENDBRANCH  17  18
ENDBRANCH  12  13
ENDBRANCH  11  12
ENDBRANCH   1  11
TORSDOF 6
ENDMDL
MODEL       83
REMARK 921   NORMALIZED FREE ENERGY PREDICTED BY IDOCK:   -4.86 KCAL/MOL
REMARK 922        TOTAL FREE ENERGY PREDICTED BY IDOCK:   -7.35 KCAL/MOL
REMARK 923 INTER-LIGAND FREE ENERGY PREDICTED BY IDOCK:   -6.62 KCAL/MOL
REMARK 924 INTRA-LIGAND FREE ENERGY PREDICTED BY IDOCK:   -0.73 KCAL/MOL
REMARK 927      BINDING AFFINITY PREDICTED BY RF-SCORE:    0.00 PKD
ROOT
HETATM    1  C   UNL     1     -11.337  12.224  69.431  1.00  0.00    -0.228 C  
HETATM    2  H   UNL     1     -11.638  14.142  69.656  1.00  0.00     0.000 HD 
HETATM    3  O   UNL     1     -11.999  13.350  70.034  1.00  0.00    -0.322 OA 
ENDROOT
BRANCH   1   4
HETATM    4  C   UNL     1     -11.924  10.935  70.046  1.00  0.00    -0.350 C  
BRANCH   4   5
HETATM    5  N   UNL     1     -11.518   9.719  69.336  1.00  0.00    -0.446 NA 
HETATM    6  C   UNL     1     -10.491   7.530  69.215  1.00  0.00    -0.216 C  
HETATM    7  C   UNL     1     -11.850   8.117  71.221  1.00  0.00    -0.317 C  
HETATM    8  C   UNL     1     -10.879   8.679  70.168  1.00  0.00    -0.233 C  
HETATM    9  H   UNL     1     -10.912   9.960  68.552  1.00  0.00     0.000 HD 
HETATM   10  C   UNL     1      -9.599   9.193  70.848  1.00  0.00    -0.347 C  
ENDBRANCH   4   5
ENDBRANCH   1   4
BRANCH   1  11
HETATM   11  C   UNL     1     -11.479  12.304  67.906  1.00  0.00    -0.330 C  
BRANCH  11  12
HETATM   12  O   UNL     1     -12.279  13.447  67.588  1.00  0.00    -0.302 OA 
BRANCH  12  13
HETATM   13  C   UNL     1     -12.078  13.968  66.346  1.00  0.00    -0.455 A  
HETATM   14  N   UNL     1     -12.818  13.538  65.322  1.00  0.00    -0.704 NA 
HETATM   15  S   UNL     1     -12.189  14.341  64.000  1.00  0.00    -0.137 SA 
HETATM   16  N   UNL     1     -10.969  15.217  64.723  1.00  0.00    -0.410 NA 
HETATM   17  C   UNL     1     -11.037  14.943  66.031  1.00  0.00    -0.334 A  
BRANCH  17  18
HETATM   18  N   UNL     1     -10.167  15.448  66.957  1.00  0.00    -0.257 NA 
HETATM   19  C   UNL     1     -10.430  16.665  67.728  1.00  0.00    -0.316 C  
HETATM   20  C   UNL     1      -9.950  16.434  69.171  1.00  0.00    -0.273 C  
HETATM   21  O   UNL     1      -8.556  16.075  69.207  1.00  0.00    -0.251 OA 
HETATM   22  C   UNL     1      -8.317  14.884  68.433  1.00  0.00    -0.153 C  
HETATM   23  C   UNL     1      -8.753  15.057  66.966  1.00  0.00    -0.237 C  
ENDBRANCH  17  18
ENDBRANCH  12  13
ENDBRANCH  11  12
ENDBRANCH   1  11
TORSDOF 6
ENDMDL
MODEL       84
REMARK 921   NORMALIZED FREE ENERGY PREDICTED BY IDOCK:   -4.86 KCAL/MOL
REMARK 922        TOTAL FREE ENERGY PREDICTED BY IDOCK:   -7.35 KCAL/MOL
REMARK 923 INTER-LIGAND FREE ENERGY PREDICTED BY IDOCK:   -6.73 KCAL/MOL
REMARK 924 INTRA-LIGAND FREE ENERGY PREDICTED BY IDOCK:   -0.62 KCAL/MOL
REMARK 927      BINDING AFFINITY PREDICTED BY RF-SCORE:    0.00 PKD
ROOT
HETATM    1  C   UNL     1     -11.242  11.243  69.238  1.00  0.00    -0.272 C  
HETATM    2  H   UNL     1     -12.277  12.869  69.558  1.00  0.00     0.000 HD 
HETATM    3  O   UNL     1     -12.150  12.045  70.012  1.00  0.00    -0.310 OA 
ENDROOT
BRANCH   1   4
HETATM    4  C   UNL     1     -11.036   9.903  69.977  1.00  0.00    -0.291 C  
BRANCH   4   5
HETATM    5  N   UNL     1     -12.285   9.317  70.470  1.00  0.00    -0.483 NA 
HETATM    6  C   UNL     1     -13.578   7.575  71.545  1.00  0.00    -0.439 C  
HETATM    7  C   UNL     1     -11.335   8.156  72.465  1.00  0.00    -0.469 C  
HETATM    8  C   UNL     1     -12.151   8.022  71.167  1.00  0.00    -0.265 C  
HETATM    9  H   UNL     1     -12.956   9.234  69.706  1.00  0.00     0.000 HD 
HETATM   10  C   UNL     1     -11.533   6.943  70.262  1.00  0.00    -0.373 C  
ENDBRANCH   4   5
ENDBRANCH   1   4
BRANCH   1  11
HETATM   11  C   UNL     1     -11.783  11.088  67.811  1.00  0.00    -0.088 C  
BRANCH  11  12
HETATM   12  O   UNL     1     -12.027  12.394  67.278  1.00  0.00    -0.516 OA 
BRANCH  12  13
HETATM   13  C   UNL     1     -11.787  12.529  65.945  1.00  0.00    -0.430 A  
HETATM   14  N   UNL     1     -12.804  12.756  65.112  1.00  0.00    -0.776 NA 
HETATM   15  S   UNL     1     -12.098  12.752  63.598  1.00  0.00    -0.554 SA 
HETATM   16  N   UNL     1     -10.510  12.445  63.999  1.00  0.00    -0.386 NA 
HETATM   17  C   UNL     1     -10.469  12.375  65.336  1.00  0.00    -0.277 A  
BRANCH  17  18
HETATM   18  N   UNL     1      -9.334  12.094  66.044  1.00  0.00    -0.210 NA 
HETATM   19  C   UNL     1      -8.540  13.117  66.728  1.00  0.00    -0.036 C  
HETATM   20  C   UNL     1      -8.084  12.549  68.083  1.00  0.00    -0.167 C  
HETATM   21  O   UNL     1      -7.342  11.327  67.914  1.00  0.00    -0.087 OA 
HETATM   22  C   UNL     1      -8.136  10.339  67.229  1.00  0.00    -0.120 C  
HETATM   23  C   UNL     1      -8.604  10.837  65.849  1.00  0.00    -0.179 C  
ENDBRANCH  17  18
ENDBRANCH  12  13
ENDBRANCH  11  12
ENDBRANCH   1  11
TORSDOF 6
ENDMDL
MODEL       85
REMARK 921   NORMALIZED FREE ENERGY PREDICTED BY IDOCK:   -4.85 KCAL/MOL
REMARK 922        TOTAL FREE ENERGY PREDICTED BY IDOCK:   -7.33 KCAL/MOL
REMARK 923 INTER-LIGAND FREE ENERGY PREDICTED BY IDOCK:   -6.41 KCAL/MOL
REMARK 924 INTRA-LIGAND FREE ENERGY PREDICTED BY IDOCK:   -0.93 KCAL/MOL
REMARK 927      BINDING AFFINITY PREDICTED BY RF-SCORE:    0.00 PKD
ROOT
HETATM    1  C   UNL     1     -12.320  15.658  71.058  1.00  0.00    -0.428 C  
HETATM    2  H   UNL     1     -12.968  16.253  72.804  1.00  0.00     0.000 HD 
HETATM    3  O   UNL     1     -12.129  16.241  72.359  1.00  0.00    -0.510 OA 
ENDROOT
BRANCH   1   4
HETATM    4  C   UNL     1     -10.955  15.638  70.336  1.00  0.00    -0.348 C  
BRANCH   4   5
HETATM    5  N   UNL     1     -11.073  15.696  68.876  1.00  0.00    -0.270 NA 
HETATM    6  C   UNL     1     -10.395  16.463  66.683  1.00  0.00    -0.292 C  
HETATM    7  C   UNL     1      -8.640  15.902  68.361  1.00  0.00    -0.178 C  
HETATM    8  C   UNL     1     -10.046  16.500  68.185  1.00  0.00    -0.255 C  
HETATM    9  H   UNL     1     -12.005  16.019  68.615  1.00  0.00     0.000 HD 
HETATM   10  C   UNL     1     -10.058  17.968  68.646  1.00  0.00    -0.401 C  
ENDBRANCH   4   5
ENDBRANCH   1   4
BRANCH   1  11
HETATM   11  C   UNL     1     -12.964  14.274  71.206  1.00  0.00    -0.352 C  
BRANCH  11  12
HETATM   12  O   UNL     1     -12.239  13.351  70.388  1.00  0.00    -0.343 OA 
BRANCH  12  13
HETATM   13  C   UNL     1     -12.390  12.039  70.720  1.00  0.00    -0.308 A  
HETATM   14  N   UNL     1     -13.070  11.711  71.820  1.00  0.00    -0.449 NA 
HETATM   15  S   UNL     1     -12.927  10.049  71.905  1.00  0.00    -0.440 SA 
HETATM   16  N   UNL     1     -11.989   9.750  70.560  1.00  0.00    -0.240 NA 
HETATM   17  C   UNL     1     -11.789  10.937  69.974  1.00  0.00    -0.347 A  
BRANCH  17  18
HETATM   18  N   UNL     1     -11.025  11.107  68.853  1.00  0.00    -0.208 NA 
HETATM   19  C   UNL     1     -11.533  11.710  67.618  1.00  0.00    -0.303 C  
HETATM   20  C   UNL     1     -10.439  12.625  67.043  1.00  0.00    -0.232 C  
HETATM   21  O   UNL     1      -9.217  11.899  66.814  1.00  0.00    -0.183 OA 
HETATM   22  C   UNL     1      -8.741  11.305  68.037  1.00  0.00    -0.144 C  
HETATM   23  C   UNL     1      -9.783  10.352  68.654  1.00  0.00    -0.175 C  
ENDBRANCH  17  18
ENDBRANCH  12  13
ENDBRANCH  11  12
ENDBRANCH   1  11
TORSDOF 6
ENDMDL
MODEL       86
REMARK 921   NORMALIZED FREE ENERGY PREDICTED BY IDOCK:   -4.83 KCAL/MOL
REMARK 922        TOTAL FREE ENERGY PREDICTED BY IDOCK:   -7.31 KCAL/MOL
REMARK 923 INTER-LIGAND FREE ENERGY PREDICTED BY IDOCK:   -6.42 KCAL/MOL
REMARK 924 INTRA-LIGAND FREE ENERGY PREDICTED BY IDOCK:   -0.89 KCAL/MOL
REMARK 927      BINDING AFFINITY PREDICTED BY RF-SCORE:    0.00 PKD
ROOT
HETATM    1  C   UNL     1     -10.585  15.749  64.954  1.00  0.00    -0.284 C  
HETATM    2  H   UNL     1     -11.388  17.097  63.789  1.00  0.00     0.000 HD 
HETATM    3  O   UNL     1     -11.003  17.092  64.656  1.00  0.00    -1.005 OA 
ENDROOT
BRANCH   1   4
HETATM    4  C   UNL     1      -9.958  15.741  66.365  1.00  0.00    -0.277 C  
BRANCH   4   5
HETATM    5  N   UNL     1     -10.954  15.685  67.439  1.00  0.00    -0.312 NA 
HETATM    6  C   UNL     1     -11.764  16.196  69.662  1.00  0.00    -0.193 C  
HETATM    7  C   UNL     1     -10.529  17.951  68.395  1.00  0.00    -0.338 C  
HETATM    8  C   UNL     1     -10.615  16.439  68.663  1.00  0.00    -0.305 C  
HETATM    9  H   UNL     1     -11.160  14.714  67.673  1.00  0.00     0.000 HD 
HETATM   10  C   UNL     1      -9.308  15.939  69.302  1.00  0.00    -0.259 C  
ENDBRANCH   4   5
ENDBRANCH   1   4
BRANCH   1  11
HETATM   11  C   UNL     1     -11.778  14.796  64.800  1.00  0.00    -0.422 C  
BRANCH  11  12
HETATM   12  O   UNL     1     -11.549  13.652  65.627  1.00  0.00    -0.316 OA 
BRANCH  12  13
HETATM   13  C   UNL     1     -10.931  12.606  65.013  1.00  0.00    -0.289 A  
HETATM   14  N   UNL     1     -10.850  12.576  63.682  1.00  0.00    -0.443 NA 
HETATM   15  S   UNL     1     -10.127  11.108  63.350  1.00  0.00    -0.391 SA 
HETATM   16  N   UNL     1      -9.935  10.503  64.891  1.00  0.00    -0.313 NA 
HETATM   17  C   UNL     1     -10.393  11.448  65.722  1.00  0.00    -0.255 A  
BRANCH  17  18
HETATM   18  N   UNL     1     -10.439  11.302  67.081  1.00  0.00    -0.212 NA 
HETATM   19  C   UNL     1      -9.902  12.295  68.015  1.00  0.00    -0.204 C  
HETATM   20  C   UNL     1     -10.875  12.419  69.199  1.00  0.00    -0.097 C  
HETATM   21  O   UNL     1     -11.082  11.146  69.840  1.00  0.00    -0.243 OA 
HETATM   22  C   UNL     1     -11.599  10.182  68.904  1.00  0.00     0.009 C  
HETATM   23  C   UNL     1     -10.656   9.990  67.701  1.00  0.00    -0.270 C  
ENDBRANCH  17  18
ENDBRANCH  12  13
ENDBRANCH  11  12
ENDBRANCH   1  11
TORSDOF 6
ENDMDL
MODEL       87
REMARK 921   NORMALIZED FREE ENERGY PREDICTED BY IDOCK:   -4.83 KCAL/MOL
REMARK 922        TOTAL FREE ENERGY PREDICTED BY IDOCK:   -7.31 KCAL/MOL
REMARK 923 INTER-LIGAND FREE ENERGY PREDICTED BY IDOCK:   -6.58 KCAL/MOL
REMARK 924 INTRA-LIGAND FREE ENERGY PREDICTED BY IDOCK:   -0.72 KCAL/MOL
REMARK 927      BINDING AFFINITY PREDICTED BY RF-SCORE:    0.00 PKD
ROOT
HETATM    1  C   UNL     1     -11.467  11.849  68.382  1.00  0.00    -0.299 C  
HETATM    2  H   UNL     1     -11.663   9.904  68.408  1.00  0.00     0.000 HD 
HETATM    3  O   UNL     1     -11.845  10.597  67.784  1.00  0.00    -0.460 OA 
ENDROOT
BRANCH   1   4
HETATM    4  C   UNL     1     -11.764  12.975  67.369  1.00  0.00    -0.374 C  
BRANCH   4   5
HETATM    5  N   UNL     1     -12.330  12.483  66.109  1.00  0.00    -0.539 NA 
HETATM    6  C   UNL     1     -12.288  12.127  63.715  1.00  0.00    -0.635 C  
HETATM    7  C   UNL     1     -10.181  11.839  65.016  1.00  0.00    -0.314 C  
HETATM    8  C   UNL     1     -11.478  12.659  64.915  1.00  0.00    -0.322 C  
HETATM    9  H   UNL     1     -13.245  12.905  65.951  1.00  0.00     0.000 HD 
HETATM   10  C   UNL     1     -11.150  14.140  64.657  1.00  0.00    -0.378 C  
ENDBRANCH   4   5
ENDBRANCH   1   4
BRANCH   1  11
HETATM   11  C   UNL     1     -12.191  12.015  69.724  1.00  0.00    -0.159 C  
BRANCH  11  12
HETATM   12  O   UNL     1     -11.540  11.187  70.693  1.00  0.00    -0.286 OA 
BRANCH  12  13
HETATM   13  C   UNL     1     -12.280  10.141  71.153  1.00  0.00    -0.389 A  
HETATM   14  N   UNL     1     -13.472  10.369  71.706  1.00  0.00    -0.315 NA 
HETATM   15  S   UNL     1     -13.980   8.861  72.215  1.00  0.00    -0.423 SA 
HETATM   16  N   UNL     1     -12.682   7.926  71.751  1.00  0.00    -0.322 NA 
HETATM   17  C   UNL     1     -11.822   8.754  71.144  1.00  0.00    -0.295 A  
BRANCH  17  18
HETATM   18  N   UNL     1     -10.608   8.360  70.656  1.00  0.00    -0.204 NA 
HETATM   19  C   UNL     1     -10.454   7.424  69.540  1.00  0.00    -0.232 C  
HETATM   20  C   UNL     1      -9.304   7.921  68.648  1.00  0.00    -0.145 C  
HETATM   21  O   UNL     1      -8.082   8.056  69.398  1.00  0.00    -0.114 OA 
HETATM   22  C   UNL     1      -8.257   8.970  70.497  1.00  0.00    -0.168 C  
HETATM   23  C   UNL     1      -9.381   8.516  71.447  1.00  0.00    -0.211 C  
ENDBRANCH  17  18
ENDBRANCH  12  13
ENDBRANCH  11  12
ENDBRANCH   1  11
TORSDOF 6
ENDMDL
MODEL       88
REMARK 921   NORMALIZED FREE ENERGY PREDICTED BY IDOCK:   -4.83 KCAL/MOL
REMARK 922        TOTAL FREE ENERGY PREDICTED BY IDOCK:   -7.31 KCAL/MOL
REMARK 923 INTER-LIGAND FREE ENERGY PREDICTED BY IDOCK:   -6.64 KCAL/MOL
REMARK 924 INTRA-LIGAND FREE ENERGY PREDICTED BY IDOCK:   -0.67 KCAL/MOL
REMARK 927      BINDING AFFINITY PREDICTED BY RF-SCORE:    0.00 PKD
ROOT
HETATM    1  C   UNL     1      -9.842   8.851  67.863  1.00  0.00    -0.169 C  
HETATM    2  H   UNL     1      -8.146   9.635  67.289  1.00  0.00     0.000 HD 
HETATM    3  O   UNL     1      -8.476   9.243  68.088  1.00  0.00    -0.119 OA 
ENDROOT
BRANCH   1   4
HETATM    4  C   UNL     1     -10.379   8.214  69.163  1.00  0.00    -0.220 C  
BRANCH   4   5
HETATM    5  N   UNL     1     -11.356   9.056  69.858  1.00  0.00    -0.434 NA 
HETATM    6  C   UNL     1     -12.799   9.601  71.724  1.00  0.00    -0.514 C  
HETATM    7  C   UNL     1     -10.539   8.653  72.182  1.00  0.00    -0.411 C  
HETATM    8  C   UNL     1     -11.734   8.609  71.214  1.00  0.00    -0.289 C  
HETATM    9  H   UNL     1     -12.191   9.168  69.282  1.00  0.00     0.000 HD 
HETATM   10  C   UNL     1     -12.354   7.201  71.202  1.00  0.00    -0.404 C  
ENDBRANCH   4   5
ENDBRANCH   1   4
BRANCH   1  11
HETATM   11  C   UNL     1     -10.650  10.064  67.386  1.00  0.00    -0.271 C  
BRANCH  11  12
HETATM   12  O   UNL     1      -9.754  10.979  66.749  1.00  0.00    -0.187 OA 
BRANCH  12  13
HETATM   13  C   UNL     1      -9.917  11.107  65.403  1.00  0.00    -0.259 A  
HETATM   14  N   UNL     1      -9.487  10.139  64.592  1.00  0.00    -0.275 NA 
HETATM   15  S   UNL     1      -9.782  10.733  63.059  1.00  0.00    -0.310 SA 
HETATM   16  N   UNL     1     -10.435  12.222  63.424  1.00  0.00    -0.423 NA 
HETATM   17  C   UNL     1     -10.483  12.291  64.761  1.00  0.00    -0.296 A  
BRANCH  17  18
HETATM   18  N   UNL     1     -10.925  13.387  65.446  1.00  0.00    -0.282 NA 
HETATM   19  C   UNL     1     -12.145  13.391  66.257  1.00  0.00    -0.422 C  
HETATM   20  C   UNL     1     -11.869  14.191  67.541  1.00  0.00    -0.401 C  
HETATM   21  O   UNL     1     -11.431  15.528  67.239  1.00  0.00    -0.246 OA 
HETATM   22  C   UNL     1     -10.238  15.503  66.432  1.00  0.00    -0.289 C  
HETATM   23  C   UNL     1     -10.454  14.736  65.114  1.00  0.00    -0.418 C  
ENDBRANCH  17  18
ENDBRANCH  12  13
ENDBRANCH  11  12
ENDBRANCH   1  11
TORSDOF 6
ENDMDL
MODEL       89
REMARK 921   NORMALIZED FREE ENERGY PREDICTED BY IDOCK:   -4.80 KCAL/MOL
REMARK 922        TOTAL FREE ENERGY PREDICTED BY IDOCK:   -7.27 KCAL/MOL
REMARK 923 INTER-LIGAND FREE ENERGY PREDICTED BY IDOCK:   -6.84 KCAL/MOL
REMARK 924 INTRA-LIGAND FREE ENERGY PREDICTED BY IDOCK:   -0.43 KCAL/MOL
REMARK 927      BINDING AFFINITY PREDICTED BY RF-SCORE:    0.00 PKD
ROOT
HETATM    1  C   UNL     1     -11.113   9.969  69.819  1.00  0.00    -0.274 C  
HETATM    2  H   UNL     1     -10.016  10.847  68.460  1.00  0.00     0.000 HD 
HETATM    3  O   UNL     1      -9.864  10.480  69.322  1.00  0.00    -0.213 OA 
ENDROOT
BRANCH   1   4
HETATM    4  C   UNL     1     -10.865   9.373  71.221  1.00  0.00    -0.361 C  
BRANCH   4   5
HETATM    5  N   UNL     1     -10.083   8.134  71.192  1.00  0.00    -0.181 NA 
HETATM    6  C   UNL     1      -9.710   5.802  71.726  1.00  0.00    -0.185 C  
HETATM    7  C   UNL     1     -12.002   6.541  71.082  1.00  0.00    -0.365 C  
HETATM    8  C   UNL     1     -10.722   6.962  71.825  1.00  0.00    -0.221 C  
HETATM    9  H   UNL     1      -9.162   8.293  71.602  1.00  0.00     0.000 HD 
HETATM   10  C   UNL     1     -11.028   7.207  73.312  1.00  0.00    -0.325 C  
ENDBRANCH   4   5
ENDBRANCH   1   4
BRANCH   1  11
HETATM   11  C   UNL     1     -12.167  11.084  69.796  1.00  0.00    -0.318 C  
BRANCH  11  12
HETATM   12  O   UNL     1     -12.171  11.672  68.491  1.00  0.00    -0.485 OA 
BRANCH  12  13
HETATM   13  C   UNL     1     -11.899  13.005  68.455  1.00  0.00    -0.325 A  
HETATM   14  N   UNL     1     -11.922  13.714  69.585  1.00  0.00    -0.329 NA 
HETATM   15  S   UNL     1     -11.641  15.283  69.086  1.00  0.00    -0.350 SA 
HETATM   16  N   UNL     1     -11.510  15.065  67.439  1.00  0.00    -0.339 NA 
HETATM   17  C   UNL     1     -11.641  13.750  67.225  1.00  0.00    -0.361 A  
BRANCH  17  18
HETATM   18  N   UNL     1     -11.629  13.181  65.983  1.00  0.00    -0.337 NA 
HETATM   19  C   UNL     1     -12.785  13.188  65.083  1.00  0.00    -0.405 C  
HETATM   20  C   UNL     1     -12.282  13.447  63.653  1.00  0.00    -0.414 C  
HETATM   21  O   UNL     1     -11.309  12.463  63.256  1.00  0.00    -0.437 OA 
HETATM   22  C   UNL     1     -10.186  12.462  64.159  1.00  0.00    -0.351 C  
HETATM   23  C   UNL     1     -10.619  12.183  65.610  1.00  0.00    -0.262 C  
ENDBRANCH  17  18
ENDBRANCH  12  13
ENDBRANCH  11  12
ENDBRANCH   1  11
TORSDOF 6
ENDMDL
MODEL       90
REMARK 921   NORMALIZED FREE ENERGY PREDICTED BY IDOCK:   -4.80 KCAL/MOL
REMARK 922        TOTAL FREE ENERGY PREDICTED BY IDOCK:   -7.27 KCAL/MOL
REMARK 923 INTER-LIGAND FREE ENERGY PREDICTED BY IDOCK:   -6.44 KCAL/MOL
REMARK 924 INTRA-LIGAND FREE ENERGY PREDICTED BY IDOCK:   -0.83 KCAL/MOL
REMARK 927      BINDING AFFINITY PREDICTED BY RF-SCORE:    0.00 PKD
ROOT
HETATM    1  C   UNL     1     -12.947  14.653  70.591  1.00  0.00    -0.313 C  
HETATM    2  H   UNL     1     -14.604  15.030  71.556  1.00  0.00     0.000 HD 
HETATM    3  O   UNL     1     -13.832  15.527  71.314  1.00  0.00    -0.528 OA 
ENDROOT
BRANCH   1   4
HETATM    4  C   UNL     1     -11.691  15.460  70.198  1.00  0.00    -0.330 C  
BRANCH   4   5
HETATM    5  N   UNL     1     -10.652  14.641  69.567  1.00  0.00    -0.381 NA 
HETATM    6  C   UNL     1      -9.434  13.794  67.654  1.00  0.00    -0.217 C  
HETATM    7  C   UNL     1     -10.110  16.193  67.689  1.00  0.00    -0.248 C  
HETATM    8  C   UNL     1     -10.538  14.774  68.101  1.00  0.00    -0.241 C  
HETATM    9  H   UNL     1     -10.779  13.661  69.820  1.00  0.00     0.000 HD 
HETATM   10  C   UNL     1     -11.843  14.386  67.386  1.00  0.00    -0.430 C  
ENDBRANCH   4   5
ENDBRANCH   1   4
BRANCH   1  11
HETATM   11  C   UNL     1     -12.646  13.412  71.441  1.00  0.00    -0.283 C  
BRANCH  11  12
HETATM   12  O   UNL     1     -12.118  12.396  70.582  1.00  0.00    -0.358 OA 
BRANCH  12  13
HETATM   13  C   UNL     1     -12.408  11.118  70.950  1.00  0.00    -0.399 A  
HETATM   14  N   UNL     1     -13.283  10.896  71.932  1.00  0.00    -0.460 NA 
HETATM   15  S   UNL     1     -13.266   9.237  72.125  1.00  0.00    -0.478 SA 
HETATM   16  N   UNL     1     -12.137   8.804  70.979  1.00  0.00    -0.265 NA 
HETATM   17  C   UNL     1     -11.763   9.940  70.375  1.00  0.00    -0.258 A  
BRANCH  17  18
HETATM   18  N   UNL     1     -10.812   9.999  69.396  1.00  0.00    -0.228 NA 
HETATM   19  C   UNL     1      -9.373  10.004  69.670  1.00  0.00    -0.220 C  
HETATM   20  C   UNL     1      -8.678   9.119  68.622  1.00  0.00    -0.129 C  
HETATM   21  O   UNL     1      -8.964   9.570  67.285  1.00  0.00    -0.130 OA 
HETATM   22  C   UNL     1     -10.383   9.569  67.039  1.00  0.00    -0.250 C  
HETATM   23  C   UNL     1     -11.139  10.461  68.042  1.00  0.00    -0.298 C  
ENDBRANCH  17  18
ENDBRANCH  12  13
ENDBRANCH  11  12
ENDBRANCH   1  11
TORSDOF 6
ENDMDL
MODEL       91
REMARK 921   NORMALIZED FREE ENERGY PREDICTED BY IDOCK:   -4.79 KCAL/MOL
REMARK 922        TOTAL FREE ENERGY PREDICTED BY IDOCK:   -7.25 KCAL/MOL
REMARK 923 INTER-LIGAND FREE ENERGY PREDICTED BY IDOCK:   -6.07 KCAL/MOL
REMARK 924 INTRA-LIGAND FREE ENERGY PREDICTED BY IDOCK:   -1.18 KCAL/MOL
REMARK 927      BINDING AFFINITY PREDICTED BY RF-SCORE:    0.00 PKD
ROOT
HETATM    1  C   UNL     1     -11.797  12.602  68.397  1.00  0.00    -0.301 C  
HETATM    2  H   UNL     1     -11.839  13.387  70.186  1.00  0.00     0.000 HD 
HETATM    3  O   UNL     1     -11.596  13.687  69.319  1.00  0.00    -0.272 OA 
ENDROOT
BRANCH   1   4
HETATM    4  C   UNL     1     -11.402  13.090  66.986  1.00  0.00    -0.301 C  
BRANCH   4   5
HETATM    5  N   UNL     1     -12.061  12.343  65.911  1.00  0.00    -0.623 NA 
HETATM    6  C   UNL     1     -12.663  11.967  63.596  1.00  0.00    -0.550 C  
HETATM    7  C   UNL     1     -10.365  12.773  64.131  1.00  0.00    -0.401 C  
HETATM    8  C   UNL     1     -11.844  12.864  64.546  1.00  0.00    -0.375 C  
HETATM    9  H   UNL     1     -13.060  12.267  66.101  1.00  0.00     0.000 HD 
HETATM   10  C   UNL     1     -12.348  14.310  64.397  1.00  0.00    -0.417 C  
ENDBRANCH   4   5
ENDBRANCH   1   4
BRANCH   1  11
HETATM   11  C   UNL     1     -11.009  11.374  68.872  1.00  0.00    -0.226 C  
BRANCH  11  12
HETATM   12  O   UNL     1     -11.433  10.243  68.104  1.00  0.00    -0.270 OA 
BRANCH  12  13
HETATM   13  C   UNL     1     -10.432   9.539  67.508  1.00  0.00    -0.275 A  
HETATM   14  N   UNL     1     -10.180   9.720  66.210  1.00  0.00    -0.238 NA 
HETATM   15  S   UNL     1      -8.976   8.613  65.872  1.00  0.00    -0.198 SA 
HETATM   16  N   UNL     1      -8.789   7.894  67.363  1.00  0.00    -0.127 NA 
HETATM   17  C   UNL     1      -9.634   8.523  68.190  1.00  0.00    -0.143 A  
BRANCH  17  18
HETATM   18  N   UNL     1      -9.799   8.186  69.504  1.00  0.00    -0.178 NA 
HETATM   19  C   UNL     1      -8.839   8.541  70.552  1.00  0.00    -0.154 C  
HETATM   20  C   UNL     1      -9.626   8.959  71.805  1.00  0.00    -0.282 C  
HETATM   21  O   UNL     1     -10.517   7.913  72.236  1.00  0.00    -0.223 OA 
HETATM   22  C   UNL     1     -11.444   7.570  71.188  1.00  0.00    -0.273 C  
HETATM   23  C   UNL     1     -10.718   7.116  69.907  1.00  0.00    -0.239 C  
ENDBRANCH  17  18
ENDBRANCH  12  13
ENDBRANCH  11  12
ENDBRANCH   1  11
TORSDOF 6
ENDMDL
MODEL       92
REMARK 921   NORMALIZED FREE ENERGY PREDICTED BY IDOCK:   -4.78 KCAL/MOL
REMARK 922        TOTAL FREE ENERGY PREDICTED BY IDOCK:   -7.25 KCAL/MOL
REMARK 923 INTER-LIGAND FREE ENERGY PREDICTED BY IDOCK:   -6.04 KCAL/MOL
REMARK 924 INTRA-LIGAND FREE ENERGY PREDICTED BY IDOCK:   -1.21 KCAL/MOL
REMARK 927      BINDING AFFINITY PREDICTED BY RF-SCORE:    0.00 PKD
ROOT
HETATM    1  C   UNL     1      -9.419  11.144  67.880  1.00  0.00    -0.175 C  
HETATM    2  H   UNL     1      -9.394   9.805  66.457  1.00  0.00     0.000 HD 
HETATM    3  O   UNL     1      -9.293  10.748  66.503  1.00  0.00    -0.163 OA 
ENDROOT
BRANCH   1   4
HETATM    4  C   UNL     1      -9.255  12.677  67.956  1.00  0.00    -0.208 C  
BRANCH   4   5
HETATM    5  N   UNL     1     -10.233  13.320  68.839  1.00  0.00    -0.429 NA 
HETATM    6  C   UNL     1     -11.902  14.995  69.357  1.00  0.00    -0.358 C  
HETATM    7  C   UNL     1     -11.873  13.985  67.078  1.00  0.00    -0.458 C  
HETATM    8  C   UNL     1     -10.984  14.446  68.246  1.00  0.00    -0.247 C  
HETATM    9  H   UNL     1      -9.779  13.619  69.702  1.00  0.00     0.000 HD 
HETATM   10  C   UNL     1     -10.052  15.580  67.787  1.00  0.00    -0.232 C  
ENDBRANCH   4   5
ENDBRANCH   1   4
BRANCH   1  11
HETATM   11  C   UNL     1     -10.754  10.635  68.439  1.00  0.00    -0.222 C  
BRANCH  11  12
HETATM   12  O   UNL     1     -10.561  10.277  69.811  1.00  0.00    -0.242 OA 
BRANCH  12  13
HETATM   13  C   UNL     1     -11.636  10.480  70.620  1.00  0.00    -0.352 A  
HETATM   14  N   UNL     1     -12.183  11.694  70.700  1.00  0.00    -0.384 NA 
HETATM   15  S   UNL     1     -13.379  11.527  71.853  1.00  0.00    -0.119 SA 
HETATM   16  N   UNL     1     -13.190   9.923  72.264  1.00  0.00    -0.403 NA 
HETATM   17  C   UNL     1     -12.211   9.451  71.483  1.00  0.00    -0.369 A  
BRANCH  17  18
HETATM   18  N   UNL     1     -11.738   8.170  71.553  1.00  0.00    -0.275 NA 
HETATM   19  C   UNL     1     -12.349   7.046  70.839  1.00  0.00    -0.314 C  
HETATM   20  C   UNL     1     -11.223   6.154  70.290  1.00  0.00    -0.369 C  
HETATM   21  O   UNL     1     -10.354   5.702  71.345  1.00  0.00    -0.211 OA 
HETATM   22  C   UNL     1      -9.773   6.820  72.042  1.00  0.00    -0.153 C  
HETATM   23  C   UNL     1     -10.851   7.743  72.641  1.00  0.00    -0.354 C  
ENDBRANCH  17  18
ENDBRANCH  12  13
ENDBRANCH  11  12
ENDBRANCH   1  11
TORSDOF 6
ENDMDL
MODEL       93
REMARK 921   NORMALIZED FREE ENERGY PREDICTED BY IDOCK:   -4.75 KCAL/MOL
REMARK 922        TOTAL FREE ENERGY PREDICTED BY IDOCK:   -7.21 KCAL/MOL
REMARK 923 INTER-LIGAND FREE ENERGY PREDICTED BY IDOCK:   -6.61 KCAL/MOL
REMARK 924 INTRA-LIGAND FREE ENERGY PREDICTED BY IDOCK:   -0.60 KCAL/MOL
REMARK 927      BINDING AFFINITY PREDICTED BY RF-SCORE:    0.00 PKD
ROOT
HETATM    1  C   UNL     1     -10.451  16.680  65.467  1.00  0.00    -0.267 C  
HETATM    2  H   UNL     1     -11.282  16.544  63.703  1.00  0.00     0.000 HD 
HETATM    3  O   UNL     1     -11.305  17.169  64.417  1.00  0.00    -1.115 OA 
ENDROOT
BRANCH   1   4
HETATM    4  C   UNL     1     -10.489  17.696  66.629  1.00  0.00    -0.286 C  
BRANCH   4   5
HETATM    5  N   UNL     1      -9.572  18.824  66.439  1.00  0.00    -0.335 NA 
HETATM    6  C   UNL     1      -8.116  20.583  67.245  1.00  0.00    -0.362 C  
HETATM    7  C   UNL     1      -8.094  18.373  68.400  1.00  0.00    -0.327 C  
HETATM    8  C   UNL     1      -8.994  19.390  67.675  1.00  0.00    -0.304 C  
HETATM    9  H   UNL     1     -10.030  19.559  65.901  1.00  0.00     0.000 HD 
HETATM   10  C   UNL     1     -10.079  19.912  68.632  1.00  0.00    -0.518 C  
ENDBRANCH   4   5
ENDBRANCH   1   4
BRANCH   1  11
HETATM   11  C   UNL     1     -10.889  15.265  65.865  1.00  0.00    -0.342 C  
BRANCH  11  12
HETATM   12  O   UNL     1     -10.038  14.327  65.200  1.00  0.00    -0.373 OA 
BRANCH  12  13
HETATM   13  C   UNL     1     -10.672  13.249  64.661  1.00  0.00    -0.400 A  
HETATM   14  N   UNL     1     -11.649  13.435  63.772  1.00  0.00    -0.365 NA 
HETATM   15  S   UNL     1     -12.209  11.894  63.455  1.00  0.00    -0.381 SA 
HETATM   16  N   UNL     1     -11.227  10.996  64.458  1.00  0.00    -0.006 NA 
HETATM   17  C   UNL     1     -10.398  11.867  65.047  1.00  0.00    -0.289 A  
BRANCH  17  18
HETATM   18  N   UNL     1      -9.462  11.511  65.977  1.00  0.00    -0.224 NA 
HETATM   19  C   UNL     1      -8.390  10.549  65.712  1.00  0.00    -0.166 C  
HETATM   20  C   UNL     1      -7.101  11.067  66.372  1.00  0.00    -0.120 C  
HETATM   21  O   UNL     1      -7.286  11.278  67.784  1.00  0.00    -0.088 OA 
HETATM   22  C   UNL     1      -8.352  12.218  68.024  1.00  0.00    -0.165 C  
HETATM   23  C   UNL     1      -9.682  11.744  67.409  1.00  0.00    -0.178 C  
ENDBRANCH  17  18
ENDBRANCH  12  13
ENDBRANCH  11  12
ENDBRANCH   1  11
TORSDOF 6
ENDMDL
MODEL       94
REMARK 921   NORMALIZED FREE ENERGY PREDICTED BY IDOCK:   -4.75 KCAL/MOL
REMARK 922        TOTAL FREE ENERGY PREDICTED BY IDOCK:   -7.20 KCAL/MOL
REMARK 923 INTER-LIGAND FREE ENERGY PREDICTED BY IDOCK:   -6.48 KCAL/MOL
REMARK 924 INTRA-LIGAND FREE ENERGY PREDICTED BY IDOCK:   -0.72 KCAL/MOL
REMARK 927      BINDING AFFINITY PREDICTED BY RF-SCORE:    0.00 PKD
ROOT
HETATM    1  C   UNL     1     -11.785  14.506  65.576  1.00  0.00    -0.343 C  
HETATM    2  H   UNL     1     -12.649  13.304  66.851  1.00  0.00     0.000 HD 
HETATM    3  O   UNL     1     -11.817  13.759  66.804  1.00  0.00    -0.372 OA 
ENDROOT
BRANCH   1   4
HETATM    4  C   UNL     1     -10.432  15.247  65.499  1.00  0.00    -0.374 C  
BRANCH   4   5
HETATM    5  N   UNL     1     -10.575  16.691  65.292  1.00  0.00    -0.633 NA 
HETATM    6  C   UNL     1     -10.368  19.003  65.979  1.00  0.00    -0.512 C  
HETATM    7  C   UNL     1      -8.545  17.404  66.557  1.00  0.00    -0.293 C  
HETATM    8  C   UNL     1     -10.067  17.546  66.384  1.00  0.00    -0.345 C  
HETATM    9  H   UNL     1     -11.549  16.920  65.094  1.00  0.00     0.000 HD 
HETATM   10  C   UNL     1     -10.780  17.260  67.717  1.00  0.00    -0.333 C  
ENDBRANCH   4   5
ENDBRANCH   1   4
BRANCH   1  11
HETATM   11  C   UNL     1     -12.042  13.561  64.395  1.00  0.00    -0.420 C  
BRANCH  11  12
HETATM   12  O   UNL     1     -11.833  12.218  64.840  1.00  0.00    -0.367 OA 
BRANCH  12  13
HETATM   13  C   UNL     1     -10.731  11.603  64.332  1.00  0.00    -0.330 A  
HETATM   14  N   UNL     1     -10.532  11.588  63.013  1.00  0.00    -0.256 NA 
HETATM   15  S   UNL     1      -9.154  10.664  62.818  1.00  0.00    -0.331 SA 
HETATM   16  N   UNL     1      -8.822  10.269  64.403  1.00  0.00    -0.194 NA 
HETATM   17  C   UNL     1      -9.755  10.880  65.144  1.00  0.00    -0.262 A  
BRANCH  17  18
HETATM   18  N   UNL     1      -9.839  10.761  66.503  1.00  0.00    -0.196 NA 
HETATM   19  C   UNL     1     -10.769   9.850  67.175  1.00  0.00    -0.207 C  
HETATM   20  C   UNL     1     -10.041   9.209  68.367  1.00  0.00    -0.196 C  
HETATM   21  O   UNL     1      -9.535  10.210  69.270  1.00  0.00    -0.195 OA 
HETATM   22  C   UNL     1      -8.633  11.102  68.588  1.00  0.00    -0.151 C  
HETATM   23  C   UNL     1      -9.310  11.800  67.394  1.00  0.00    -0.174 C  
ENDBRANCH  17  18
ENDBRANCH  12  13
ENDBRANCH  11  12
ENDBRANCH   1  11
TORSDOF 6
ENDMDL
MODEL       95
REMARK 921   NORMALIZED FREE ENERGY PREDICTED BY IDOCK:   -4.73 KCAL/MOL
REMARK 922        TOTAL FREE ENERGY PREDICTED BY IDOCK:   -7.18 KCAL/MOL
REMARK 923 INTER-LIGAND FREE ENERGY PREDICTED BY IDOCK:   -6.66 KCAL/MOL
REMARK 924 INTRA-LIGAND FREE ENERGY PREDICTED BY IDOCK:   -0.52 KCAL/MOL
REMARK 927      BINDING AFFINITY PREDICTED BY RF-SCORE:    0.00 PKD
ROOT
HETATM    1  C   UNL     1     -11.817  11.675  69.928  1.00  0.00    -0.358 C  
HETATM    2  H   UNL     1     -11.852  10.388  68.458  1.00  0.00     0.000 HD 
HETATM    3  O   UNL     1     -12.281  11.213  68.648  1.00  0.00    -0.582 OA 
ENDROOT
BRANCH   1   4
HETATM    4  C   UNL     1     -12.516  13.016  70.238  1.00  0.00    -0.147 C  
BRANCH   4   5
HETATM    5  N   UNL     1     -12.469  13.378  71.658  1.00  0.00    -0.173 NA 
HETATM    6  C   UNL     1     -12.683  14.936  73.498  1.00  0.00    -0.629 C  
HETATM    7  C   UNL     1     -14.331  15.040  71.631  1.00  0.00    -0.680 C  
HETATM    8  C   UNL     1     -12.856  14.767  71.975  1.00  0.00    -0.326 C  
HETATM    9  H   UNL     1     -11.544  13.178  72.038  1.00  0.00     0.000 HD 
HETATM   10  C   UNL     1     -11.950  15.791  71.271  1.00  0.00    -0.485 C  
ENDBRANCH   4   5
ENDBRANCH   1   4
BRANCH   1  11
HETATM   11  C   UNL     1     -12.063  10.589  70.984  1.00  0.00    -0.387 C  
BRANCH  11  12
HETATM   12  O   UNL     1     -11.830   9.313  70.379  1.00  0.00    -0.191 OA 
BRANCH  12  13
HETATM   13  C   UNL     1     -11.394   8.341  71.227  1.00  0.00    -0.267 A  
HETATM   14  N   UNL     1     -11.665   8.431  72.530  1.00  0.00    -0.385 NA 
HETATM   15  S   UNL     1     -10.878   7.120  73.201  1.00  0.00    -0.322 SA 
HETATM   16  N   UNL     1     -10.179   6.452  71.844  1.00  0.00    -0.194 NA 
HETATM   17  C   UNL     1     -10.571   7.208  70.811  1.00  0.00    -0.222 A  
BRANCH  17  18
HETATM   18  N   UNL     1     -10.167   6.997  69.522  1.00  0.00    -0.193 NA 
HETATM   19  C   UNL     1     -10.801   6.024  68.630  1.00  0.00    -0.307 C  
HETATM   20  C   UNL     1     -10.899   6.648  67.227  1.00  0.00    -0.385 C  
HETATM   21  O   UNL     1      -9.604   7.046  66.742  1.00  0.00    -0.158 OA 
HETATM   22  C   UNL     1      -8.992   7.993  67.639  1.00  0.00    -0.135 C  
HETATM   23  C   UNL     1      -8.840   7.419  69.060  1.00  0.00    -0.132 C  
ENDBRANCH  17  18
ENDBRANCH  12  13
ENDBRANCH  11  12
ENDBRANCH   1  11
TORSDOF 6
ENDMDL
MODEL       96
REMARK 921   NORMALIZED FREE ENERGY PREDICTED BY IDOCK:   -4.73 KCAL/MOL
REMARK 922        TOTAL FREE ENERGY PREDICTED BY IDOCK:   -7.17 KCAL/MOL
REMARK 923 INTER-LIGAND FREE ENERGY PREDICTED BY IDOCK:   -6.22 KCAL/MOL
REMARK 924 INTRA-LIGAND FREE ENERGY PREDICTED BY IDOCK:   -0.95 KCAL/MOL
REMARK 927      BINDING AFFINITY PREDICTED BY RF-SCORE:    0.00 PKD
ROOT
HETATM    1  C   UNL     1     -12.284  13.275  64.140  1.00  0.00    -0.401 C  
HETATM    2  H   UNL     1     -13.396  11.758  63.609  1.00  0.00     0.000 HD 
HETATM    3  O   UNL     1     -13.290  12.280  64.395  1.00  0.00    -0.786 OA 
ENDROOT
BRANCH   1   4
HETATM    4  C   UNL     1     -12.112  14.124  65.418  1.00  0.00    -0.410 C  
BRANCH   4   5
HETATM    5  N   UNL     1     -10.929  13.757  66.200  1.00  0.00    -0.291 NA 
HETATM    6  C   UNL     1      -9.511  13.879  68.159  1.00  0.00    -0.207 C  
HETATM    7  C   UNL     1     -11.986  13.866  68.459  1.00  0.00    -0.394 C  
HETATM    8  C   UNL     1     -10.845  14.354  67.549  1.00  0.00    -0.282 C  
HETATM    9  H   UNL     1     -10.082  13.969  65.672  1.00  0.00     0.000 HD 
HETATM   10  C   UNL     1     -10.830  15.891  67.497  1.00  0.00    -0.305 C  
ENDBRANCH   4   5
ENDBRANCH   1   4
BRANCH   1  11
HETATM   11  C   UNL     1     -10.994  12.590  63.672  1.00  0.00    -0.456 C  
BRANCH  11  12
HETATM   12  O   UNL     1     -10.894  11.322  64.329  1.00  0.00    -0.354 OA 
BRANCH  12  13
HETATM   13  C   UNL     1      -9.906  10.507  63.869  1.00  0.00    -0.310 A  
HETATM   14  N   UNL     1      -9.546  10.565  62.585  1.00  0.00    -0.292 NA 
HETATM   15  S   UNL     1      -8.405   9.356  62.427  1.00  0.00    -0.176 SA 
HETATM   16  N   UNL     1      -8.383   8.748  63.978  1.00  0.00    -0.164 NA 
HETATM   17  C   UNL     1      -9.238   9.497  64.686  1.00  0.00    -0.185 A  
BRANCH  17  18
HETATM   18  N   UNL     1      -9.524   9.278  66.004  1.00  0.00    -0.227 NA 
HETATM   19  C   UNL     1      -9.405  10.311  67.036  1.00  0.00    -0.154 C  
HETATM   20  C   UNL     1     -10.600  10.176  67.995  1.00  0.00    -0.231 C  
HETATM   21  O   UNL     1     -10.661   8.857  68.570  1.00  0.00    -0.204 OA 
HETATM   22  C   UNL     1     -10.765   7.856  67.540  1.00  0.00    -0.181 C  
HETATM   23  C   UNL     1      -9.581   7.920  66.557  1.00  0.00    -0.212 C  
ENDBRANCH  17  18
ENDBRANCH  12  13
ENDBRANCH  11  12
ENDBRANCH   1  11
TORSDOF 6
ENDMDL
MODEL       97
REMARK 921   NORMALIZED FREE ENERGY PREDICTED BY IDOCK:   -4.70 KCAL/MOL
REMARK 922        TOTAL FREE ENERGY PREDICTED BY IDOCK:   -7.14 KCAL/MOL
REMARK 923 INTER-LIGAND FREE ENERGY PREDICTED BY IDOCK:   -6.61 KCAL/MOL
REMARK 924 INTRA-LIGAND FREE ENERGY PREDICTED BY IDOCK:   -0.53 KCAL/MOL
REMARK 927      BINDING AFFINITY PREDICTED BY RF-SCORE:    0.00 PKD
ROOT
HETATM    1  C   UNL     1     -11.047   9.054  70.848  1.00  0.00    -0.280 C  
HETATM    2  H   UNL     1     -11.078   9.558  72.736  1.00  0.00     0.000 HD 
HETATM    3  O   UNL     1     -11.059   8.742  72.252  1.00  0.00    -0.359 OA 
ENDROOT
BRANCH   1   4
HETATM    4  C   UNL     1     -11.017   7.727  70.060  1.00  0.00    -0.214 C  
BRANCH   4   5
HETATM    5  N   UNL     1      -9.784   7.540  69.290  1.00  0.00    -0.162 NA 
HETATM    6  C   UNL     1      -8.555   7.152  67.241  1.00  0.00    -0.121 C  
HETATM    7  C   UNL     1     -10.538   8.663  67.192  1.00  0.00    -0.304 C  
HETATM    8  C   UNL     1      -9.960   7.388  67.832  1.00  0.00    -0.165 C  
HETATM    9  H   UNL     1      -9.258   6.749  69.662  1.00  0.00     0.000 HD 
HETATM   10  C   UNL     1     -10.839   6.175  67.482  1.00  0.00    -0.422 C  
ENDBRANCH   4   5
ENDBRANCH   1   4
BRANCH   1  11
HETATM   11  C   UNL     1     -12.248   9.948  70.512  1.00  0.00    -0.179 C  
BRANCH  11  12
HETATM   12  O   UNL     1     -11.900  11.302  70.818  1.00  0.00    -0.322 OA 
BRANCH  12  13
HETATM   13  C   UNL     1     -11.887  12.151  69.754  1.00  0.00    -0.327 A  
HETATM   14  N   UNL     1     -11.576  11.688  68.543  1.00  0.00    -0.292 NA 
HETATM   15  S   UNL     1     -11.578  13.047  67.573  1.00  0.00    -0.372 SA 
HETATM   16  N   UNL     1     -11.953  14.224  68.692  1.00  0.00    -0.332 NA 
HETATM   17  C   UNL     1     -12.131  13.588  69.857  1.00  0.00    -0.341 A  
BRANCH  17  18
HETATM   18  N   UNL     1     -12.415  14.227  71.032  1.00  0.00    -0.338 NA 
HETATM   19  C   UNL     1     -11.393  14.846  71.879  1.00  0.00    -0.051 C  
HETATM   20  C   UNL     1     -11.950  16.176  72.414  1.00  0.00    -0.554 C  
HETATM   21  O   UNL     1     -13.182  15.975  73.132  1.00  0.00    -0.533 OA 
HETATM   22  C   UNL     1     -14.170  15.354  72.286  1.00  0.00    -0.545 C  
HETATM   23  C   UNL     1     -13.682  14.000  71.736  1.00  0.00    -0.395 C  
ENDBRANCH  17  18
ENDBRANCH  12  13
ENDBRANCH  11  12
ENDBRANCH   1  11
TORSDOF 6
ENDMDL
MODEL       98
REMARK 921   NORMALIZED FREE ENERGY PREDICTED BY IDOCK:   -4.70 KCAL/MOL
REMARK 922        TOTAL FREE ENERGY PREDICTED BY IDOCK:   -7.14 KCAL/MOL
REMARK 923 INTER-LIGAND FREE ENERGY PREDICTED BY IDOCK:   -6.36 KCAL/MOL
REMARK 924 INTRA-LIGAND FREE ENERGY PREDICTED BY IDOCK:   -0.78 KCAL/MOL
REMARK 927      BINDING AFFINITY PREDICTED BY RF-SCORE:    0.00 PKD
ROOT
HETATM    1  C   UNL     1     -11.790  12.808  65.673  1.00  0.00    -0.425 C  
HETATM    2  H   UNL     1     -10.798  13.453  64.118  1.00  0.00     0.000 HD 
HETATM    3  O   UNL     1     -10.615  12.873  64.847  1.00  0.00    -0.297 OA 
ENDROOT
BRANCH   1   4
HETATM    4  C   UNL     1     -11.493  11.865  66.859  1.00  0.00    -0.322 C  
BRANCH   4   5
HETATM    5  N   UNL     1     -10.300  11.039  66.655  1.00  0.00    -0.232 NA 
HETATM    6  C   UNL     1      -8.153  10.142  67.323  1.00  0.00    -0.114 C  
HETATM    7  C   UNL     1      -9.948  10.382  69.037  1.00  0.00    -0.224 C  
HETATM    8  C   UNL     1      -9.339  11.019  67.776  1.00  0.00    -0.158 C  
HETATM    9  H   UNL     1      -9.827  11.316  65.794  1.00  0.00     0.000 HD 
HETATM   10  C   UNL     1      -8.802  12.424  68.098  1.00  0.00    -0.191 C  
ENDBRANCH   4   5
ENDBRANCH   1   4
BRANCH   1  11
HETATM   11  C   UNL     1     -12.199  14.226  66.095  1.00  0.00    -0.410 C  
BRANCH  11  12
HETATM   12  O   UNL     1     -12.398  14.234  67.511  1.00  0.00    -0.287 OA 
BRANCH  12  13
HETATM   13  C   UNL     1     -11.521  15.001  68.216  1.00  0.00    -0.332 A  
HETATM   14  N   UNL     1     -10.486  15.564  67.591  1.00  0.00    -0.273 NA 
HETATM   15  S   UNL     1      -9.629  16.311  68.814  1.00  0.00    -0.252 SA 
HETATM   16  N   UNL     1     -10.559  15.905  70.135  1.00  0.00    -0.312 NA 
HETATM   17  C   UNL     1     -11.597  15.204  69.661  1.00  0.00    -0.311 A  
BRANCH  17  18
HETATM   18  N   UNL     1     -12.567  14.659  70.453  1.00  0.00    -0.349 NA 
HETATM   19  C   UNL     1     -12.652  13.227  70.753  1.00  0.00    -0.280 C  
HETATM   20  C   UNL     1     -13.037  13.065  72.232  1.00  0.00    -0.340 C  
HETATM   21  O   UNL     1     -14.274  13.741  72.526  1.00  0.00    -0.706 OA 
HETATM   22  C   UNL     1     -14.175  15.144  72.214  1.00  0.00    -0.517 C  
HETATM   23  C   UNL     1     -13.815  15.378  70.735  1.00  0.00    -0.024 C  
ENDBRANCH  17  18
ENDBRANCH  12  13
ENDBRANCH  11  12
ENDBRANCH   1  11
TORSDOF 6
ENDMDL
MODEL       99
REMARK 921   NORMALIZED FREE ENERGY PREDICTED BY IDOCK:   -4.70 KCAL/MOL
REMARK 922        TOTAL FREE ENERGY PREDICTED BY IDOCK:   -7.13 KCAL/MOL
REMARK 923 INTER-LIGAND FREE ENERGY PREDICTED BY IDOCK:   -6.28 KCAL/MOL
REMARK 924 INTRA-LIGAND FREE ENERGY PREDICTED BY IDOCK:   -0.85 KCAL/MOL
REMARK 927      BINDING AFFINITY PREDICTED BY RF-SCORE:    0.00 PKD
ROOT
HETATM    1  C   UNL     1      -9.756  10.123  66.792  1.00  0.00    -0.187 C  
HETATM    2  H   UNL     1     -10.097   8.458  65.828  1.00  0.00     0.000 HD 
HETATM    3  O   UNL     1     -10.042   9.377  65.597  1.00  0.00    -0.261 OA 
ENDROOT
BRANCH   1   4
HETATM    4  C   UNL     1      -9.666  11.618  66.416  1.00  0.00    -0.214 C  
BRANCH   4   5
HETATM    5  N   UNL     1     -10.957  12.308  66.477  1.00  0.00    -0.266 NA 
HETATM    6  C   UNL     1     -12.698  13.720  65.562  1.00  0.00    -0.530 C  
HETATM    7  C   UNL     1     -11.562  12.080  64.066  1.00  0.00    -0.495 C  
HETATM    8  C   UNL     1     -11.350  13.035  65.254  1.00  0.00    -0.295 C  
HETATM    9  H   UNL     1     -10.978  12.937  67.280  1.00  0.00     0.000 HD 
HETATM   10  C   UNL     1     -10.331  14.125  64.881  1.00  0.00    -0.435 C  
ENDBRANCH   4   5
ENDBRANCH   1   4
BRANCH   1  11
HETATM   11  C   UNL     1     -10.818   9.814  67.855  1.00  0.00    -0.242 C  
BRANCH  11  12
HETATM   12  O   UNL     1     -10.377  10.357  69.103  1.00  0.00    -0.196 OA 
BRANCH  12  13
HETATM   13  C   UNL     1     -11.332  10.438  70.070  1.00  0.00    -0.313 A  
HETATM   14  N   UNL     1     -11.933  11.605  70.308  1.00  0.00    -0.357 NA 
HETATM   15  S   UNL     1     -12.934  11.290  71.607  1.00  0.00    -0.349 SA 
HETATM   16  N   UNL     1     -12.591   9.682  71.879  1.00  0.00    -0.393 NA 
HETATM   17  C   UNL     1     -11.710   9.324  70.936  1.00  0.00    -0.296 A  
BRANCH  17  18
HETATM   18  N   UNL     1     -11.156   8.077  70.853  1.00  0.00    -0.251 NA 
HETATM   19  C   UNL     1     -11.920   6.878  70.499  1.00  0.00    -0.305 C  
HETATM   20  C   UNL     1     -11.056   6.013  69.567  1.00  0.00    -0.398 C  
HETATM   21  O   UNL     1      -9.799   5.676  70.183  1.00  0.00    -0.170 OA 
HETATM   22  C   UNL     1      -9.068   6.867  70.534  1.00  0.00    -0.156 C  
HETATM   23  C   UNL     1      -9.871   7.770  71.490  1.00  0.00    -0.167 C  
ENDBRANCH  17  18
ENDBRANCH  12  13
ENDBRANCH  11  12
ENDBRANCH   1  11
TORSDOF 6
ENDMDL
MODEL      100
REMARK 921   NORMALIZED FREE ENERGY PREDICTED BY IDOCK:   -4.66 KCAL/MOL
REMARK 922        TOTAL FREE ENERGY PREDICTED BY IDOCK:   -7.08 KCAL/MOL
REMARK 923 INTER-LIGAND FREE ENERGY PREDICTED BY IDOCK:   -6.37 KCAL/MOL
REMARK 924 INTRA-LIGAND FREE ENERGY PREDICTED BY IDOCK:   -0.72 KCAL/MOL
REMARK 927      BINDING AFFINITY PREDICTED BY RF-SCORE:    0.00 PKD
ROOT
HETATM    1  C   UNL     1     -11.395  12.971  64.410  1.00  0.00    -0.357 C  
HETATM    2  H   UNL     1     -10.582  14.746  64.309  1.00  0.00     0.000 HD 
HETATM    3  O   UNL     1     -10.269  13.864  64.472  1.00  0.00    -0.405 OA 
ENDROOT
BRANCH   1   4
HETATM    4  C   UNL     1     -10.885  11.537  64.674  1.00  0.00    -0.310 C  
BRANCH   4   5
HETATM    5  N   UNL     1      -9.468  11.487  65.043  1.00  0.00    -0.359 NA 
HETATM    6  C   UNL     1      -7.379  10.329  65.439  1.00  0.00    -0.144 C  
HETATM    7  C   UNL     1      -8.800   9.632  63.513  1.00  0.00    -0.255 C  
HETATM    8  C   UNL     1      -8.834  10.155  64.959  1.00  0.00    -0.181 C  
HETATM    9  H   UNL     1      -9.337  11.877  65.976  1.00  0.00     0.000 HD 
HETATM   10  C   UNL     1      -9.524   9.131  65.876  1.00  0.00    -0.326 C  
ENDBRANCH   4   5
ENDBRANCH   1   4
BRANCH   1  11
HETATM   11  C   UNL     1     -12.473  13.438  65.396  1.00  0.00    -0.494 C  
BRANCH  11  12
HETATM   12  O   UNL     1     -12.247  12.787  66.651  1.00  0.00    -0.481 OA 
BRANCH  12  13
HETATM   13  C   UNL     1     -11.973  13.618  67.693  1.00  0.00    -0.351 A  
HETATM   14  N   UNL     1     -11.860  14.930  67.480  1.00  0.00    -0.309 NA 
HETATM   15  S   UNL     1     -11.427  15.549  68.970  1.00  0.00    -0.373 SA 
HETATM   16  N   UNL     1     -11.365  14.153  69.878  1.00  0.00    -0.216 NA 
HETATM   17  C   UNL     1     -11.721  13.157  69.056  1.00  0.00    -0.321 A  
BRANCH  17  18
HETATM   18  N   UNL     1     -11.751  11.842  69.430  1.00  0.00    -0.316 NA 
HETATM   19  C   UNL     1     -10.953  10.802  68.777  1.00  0.00    -0.247 C  
HETATM   20  C   UNL     1     -10.416   9.853  69.862  1.00  0.00    -0.269 C  
HETATM   21  O   UNL     1     -11.489   9.289  70.639  1.00  0.00    -0.266 OA 
HETATM   22  C   UNL     1     -12.269  10.327  71.262  1.00  0.00    -0.395 C  
HETATM   23  C   UNL     1     -12.859  11.301  70.225  1.00  0.00     0.010 C  
ENDBRANCH  17  18
ENDBRANCH  12  13
ENDBRANCH  11  12
ENDBRANCH   1  11
TORSDOF 6
ENDMDL
MODEL      101
REMARK 921   NORMALIZED FREE ENERGY PREDICTED BY IDOCK:   -4.65 KCAL/MOL
REMARK 922        TOTAL FREE ENERGY PREDICTED BY IDOCK:   -7.07 KCAL/MOL
REMARK 923 INTER-LIGAND FREE ENERGY PREDICTED BY IDOCK:   -6.08 KCAL/MOL
REMARK 924 INTRA-LIGAND FREE ENERGY PREDICTED BY IDOCK:   -0.99 KCAL/MOL
REMARK 927      BINDING AFFINITY PREDICTED BY RF-SCORE:    0.00 PKD
ROOT
HETATM    1  C   UNL     1     -10.193  11.119  67.001  1.00  0.00    -0.215 C  
HETATM    2  H   UNL     1     -10.598   9.314  66.371  1.00  0.00     0.000 HD 
HETATM    3  O   UNL     1     -10.412  10.150  65.961  1.00  0.00    -0.194 OA 
ENDROOT
BRANCH   1   4
HETATM    4  C   UNL     1      -9.890  12.478  66.335  1.00  0.00    -0.253 C  
BRANCH   4   5
HETATM    5  N   UNL     1     -10.204  13.625  67.192  1.00  0.00    -0.242 NA 
HETATM    6  C   UNL     1     -11.156  15.811  67.612  1.00  0.00    -0.283 C  
HETATM    7  C   UNL     1     -12.397  14.214  66.155  1.00  0.00    -0.463 C  
HETATM    8  C   UNL     1     -10.993  14.699  66.556  1.00  0.00    -0.318 C  
HETATM    9  H   UNL     1      -9.346  14.009  67.588  1.00  0.00     0.000 HD 
HETATM   10  C   UNL     1     -10.271  15.297  65.336  1.00  0.00    -0.414 C  
ENDBRANCH   4   5
ENDBRANCH   1   4
BRANCH   1  11
HETATM   11  C   UNL     1     -11.406  11.145  67.940  1.00  0.00    -0.309 C  
BRANCH  11  12
HETATM   12  O   UNL     1     -10.940  11.390  69.270  1.00  0.00    -0.233 OA 
BRANCH  12  13
HETATM   13  C   UNL     1     -11.814  12.051  70.078  1.00  0.00    -0.314 A  
HETATM   14  N   UNL     1     -11.881  13.383  70.027  1.00  0.00    -0.311 NA 
HETATM   15  S   UNL     1     -12.976  13.781  71.223  1.00  0.00    -0.311 SA 
HETATM   16  N   UNL     1     -13.348  12.269  71.817  1.00  0.00    -0.356 NA 
HETATM   17  C   UNL     1     -12.659  11.396  71.073  1.00  0.00    -0.386 A  
BRANCH  17  18
HETATM   18  N   UNL     1     -12.673  10.045  71.283  1.00  0.00    -0.367 NA 
HETATM   19  C   UNL     1     -11.460   9.247  71.472  1.00  0.00    -0.384 C  
HETATM   20  C   UNL     1     -11.729   8.211  72.575  1.00  0.00    -0.394 C  
HETATM   21  O   UNL     1     -12.861   7.383  72.249  1.00  0.00    -0.128 OA 
HETATM   22  C   UNL     1     -14.041   8.187  72.056  1.00  0.00    -0.365 C  
HETATM   23  C   UNL     1     -13.846   9.232  70.942  1.00  0.00     0.160 C  
ENDBRANCH  17  18
ENDBRANCH  12  13
ENDBRANCH  11  12
ENDBRANCH   1  11
TORSDOF 6
ENDMDL
MODEL      102
REMARK 921   NORMALIZED FREE ENERGY PREDICTED BY IDOCK:   -4.64 KCAL/MOL
REMARK 922        TOTAL FREE ENERGY PREDICTED BY IDOCK:   -7.06 KCAL/MOL
REMARK 923 INTER-LIGAND FREE ENERGY PREDICTED BY IDOCK:   -6.16 KCAL/MOL
REMARK 924 INTRA-LIGAND FREE ENERGY PREDICTED BY IDOCK:   -0.90 KCAL/MOL
REMARK 927      BINDING AFFINITY PREDICTED BY RF-SCORE:    0.00 PKD
ROOT
HETATM    1  C   UNL     1     -11.844  14.767  69.913  1.00  0.00    -0.316 C  
HETATM    2  H   UNL     1     -11.305  15.278  71.721  1.00  0.00     0.000 HD 
HETATM    3  O   UNL     1     -10.866  15.178  70.884  1.00  0.00    -0.252 OA 
ENDROOT
BRANCH   1   4
HETATM    4  C   UNL     1     -11.131  14.604  68.553  1.00  0.00    -0.260 C  
BRANCH   4   5
HETATM    5  N   UNL     1     -12.051  14.312  67.450  1.00  0.00    -0.567 NA 
HETATM    6  C   UNL     1     -12.603  14.063  65.106  1.00  0.00    -0.453 C  
HETATM    7  C   UNL     1     -10.394  13.242  65.920  1.00  0.00    -0.293 C  
HETATM    8  C   UNL     1     -11.456  14.342  66.099  1.00  0.00    -0.355 C  
HETATM    9  H   UNL     1     -12.855  14.939  67.491  1.00  0.00     0.000 HD 
HETATM   10  C   UNL     1     -10.855  15.717  65.765  1.00  0.00    -0.286 C  
ENDBRANCH   4   5
ENDBRANCH   1   4
BRANCH   1  11
HETATM   11  C   UNL     1     -12.547  13.495  70.401  1.00  0.00    -0.197 C  
BRANCH  11  12
HETATM   12  O   UNL     1     -11.854  12.363  69.865  1.00  0.00    -0.322 OA 
BRANCH  12  13
HETATM   13  C   UNL     1     -12.112  11.179  70.484  1.00  0.00    -0.381 A  
HETATM   14  N   UNL     1     -12.997  11.133  71.481  1.00  0.00    -0.452 NA 
HETATM   15  S   UNL     1     -12.933   9.551  72.012  1.00  0.00    -0.432 SA 
HETATM   16  N   UNL     1     -11.770   8.931  70.992  1.00  0.00    -0.285 NA 
HETATM   17  C   UNL     1     -11.421   9.930  70.172  1.00  0.00    -0.248 A  
BRANCH  17  18
HETATM   18  N   UNL     1     -10.454   9.819  69.212  1.00  0.00    -0.208 NA 
HETATM   19  C   UNL     1     -10.635   9.059  67.973  1.00  0.00    -0.186 C  
HETATM   20  C   UNL     1      -9.994   9.852  66.822  1.00  0.00    -0.214 C  
HETATM   21  O   UNL     1      -8.603  10.118  67.082  1.00  0.00    -0.125 OA 
HETATM   22  C   UNL     1      -8.446  10.855  68.309  1.00  0.00    -0.134 C  
HETATM   23  C   UNL     1      -9.046  10.101  69.511  1.00  0.00    -0.195 C  
ENDBRANCH  17  18
ENDBRANCH  12  13
ENDBRANCH  11  12
ENDBRANCH   1  11
TORSDOF 6
ENDMDL
MODEL      103
REMARK 921   NORMALIZED FREE ENERGY PREDICTED BY IDOCK:   -4.61 KCAL/MOL
REMARK 922        TOTAL FREE ENERGY PREDICTED BY IDOCK:   -7.02 KCAL/MOL
REMARK 923 INTER-LIGAND FREE ENERGY PREDICTED BY IDOCK:   -7.29 KCAL/MOL
REMARK 924 INTRA-LIGAND FREE ENERGY PREDICTED BY IDOCK:    0.28 KCAL/MOL
REMARK 927      BINDING AFFINITY PREDICTED BY RF-SCORE:    0.00 PKD
ROOT
HETATM    1  C   UNL     1     -10.451  14.971  69.390  1.00  0.00    -0.247 C  
HETATM    2  H   UNL     1      -8.695  14.118  69.484  1.00  0.00     0.000 HD 
HETATM    3  O   UNL     1      -9.119  14.849  69.918  1.00  0.00     0.084 OA 
ENDROOT
BRANCH   1   4
HETATM    4  C   UNL     1     -11.140  16.160  70.095  1.00  0.00    -0.371 C  
BRANCH   4   5
HETATM    5  N   UNL     1     -12.559  15.923  70.374  1.00  0.00    -0.533 NA 
HETATM    6  C   UNL     1     -14.382  15.045  71.703  1.00  0.00    -0.680 C  
HETATM    7  C   UNL     1     -12.432  16.078  72.862  1.00  0.00    -0.596 C  
HETATM    8  C   UNL     1     -12.852  15.234  71.647  1.00  0.00    -0.395 C  
HETATM    9  H   UNL     1     -12.987  15.419  69.597  1.00  0.00     0.000 HD 
HETATM   10  C   UNL     1     -12.193  13.845  71.713  1.00  0.00    -0.090 C  
ENDBRANCH   4   5
ENDBRANCH   1   4
BRANCH   1  11
HETATM   11  C   UNL     1     -10.387  15.107  67.864  1.00  0.00    -0.241 C  
BRANCH  11  12
HETATM   12  O   UNL     1      -9.811  13.911  67.329  1.00  0.00    -0.235 OA 
BRANCH  12  13
HETATM   13  C   UNL     1     -10.430  12.756  67.694  1.00  0.00    -0.220 A  
HETATM   14  N   UNL     1     -10.000  12.085  68.764  1.00  0.00    -0.133 NA 
HETATM   15  S   UNL     1     -10.947  10.710  68.791  1.00  0.00    -0.267 SA 
HETATM   16  N   UNL     1     -11.888  10.957  67.438  1.00  0.00    -0.327 NA 
HETATM   17  C   UNL     1     -11.522  12.144  66.940  1.00  0.00    -0.351 A  
BRANCH  17  18
HETATM   18  N   UNL     1     -12.046  12.680  65.797  1.00  0.00    -0.544 NA 
HETATM   19  C   UNL     1     -12.900  13.870  65.784  1.00  0.00    -0.391 C  
HETATM   20  C   UNL     1     -12.504  14.736  64.577  1.00  0.00    -0.253 C  
HETATM   21  O   UNL     1     -12.609  13.996  63.346  1.00  0.00    -0.845 OA 
HETATM   22  C   UNL     1     -11.772  12.824  63.383  1.00  0.00    -0.488 C  
HETATM   23  C   UNL     1     -12.135  11.898  64.558  1.00  0.00    -0.172 C  
ENDBRANCH  17  18
ENDBRANCH  12  13
ENDBRANCH  11  12
ENDBRANCH   1  11
TORSDOF 6
ENDMDL
MODEL      104
REMARK 921   NORMALIZED FREE ENERGY PREDICTED BY IDOCK:   -4.61 KCAL/MOL
REMARK 922        TOTAL FREE ENERGY PREDICTED BY IDOCK:   -7.01 KCAL/MOL
REMARK 923 INTER-LIGAND FREE ENERGY PREDICTED BY IDOCK:   -6.32 KCAL/MOL
REMARK 924 INTRA-LIGAND FREE ENERGY PREDICTED BY IDOCK:   -0.70 KCAL/MOL
REMARK 927      BINDING AFFINITY PREDICTED BY RF-SCORE:    0.00 PKD
ROOT
HETATM    1  C   UNL     1     -10.043  16.565  66.739  1.00  0.00    -0.288 C  
HETATM    2  H   UNL     1     -11.309  15.663  67.923  1.00  0.00     0.000 HD 
HETATM    3  O   UNL     1     -10.366  15.764  67.889  1.00  0.00    -0.250 OA 
ENDROOT
BRANCH   1   4
HETATM    4  C   UNL     1      -8.509  16.730  66.684  1.00  0.00    -0.256 C  
BRANCH   4   5
HETATM    5  N   UNL     1      -8.079  17.863  65.860  1.00  0.00    -0.540 NA 
HETATM    6  C   UNL     1      -7.087  20.048  65.540  1.00  0.00    -0.336 C  
HETATM    7  C   UNL     1      -6.061  18.486  67.191  1.00  0.00    -0.176 C  
HETATM    8  C   UNL     1      -7.395  18.955  66.583  1.00  0.00    -0.224 C  
HETATM    9  H   UNL     1      -8.873  18.235  65.337  1.00  0.00     0.000 HD 
HETATM   10  C   UNL     1      -8.288  19.568  67.675  1.00  0.00    -0.340 C  
ENDBRANCH   4   5
ENDBRANCH   1   4
BRANCH   1  11
HETATM   11  C   UNL     1     -10.643  15.921  65.483  1.00  0.00    -0.401 C  
BRANCH  11  12
HETATM   12  O   UNL     1     -11.695  15.040  65.888  1.00  0.00    -0.248 OA 
BRANCH  12  13
HETATM   13  C   UNL     1     -11.851  13.930  65.115  1.00  0.00    -0.362 A  
HETATM   14  N   UNL     1     -12.409  14.038  63.909  1.00  0.00    -0.707 NA 
HETATM   15  S   UNL     1     -12.501  12.463  63.360  1.00  0.00    -0.323 SA 
HETATM   16  N   UNL     1     -11.851  11.645  64.658  1.00  0.00    -0.107 NA 
HETATM   17  C   UNL     1     -11.502  12.580  65.551  1.00  0.00    -0.350 A  
BRANCH  17  18
HETATM   18  N   UNL     1     -10.966  12.294  66.776  1.00  0.00    -0.263 NA 
HETATM   19  C   UNL     1     -11.759  12.223  68.005  1.00  0.00    -0.356 C  
HETATM   20  C   UNL     1     -11.250  11.037  68.841  1.00  0.00    -0.265 C  
HETATM   21  O   UNL     1      -9.844  11.163  69.125  1.00  0.00    -0.163 OA 
HETATM   22  C   UNL     1      -9.083  11.243  67.904  1.00  0.00    -0.150 C  
HETATM   23  C   UNL     1      -9.527  12.430  67.029  1.00  0.00    -0.211 C  
ENDBRANCH  17  18
ENDBRANCH  12  13
ENDBRANCH  11  12
ENDBRANCH   1  11
TORSDOF 6
ENDMDL
MODEL      105
REMARK 921   NORMALIZED FREE ENERGY PREDICTED BY IDOCK:   -4.57 KCAL/MOL
REMARK 922        TOTAL FREE ENERGY PREDICTED BY IDOCK:   -6.96 KCAL/MOL
REMARK 923 INTER-LIGAND FREE ENERGY PREDICTED BY IDOCK:   -6.15 KCAL/MOL
REMARK 924 INTRA-LIGAND FREE ENERGY PREDICTED BY IDOCK:   -0.82 KCAL/MOL
REMARK 927      BINDING AFFINITY PREDICTED BY RF-SCORE:    0.00 PKD
ROOT
HETATM    1  C   UNL     1     -11.756  11.880  69.858  1.00  0.00    -0.308 C  
HETATM    2  H   UNL     1     -12.127  13.436  70.981  1.00  0.00     0.000 HD 
HETATM    3  O   UNL     1     -12.371  12.518  70.991  1.00  0.00    -0.351 OA 
ENDROOT
BRANCH   1   4
HETATM    4  C   UNL     1     -12.153  10.388  69.873  1.00  0.00    -0.181 C  
BRANCH   4   5
HETATM    5  N   UNL     1     -11.177   9.524  69.205  1.00  0.00    -0.447 NA 
HETATM    6  C   UNL     1      -9.553   7.728  69.163  1.00  0.00    -0.155 C  
HETATM    7  C   UNL     1     -11.628   7.449  70.517  1.00  0.00    -0.256 C  
HETATM    8  C   UNL     1     -10.576   8.469  70.048  1.00  0.00    -0.227 C  
HETATM    9  H   UNL     1     -10.443  10.091  68.780  1.00  0.00     0.000 HD 
HETATM   10  C   UNL     1      -9.831   9.057  71.258  1.00  0.00    -0.376 C  
ENDBRANCH   4   5
ENDBRANCH   1   4
BRANCH   1  11
HETATM   11  C   UNL     1     -12.161  12.617  68.574  1.00  0.00    -0.085 C  
BRANCH  11  12
HETATM   12  O   UNL     1     -11.938  11.741  67.464  1.00  0.00    -0.607 OA 
BRANCH  12  13
HETATM   13  C   UNL     1     -11.684  12.361  66.279  1.00  0.00    -0.395 A  
HETATM   14  N   UNL     1     -12.611  12.357  65.320  1.00  0.00    -0.588 NA 
HETATM   15  S   UNL     1     -11.867  13.117  64.032  1.00  0.00    -0.477 SA 
HETATM   16  N   UNL     1     -10.366  13.432  64.684  1.00  0.00    -0.400 NA 
HETATM   17  C   UNL     1     -10.408  12.990  65.947  1.00  0.00    -0.288 A  
BRANCH  17  18
HETATM   18  N   UNL     1      -9.342  13.037  66.801  1.00  0.00    -0.240 NA 
HETATM   19  C   UNL     1      -8.668  11.842  67.314  1.00  0.00    -0.171 C  
HETATM   20  C   UNL     1      -7.153  12.109  67.323  1.00  0.00    -0.144 C  
HETATM   21  O   UNL     1      -6.833  13.274  68.106  1.00  0.00    -0.087 OA 
HETATM   22  C   UNL     1      -7.514  14.435  67.594  1.00  0.00    -0.175 C  
HETATM   23  C   UNL     1      -9.042  14.243  67.582  1.00  0.00    -0.192 C  
ENDBRANCH  17  18
ENDBRANCH  12  13
ENDBRANCH  11  12
ENDBRANCH   1  11
TORSDOF 6
ENDMDL
MODEL      106
REMARK 921   NORMALIZED FREE ENERGY PREDICTED BY IDOCK:   -4.56 KCAL/MOL
REMARK 922        TOTAL FREE ENERGY PREDICTED BY IDOCK:   -6.94 KCAL/MOL
REMARK 923 INTER-LIGAND FREE ENERGY PREDICTED BY IDOCK:   -6.03 KCAL/MOL
REMARK 924 INTRA-LIGAND FREE ENERGY PREDICTED BY IDOCK:   -0.91 KCAL/MOL
REMARK 927      BINDING AFFINITY PREDICTED BY RF-SCORE:    0.00 PKD
ROOT
HETATM    1  C   UNL     1     -11.908  13.591  65.295  1.00  0.00    -0.352 C  
HETATM    2  H   UNL     1     -10.931  12.949  63.728  1.00  0.00     0.000 HD 
HETATM    3  O   UNL     1     -11.031  12.666  64.629  1.00  0.00    -0.288 OA 
ENDROOT
BRANCH   1   4
HETATM    4  C   UNL     1     -12.069  13.131  66.760  1.00  0.00    -0.327 C  
BRANCH   4   5
HETATM    5  N   UNL     1     -11.819  11.699  66.946  1.00  0.00    -0.547 NA 
HETATM    6  C   UNL     1     -10.771   9.814  68.047  1.00  0.00    -0.298 C  
HETATM    7  C   UNL     1     -11.559  11.735  69.428  1.00  0.00    -0.386 C  
HETATM    8  C   UNL     1     -10.935  11.348  68.076  1.00  0.00    -0.237 C  
HETATM    9  H   UNL     1     -11.459  11.293  66.082  1.00  0.00     0.000 HD 
HETATM   10  C   UNL     1      -9.541  11.983  67.934  1.00  0.00    -0.196 C  
ENDBRANCH   4   5
ENDBRANCH   1   4
BRANCH   1  11
HETATM   11  C   UNL     1     -11.355  15.015  65.149  1.00  0.00    -0.372 C  
BRANCH  11  12
HETATM   12  O   UNL     1     -10.458  15.263  66.236  1.00  0.00    -0.287 OA 
BRANCH  12  13
HETATM   13  C   UNL     1     -10.421  16.550  66.675  1.00  0.00    -0.266 A  
HETATM   14  N   UNL     1     -10.041  17.521  65.843  1.00  0.00    -0.552 NA 
HETATM   15  S   UNL     1     -10.038  18.895  66.793  1.00  0.00    -0.404 SA 
HETATM   16  N   UNL     1     -10.500  18.255  68.261  1.00  0.00    -0.339 NA 
HETATM   17  C   UNL     1     -10.712  16.950  68.050  1.00  0.00    -0.364 A  
BRANCH  17  18
HETATM   18  N   UNL     1     -11.069  16.072  69.035  1.00  0.00    -0.297 NA 
HETATM   19  C   UNL     1     -10.099  15.300  69.815  1.00  0.00    -0.218 C  
HETATM   20  C   UNL     1     -10.570  15.270  71.278  1.00  0.00     0.329 C  
HETATM   21  O   UNL     1     -11.896  14.720  71.389  1.00  0.00    -0.329 OA 
HETATM   22  C   UNL     1     -12.832  15.485  70.606  1.00  0.00    -0.413 C  
HETATM   23  C   UNL     1     -12.431  15.533  69.119  1.00  0.00     0.111 C  
ENDBRANCH  17  18
ENDBRANCH  12  13
ENDBRANCH  11  12
ENDBRANCH   1  11
TORSDOF 6
ENDMDL
MODEL      107
REMARK 921   NORMALIZED FREE ENERGY PREDICTED BY IDOCK:   -4.54 KCAL/MOL
REMARK 922        TOTAL FREE ENERGY PREDICTED BY IDOCK:   -6.92 KCAL/MOL
REMARK 923 INTER-LIGAND FREE ENERGY PREDICTED BY IDOCK:   -6.20 KCAL/MOL
REMARK 924 INTRA-LIGAND FREE ENERGY PREDICTED BY IDOCK:   -0.73 KCAL/MOL
REMARK 927      BINDING AFFINITY PREDICTED BY RF-SCORE:    0.00 PKD
ROOT
HETATM    1  C   UNL     1     -11.588  12.184  68.817  1.00  0.00    -0.327 C  
HETATM    2  H   UNL     1     -11.694  11.037  67.238  1.00  0.00     0.000 HD 
HETATM    3  O   UNL     1     -12.197  11.765  67.583  1.00  0.00    -0.534 OA 
ENDROOT
BRANCH   1   4
HETATM    4  C   UNL     1     -12.406  13.366  69.380  1.00  0.00    -0.077 C  
BRANCH   4   5
HETATM    5  N   UNL     1     -11.852  13.913  70.622  1.00  0.00    -0.498 NA 
HETATM    6  C   UNL     1     -12.044  14.800  72.866  1.00  0.00    -0.288 C  
HETATM    7  C   UNL     1     -13.509  12.900  72.190  1.00  0.00    -0.619 C  
HETATM    8  C   UNL     1     -12.833  14.189  71.691  1.00  0.00    -0.349 C  
HETATM    9  H   UNL     1     -11.309  14.753  70.421  1.00  0.00     0.000 HD 
HETATM   10  C   UNL     1     -13.898  15.206  71.245  1.00  0.00    -0.553 C  
ENDBRANCH   4   5
ENDBRANCH   1   4
BRANCH   1  11
HETATM   11  C   UNL     1     -11.491  10.986  69.772  1.00  0.00    -0.311 C  
BRANCH  11  12
HETATM   12  O   UNL     1     -10.135  10.529  69.785  1.00  0.00    -0.194 OA 
BRANCH  12  13
HETATM   13  C   UNL     1      -9.872   9.471  68.970  1.00  0.00    -0.176 A  
HETATM   14  N   UNL     1      -9.601   9.681  67.681  1.00  0.00    -0.140 NA 
HETATM   15  S   UNL     1      -9.448   8.146  67.042  1.00  0.00    -0.192 SA 
HETATM   16  N   UNL     1      -9.744   7.217  68.394  1.00  0.00    -0.146 NA 
HETATM   17  C   UNL     1      -9.933   8.077  69.403  1.00  0.00    -0.190 A  
BRANCH  17  18
HETATM   18  N   UNL     1     -10.243   7.691  70.677  1.00  0.00    -0.198 NA 
HETATM   19  C   UNL     1      -9.266   7.117  71.604  1.00  0.00    -0.144 C  
HETATM   20  C   UNL     1      -9.524   7.702  73.002  1.00  0.00    -0.226 C  
HETATM   21  O   UNL     1     -10.874   7.450  73.433  1.00  0.00    -0.388 OA 
HETATM   22  C   UNL     1     -11.820   8.012  72.503  1.00  0.00    -0.361 C  
HETATM   23  C   UNL     1     -11.632   7.446  71.083  1.00  0.00    -0.286 C  
ENDBRANCH  17  18
ENDBRANCH  12  13
ENDBRANCH  11  12
ENDBRANCH   1  11
TORSDOF 6
ENDMDL
MODEL      108
REMARK 921   NORMALIZED FREE ENERGY PREDICTED BY IDOCK:   -4.53 KCAL/MOL
REMARK 922        TOTAL FREE ENERGY PREDICTED BY IDOCK:   -6.91 KCAL/MOL
REMARK 923 INTER-LIGAND FREE ENERGY PREDICTED BY IDOCK:   -6.35 KCAL/MOL
REMARK 924 INTRA-LIGAND FREE ENERGY PREDICTED BY IDOCK:   -0.56 KCAL/MOL
REMARK 927      BINDING AFFINITY PREDICTED BY RF-SCORE:    0.00 PKD
ROOT
HETATM    1  C   UNL     1     -11.404  11.028  67.891  1.00  0.00    -0.311 C  
HETATM    2  H   UNL     1     -10.807  10.458  69.662  1.00  0.00     0.000 HD 
HETATM    3  O   UNL     1     -10.730  11.248  69.142  1.00  0.00    -0.215 OA 
ENDROOT
BRANCH   1   4
HETATM    4  C   UNL     1     -11.279  12.313  67.044  1.00  0.00    -0.310 C  
BRANCH   4   5
HETATM    5  N   UNL     1     -12.112  12.294  65.839  1.00  0.00    -0.620 NA 
HETATM    6  C   UNL     1     -12.486  12.604  63.467  1.00  0.00    -0.516 C  
HETATM    7  C   UNL     1     -10.335  11.600  64.228  1.00  0.00    -0.371 C  
HETATM    8  C   UNL     1     -11.418  12.634  64.579  1.00  0.00    -0.339 C  
HETATM    9  H   UNL     1     -12.922  12.899  65.965  1.00  0.00     0.000 HD 
HETATM   10  C   UNL     1     -10.808  14.046  64.623  1.00  0.00    -0.416 C  
ENDBRANCH   4   5
ENDBRANCH   1   4
BRANCH   1  11
HETATM   11  C   UNL     1     -10.829   9.779  67.212  1.00  0.00    -0.177 C  
BRANCH  11  12
HETATM   12  O   UNL     1     -10.177   8.984  68.208  1.00  0.00    -0.189 OA 
BRANCH  12  13
HETATM   13  C   UNL     1     -10.220   7.640  67.997  1.00  0.00    -0.202 A  
HETATM   14  N   UNL     1      -9.986   7.156  66.777  1.00  0.00    -0.214 NA 
HETATM   15  S   UNL     1     -10.235   5.512  66.936  1.00  0.00    -0.261 SA 
HETATM   16  N   UNL     1     -10.656   5.419  68.546  1.00  0.00    -0.133 NA 
HETATM   17  C   UNL     1     -10.578   6.666  69.025  1.00  0.00    -0.239 A  
BRANCH  17  18
HETATM   18  N   UNL     1     -10.891   7.003  70.313  1.00  0.00    -0.244 NA 
HETATM   19  C   UNL     1      -9.884   7.274  71.341  1.00  0.00    -0.186 C  
HETATM   20  C   UNL     1     -10.363   8.469  72.183  1.00  0.00    -0.339 C  
HETATM   21  O   UNL     1     -11.656   8.214  72.762  1.00  0.00    -0.411 OA 
HETATM   22  C   UNL     1     -12.629   7.938  71.737  1.00  0.00    -0.328 C  
HETATM   23  C   UNL     1     -12.221   6.731  70.870  1.00  0.00    -0.331 C  
ENDBRANCH  17  18
ENDBRANCH  12  13
ENDBRANCH  11  12
ENDBRANCH   1  11
TORSDOF 6
ENDMDL
MODEL      109
REMARK 921   NORMALIZED FREE ENERGY PREDICTED BY IDOCK:   -4.53 KCAL/MOL
REMARK 922        TOTAL FREE ENERGY PREDICTED BY IDOCK:   -6.90 KCAL/MOL
REMARK 923 INTER-LIGAND FREE ENERGY PREDICTED BY IDOCK:   -6.36 KCAL/MOL
REMARK 924 INTRA-LIGAND FREE ENERGY PREDICTED BY IDOCK:   -0.54 KCAL/MOL
REMARK 927      BINDING AFFINITY PREDICTED BY RF-SCORE:    0.00 PKD
ROOT
HETATM    1  C   UNL     1      -7.769  15.318  68.056  1.00  0.00    -0.126 C  
HETATM    2  H   UNL     1      -6.464  13.941  67.589  1.00  0.00     0.000 HD 
HETATM    3  O   UNL     1      -6.901  14.646  67.127  1.00  0.00    -0.225 OA 
ENDROOT
BRANCH   1   4
HETATM    4  C   UNL     1      -8.481  16.464  67.305  1.00  0.00    -0.175 C  
BRANCH   4   5
HETATM    5  N   UNL     1      -9.274  17.327  68.186  1.00  0.00    -0.260 NA 
HETATM    6  C   UNL     1     -10.025  19.481  68.994  1.00  0.00    -0.490 C  
HETATM    7  C   UNL     1      -9.713  19.153  66.543  1.00  0.00    -0.411 C  
HETATM    8  C   UNL     1      -9.161  18.777  67.929  1.00  0.00    -0.294 C  
HETATM    9  H   UNL     1      -9.051  17.127  69.161  1.00  0.00     0.000 HD 
HETATM   10  C   UNL     1      -7.714  19.276  68.076  1.00  0.00    -0.323 C  
ENDBRANCH   4   5
ENDBRANCH   1   4
BRANCH   1  11
HETATM   11  C   UNL     1      -8.728  14.301  68.688  1.00  0.00    -0.150 C  
BRANCH  11  12
HETATM   12  O   UNL     1     -10.059  14.616  68.268  1.00  0.00    -0.218 OA 
BRANCH  12  13
HETATM   13  C   UNL     1     -10.672  13.660  67.519  1.00  0.00    -0.259 A  
HETATM   14  N   UNL     1     -10.524  13.664  66.193  1.00  0.00    -0.292 NA 
HETATM   15  S   UNL     1     -11.503  12.416  65.669  1.00  0.00    -0.382 SA 
HETATM   16  N   UNL     1     -12.128  11.885  67.120  1.00  0.00    -0.522 NA 
HETATM   17  C   UNL     1     -11.561  12.639  68.070  1.00  0.00    -0.343 A  
BRANCH  17  18
HETATM   18  N   UNL     1     -11.854  12.528  69.400  1.00  0.00    -0.316 NA 
HETATM   19  C   UNL     1     -12.031  13.682  70.284  1.00  0.00    -0.327 C  
HETATM   20  C   UNL     1     -13.208  13.391  71.230  1.00  0.00    -0.174 C  
HETATM   21  O   UNL     1     -12.990  12.180  71.977  1.00  0.00    -0.376 OA 
HETATM   22  C   UNL     1     -12.807  11.059  71.091  1.00  0.00    -0.392 C  
HETATM   23  C   UNL     1     -11.622  11.277  70.130  1.00  0.00    -0.305 C  
ENDBRANCH  17  18
ENDBRANCH  12  13
ENDBRANCH  11  12
ENDBRANCH   1  11
TORSDOF 6
ENDMDL
MODEL      110
REMARK 921   NORMALIZED FREE ENERGY PREDICTED BY IDOCK:   -4.49 KCAL/MOL
REMARK 922        TOTAL FREE ENERGY PREDICTED BY IDOCK:   -6.84 KCAL/MOL
REMARK 923 INTER-LIGAND FREE ENERGY PREDICTED BY IDOCK:   -6.04 KCAL/MOL
REMARK 924 INTRA-LIGAND FREE ENERGY PREDICTED BY IDOCK:   -0.81 KCAL/MOL
REMARK 927      BINDING AFFINITY PREDICTED BY RF-SCORE:    0.00 PKD
ROOT
HETATM    1  C   UNL     1      -8.779  14.828  68.458  1.00  0.00    -0.174 C  
HETATM    2  H   UNL     1      -8.720  15.233  66.547  1.00  0.00     0.000 HD 
HETATM    3  O   UNL     1      -9.270  15.488  67.278  1.00  0.00    -0.201 OA 
ENDROOT
BRANCH   1   4
HETATM    4  C   UNL     1      -9.673  15.243  69.647  1.00  0.00    -0.200 C  
BRANCH   4   5
HETATM    5  N   UNL     1     -10.625  14.202  70.044  1.00  0.00    -0.288 NA 
HETATM    6  C   UNL     1     -12.670  13.428  71.083  1.00  0.00    -0.411 C  
HETATM    7  C   UNL     1     -12.710  15.549  69.773  1.00  0.00     0.005 C  
HETATM    8  C   UNL     1     -11.852  14.682  70.712  1.00  0.00    -0.311 C  
HETATM    9  H   UNL     1     -10.159  13.508  70.627  1.00  0.00     0.000 HD 
HETATM   10  C   UNL     1     -11.539  15.453  72.005  1.00  0.00    -0.544 C  
ENDBRANCH   4   5
ENDBRANCH   1   4
BRANCH   1  11
HETATM   11  C   UNL     1      -8.732  13.314  68.216  1.00  0.00    -0.168 C  
BRANCH  11  12
HETATM   12  O   UNL     1      -8.684  13.086  66.804  1.00  0.00    -0.188 OA 
BRANCH  12  13
HETATM   13  C   UNL     1      -8.920  11.803  66.416  1.00  0.00    -0.201 A  
HETATM   14  N   UNL     1      -7.977  10.876  66.589  1.00  0.00    -0.142 NA 
HETATM   15  S   UNL     1      -8.625   9.501  65.898  1.00  0.00    -0.137 SA 
HETATM   16  N   UNL     1     -10.091  10.085  65.363  1.00  0.00    -0.296 NA 
HETATM   17  C   UNL     1     -10.142  11.368  65.743  1.00  0.00    -0.246 A  
BRANCH  17  18
HETATM   18  N   UNL     1     -11.184  12.203  65.450  1.00  0.00    -0.324 NA 
HETATM   19  C   UNL     1     -12.008  12.852  66.472  1.00  0.00    -0.377 C  
HETATM   20  C   UNL     1     -12.295  14.293  66.018  1.00  0.00    -0.395 C  
HETATM   21  O   UNL     1     -12.936  14.316  64.729  1.00  0.00    -0.653 OA 
HETATM   22  C   UNL     1     -12.116  13.664  63.740  1.00  0.00    -0.382 C  
HETATM   23  C   UNL     1     -11.811  12.203  64.123  1.00  0.00    -0.404 C  
ENDBRANCH  17  18
ENDBRANCH  12  13
ENDBRANCH  11  12
ENDBRANCH   1  11
TORSDOF 6
ENDMDL
MODEL      111
REMARK 921   NORMALIZED FREE ENERGY PREDICTED BY IDOCK:   -4.47 KCAL/MOL
REMARK 922        TOTAL FREE ENERGY PREDICTED BY IDOCK:   -6.82 KCAL/MOL
REMARK 923 INTER-LIGAND FREE ENERGY PREDICTED BY IDOCK:   -6.08 KCAL/MOL
REMARK 924 INTRA-LIGAND FREE ENERGY PREDICTED BY IDOCK:   -0.74 KCAL/MOL
REMARK 927      BINDING AFFINITY PREDICTED BY RF-SCORE:    0.00 PKD
ROOT
HETATM    1  C   UNL     1     -11.812  14.776  67.855  1.00  0.00    -0.297 C  
HETATM    2  H   UNL     1     -11.876  14.051  66.041  1.00  0.00     0.000 HD 
HETATM    3  O   UNL     1     -11.988  13.701  66.916  1.00  0.00    -0.386 OA 
ENDROOT
BRANCH   1   4
HETATM    4  C   UNL     1     -11.993  14.206  69.278  1.00  0.00    -0.340 C  
BRANCH   4   5
HETATM    5  N   UNL     1     -13.075  14.852  70.026  1.00  0.00    -0.568 NA 
HETATM    6  C   UNL     1     -14.312  15.339  72.050  1.00  0.00    -0.689 C  
HETATM    7  C   UNL     1     -11.823  15.226  72.153  1.00  0.00    -0.526 C  
HETATM    8  C   UNL     1     -13.070  14.620  71.485  1.00  0.00    -0.348 C  
HETATM    9  H   UNL     1     -13.978  14.584  69.634  1.00  0.00     0.000 HD 
HETATM   10  C   UNL     1     -13.181  13.125  71.829  1.00  0.00    -0.494 C  
ENDBRANCH   4   5
ENDBRANCH   1   4
BRANCH   1  11
HETATM   11  C   UNL     1     -10.449  15.441  67.622  1.00  0.00    -0.272 C  
BRANCH  11  12
HETATM   12  O   UNL     1      -9.603  14.507  66.944  1.00  0.00    -0.232 OA 
BRANCH  12  13
HETATM   13  C   UNL     1      -8.606  13.972  67.700  1.00  0.00    -0.188 A  
HETATM   14  N   UNL     1      -7.696  14.774  68.255  1.00  0.00    -0.113 NA 
HETATM   15  S   UNL     1      -6.624  13.726  68.991  1.00  0.00    -0.112 SA 
HETATM   16  N   UNL     1      -7.303  12.258  68.590  1.00  0.00    -0.108 NA 
HETATM   17  C   UNL     1      -8.416  12.538  67.900  1.00  0.00    -0.171 A  
BRANCH  17  18
HETATM   18  N   UNL     1      -9.232  11.583  67.361  1.00  0.00    -0.164 NA 
HETATM   19  C   UNL     1      -9.498  11.469  65.925  1.00  0.00    -0.230 C  
HETATM   20  C   UNL     1      -9.511   9.977  65.553  1.00  0.00    -0.237 C  
HETATM   21  O   UNL     1     -10.483   9.253  66.331  1.00  0.00    -0.208 OA 
HETATM   22  C   UNL     1     -10.211   9.387  67.739  1.00  0.00    -0.222 C  
HETATM   23  C   UNL     1     -10.210  10.862  68.184  1.00  0.00    -0.176 C  
ENDBRANCH  17  18
ENDBRANCH  12  13
ENDBRANCH  11  12
ENDBRANCH   1  11
TORSDOF 6
ENDMDL
MODEL      112
REMARK 921   NORMALIZED FREE ENERGY PREDICTED BY IDOCK:   -4.45 KCAL/MOL
REMARK 922        TOTAL FREE ENERGY PREDICTED BY IDOCK:   -6.80 KCAL/MOL
REMARK 923 INTER-LIGAND FREE ENERGY PREDICTED BY IDOCK:   -5.67 KCAL/MOL
REMARK 924 INTRA-LIGAND FREE ENERGY PREDICTED BY IDOCK:   -1.13 KCAL/MOL
REMARK 927      BINDING AFFINITY PREDICTED BY RF-SCORE:    0.00 PKD
ROOT
HETATM    1  C   UNL     1      -9.874   8.037  66.849  1.00  0.00    -0.248 C  
HETATM    2  H   UNL     1      -8.728   8.731  65.427  1.00  0.00     0.000 HD 
HETATM    3  O   UNL     1      -8.588   8.315  66.269  1.00  0.00    -0.123 OA 
ENDROOT
BRANCH   1   4
HETATM    4  C   UNL     1      -9.647   7.360  68.218  1.00  0.00    -0.150 C  
BRANCH   4   5
HETATM    5  N   UNL     1     -10.850   7.334  69.056  1.00  0.00    -0.382 NA 
HETATM    6  C   UNL     1     -12.071   6.755  71.064  1.00  0.00    -0.426 C  
HETATM    7  C   UNL     1      -9.710   7.527  71.268  1.00  0.00    -0.173 C  
HETATM    8  C   UNL     1     -10.685   6.723  70.390  1.00  0.00    -0.241 C  
HETATM    9  H   UNL     1     -11.613   6.878  68.555  1.00  0.00     0.000 HD 
HETATM   10  C   UNL     1     -10.228   5.257  70.298  1.00  0.00    -0.345 C  
ENDBRANCH   4   5
ENDBRANCH   1   4
BRANCH   1  11
HETATM   11  C   UNL     1     -10.693   9.332  66.925  1.00  0.00    -0.094 C  
BRANCH  11  12
HETATM   12  O   UNL     1     -10.007  10.248  67.785  1.00  0.00    -0.165 OA 
BRANCH  12  13
HETATM   13  C   UNL     1     -10.803  10.949  68.638  1.00  0.00    -0.217 A  
HETATM   14  N   UNL     1     -11.092  10.443  69.838  1.00  0.00    -0.284 NA 
HETATM   15  S   UNL     1     -12.152  11.550  70.501  1.00  0.00    -0.331 SA 
HETATM   16  N   UNL     1     -12.259  12.657  69.261  1.00  0.00    -0.132 NA 
HETATM   17  C   UNL     1     -11.437  12.221  68.299  1.00  0.00    -0.315 A  
BRANCH  17  18
HETATM   18  N   UNL     1     -11.281  12.848  67.095  1.00  0.00    -0.276 NA 
HETATM   19  C   UNL     1     -12.108  12.556  65.922  1.00  0.00    -0.352 C  
HETATM   20  C   UNL     1     -12.428  13.883  65.214  1.00  0.00    -0.478 C  
HETATM   21  O   UNL     1     -11.224  14.584  64.850  1.00  0.00    -0.354 OA 
HETATM   22  C   UNL     1     -10.419  14.852  66.014  1.00  0.00    -0.316 C  
HETATM   23  C   UNL     1     -10.041  13.557  66.759  1.00  0.00    -0.268 C  
ENDBRANCH  17  18
ENDBRANCH  12  13
ENDBRANCH  11  12
ENDBRANCH   1  11
TORSDOF 6
ENDMDL
MODEL      113
REMARK 921   NORMALIZED FREE ENERGY PREDICTED BY IDOCK:   -4.45 KCAL/MOL
REMARK 922        TOTAL FREE ENERGY PREDICTED BY IDOCK:   -6.80 KCAL/MOL
REMARK 923 INTER-LIGAND FREE ENERGY PREDICTED BY IDOCK:   -6.29 KCAL/MOL
REMARK 924 INTRA-LIGAND FREE ENERGY PREDICTED BY IDOCK:   -0.51 KCAL/MOL
REMARK 927      BINDING AFFINITY PREDICTED BY RF-SCORE:    0.00 PKD
ROOT
HETATM    1  C   UNL     1     -11.059  14.607  67.716  1.00  0.00    -0.298 C  
HETATM    2  H   UNL     1      -9.702  13.955  66.470  1.00  0.00     0.000 HD 
HETATM    3  O   UNL     1      -9.793  13.996  67.414  1.00  0.00    -0.233 OA 
ENDROOT
BRANCH   1   4
HETATM    4  C   UNL     1     -11.208  14.673  69.251  1.00  0.00    -0.282 C  
BRANCH   4   5
HETATM    5  N   UNL     1     -12.534  15.122  69.684  1.00  0.00    -0.581 NA 
HETATM    6  C   UNL     1     -14.328  15.317  71.299  1.00  0.00    -0.488 C  
HETATM    7  C   UNL     1     -11.971  15.534  72.081  1.00  0.00    -0.534 C  
HETATM    8  C   UNL     1     -12.888  14.806  71.083  1.00  0.00    -0.341 C  
HETATM    9  H   UNL     1     -13.248  14.758  69.053  1.00  0.00     0.000 HD 
HETATM   10  C   UNL     1     -12.869  13.292  71.353  1.00  0.00    -0.411 C  
ENDBRANCH   4   5
ENDBRANCH   1   4
BRANCH   1  11
HETATM   11  C   UNL     1     -11.145  15.974  67.025  1.00  0.00    -0.071 C  
BRANCH  11  12
HETATM   12  O   UNL     1      -9.829  16.534  66.971  1.00  0.00    -0.245 OA 
BRANCH  12  13
HETATM   13  C   UNL     1      -9.745  17.849  67.313  1.00  0.00    -0.289 A  
HETATM   14  N   UNL     1     -10.780  18.659  67.083  1.00  0.00    -0.413 NA 
HETATM   15  S   UNL     1     -10.227  20.166  67.546  1.00  0.00    -0.342 SA 
HETATM   16  N   UNL     1      -8.673  19.794  68.017  1.00  0.00    -0.314 NA 
HETATM   17  C   UNL     1      -8.545  18.469  67.868  1.00  0.00    -0.287 A  
BRANCH  17  18
HETATM   18  N   UNL     1      -7.386  17.789  68.119  1.00  0.00    -0.230 NA 
HETATM   19  C   UNL     1      -6.524  18.064  69.270  1.00  0.00    -0.246 C  
HETATM   20  C   UNL     1      -6.021  16.722  69.829  1.00  0.00    -0.226 C  
HETATM   21  O   UNL     1      -5.330  15.963  68.819  1.00  0.00    -0.101 OA 
HETATM   22  C   UNL     1      -6.189  15.713  67.691  1.00  0.00    -0.154 C  
HETATM   23  C   UNL     1      -6.709  17.022  67.066  1.00  0.00    -0.203 C  
ENDBRANCH  17  18
ENDBRANCH  12  13
ENDBRANCH  11  12
ENDBRANCH   1  11
TORSDOF 6
ENDMDL
MODEL      114
REMARK 921   NORMALIZED FREE ENERGY PREDICTED BY IDOCK:   -4.45 KCAL/MOL
REMARK 922        TOTAL FREE ENERGY PREDICTED BY IDOCK:   -6.79 KCAL/MOL
REMARK 923 INTER-LIGAND FREE ENERGY PREDICTED BY IDOCK:   -6.38 KCAL/MOL
REMARK 924 INTRA-LIGAND FREE ENERGY PREDICTED BY IDOCK:   -0.41 KCAL/MOL
REMARK 927      BINDING AFFINITY PREDICTED BY RF-SCORE:    0.00 PKD
ROOT
HETATM    1  C   UNL     1      -9.662   8.046  67.888  1.00  0.00    -0.160 C  
HETATM    2  H   UNL     1      -7.958   8.980  67.671  1.00  0.00     0.000 HD 
HETATM    3  O   UNL     1      -8.511   8.738  68.404  1.00  0.00    -0.128 OA 
ENDROOT
BRANCH   1   4
HETATM    4  C   UNL     1     -10.561   7.653  69.080  1.00  0.00    -0.174 C  
BRANCH   4   5
HETATM    5  N   UNL     1     -11.304   8.785  69.641  1.00  0.00    -0.434 NA 
HETATM    6  C   UNL     1     -12.469   9.932  71.426  1.00  0.00    -0.495 C  
HETATM    7  C   UNL     1     -10.403   8.646  71.964  1.00  0.00    -0.416 C  
HETATM    8  C   UNL     1     -11.655   8.671  71.071  1.00  0.00    -0.281 C  
HETATM    9  H   UNL     1     -12.144   8.959  69.088  1.00  0.00     0.000 HD 
HETATM   10  C   UNL     1     -12.531   7.438  71.352  1.00  0.00    -0.402 C  
ENDBRANCH   4   5
ENDBRANCH   1   4
BRANCH   1  11
HETATM   11  C   UNL     1     -10.363   8.927  66.846  1.00  0.00    -0.262 C  
BRANCH  11  12
HETATM   12  O   UNL     1      -9.401   9.841  66.308  1.00  0.00    -0.161 OA 
BRANCH  12  13
HETATM   13  C   UNL     1      -9.188   9.736  64.968  1.00  0.00    -0.249 A  
HETATM   14  N   UNL     1      -8.372   8.789  64.502  1.00  0.00    -0.168 NA 
HETATM   15  S   UNL     1      -8.314   9.075  62.857  1.00  0.00    -0.197 SA 
HETATM   16  N   UNL     1      -9.307  10.409  62.741  1.00  0.00    -0.293 NA 
HETATM   17  C   UNL     1      -9.752  10.652  63.980  1.00  0.00    -0.315 A  
BRANCH  17  18
HETATM   18  N   UNL     1     -10.567  11.702  64.299  1.00  0.00    -0.313 NA 
HETATM   19  C   UNL     1     -10.301  12.620  65.409  1.00  0.00    -0.291 C  
HETATM   20  C   UNL     1     -10.651  14.045  64.951  1.00  0.00    -0.424 C  
HETATM   21  O   UNL     1     -12.019  14.131  64.509  1.00  0.00    -0.413 OA 
HETATM   22  C   UNL     1     -12.264  13.213  63.426  1.00  0.00    -0.444 C  
HETATM   23  C   UNL     1     -11.956  11.758  63.829  1.00  0.00    -0.363 C  
ENDBRANCH  17  18
ENDBRANCH  12  13
ENDBRANCH  11  12
ENDBRANCH   1  11
TORSDOF 6
ENDMDL
MODEL      115
REMARK 921   NORMALIZED FREE ENERGY PREDICTED BY IDOCK:   -4.43 KCAL/MOL
REMARK 922        TOTAL FREE ENERGY PREDICTED BY IDOCK:   -6.78 KCAL/MOL
REMARK 923 INTER-LIGAND FREE ENERGY PREDICTED BY IDOCK:   -6.19 KCAL/MOL
REMARK 924 INTRA-LIGAND FREE ENERGY PREDICTED BY IDOCK:   -0.59 KCAL/MOL
REMARK 927      BINDING AFFINITY PREDICTED BY RF-SCORE:    0.00 PKD
ROOT
HETATM    1  C   UNL     1      -7.613  15.037  67.557  1.00  0.00    -0.192 C  
HETATM    2  H   UNL     1      -5.669  14.834  67.508  1.00  0.00     0.000 HD 
HETATM    3  O   UNL     1      -6.311  15.344  67.029  1.00  0.00    -0.267 OA 
ENDROOT
BRANCH   1   4
HETATM    4  C   UNL     1      -8.655  15.867  66.778  1.00  0.00    -0.266 C  
BRANCH   4   5
HETATM    5  N   UNL     1      -8.235  17.252  66.546  1.00  0.00    -0.254 NA 
HETATM    6  C   UNL     1      -8.617  19.641  66.471  1.00  0.00    -0.387 C  
HETATM    7  C   UNL     1      -9.626  18.315  68.325  1.00  0.00    -0.332 C  
HETATM    8  C   UNL     1      -9.253  18.283  66.833  1.00  0.00    -0.282 C  
HETATM    9  H   UNL     1      -7.892  17.356  65.592  1.00  0.00     0.000 HD 
HETATM   10  C   UNL     1     -10.516  18.099  65.975  1.00  0.00    -0.346 C  
ENDBRANCH   4   5
ENDBRANCH   1   4
BRANCH   1  11
HETATM   11  C   UNL     1      -7.848  13.523  67.489  1.00  0.00    -0.178 C  
BRANCH  11  12
HETATM   12  O   UNL     1      -9.026  13.216  68.241  1.00  0.00    -0.191 OA 
BRANCH  12  13
HETATM   13  C   UNL     1      -9.492  11.945  68.097  1.00  0.00    -0.195 A  
HETATM   14  N   UNL     1      -9.041  10.981  68.901  1.00  0.00    -0.158 NA 
HETATM   15  S   UNL     1      -9.775   9.595  68.326  1.00  0.00    -0.149 SA 
HETATM   16  N   UNL     1     -10.647  10.214  67.048  1.00  0.00    -0.242 NA 
HETATM   17  C   UNL     1     -10.426  11.535  67.051  1.00  0.00    -0.228 A  
BRANCH  17  18
HETATM   18  N   UNL     1     -10.944  12.391  66.120  1.00  0.00    -0.275 NA 
HETATM   19  C   UNL     1     -10.498  12.428  64.725  1.00  0.00    -0.304 C  
HETATM   20  C   UNL     1     -11.733  12.615  63.828  1.00  0.00    -0.491 C  
HETATM   21  O   UNL     1     -12.460  13.806  64.183  1.00  0.00    -0.652 OA 
HETATM   22  C   UNL     1     -12.880  13.756  65.560  1.00  0.00    -0.419 C  
HETATM   23  C   UNL     1     -11.684  13.594  66.517  1.00  0.00    -0.382 C  
ENDBRANCH  17  18
ENDBRANCH  12  13
ENDBRANCH  11  12
ENDBRANCH   1  11
TORSDOF 6
ENDMDL
MODEL      116
REMARK 921   NORMALIZED FREE ENERGY PREDICTED BY IDOCK:   -4.43 KCAL/MOL
REMARK 922        TOTAL FREE ENERGY PREDICTED BY IDOCK:   -6.77 KCAL/MOL
REMARK 923 INTER-LIGAND FREE ENERGY PREDICTED BY IDOCK:   -6.18 KCAL/MOL
REMARK 924 INTRA-LIGAND FREE ENERGY PREDICTED BY IDOCK:   -0.59 KCAL/MOL
REMARK 927      BINDING AFFINITY PREDICTED BY RF-SCORE:    0.00 PKD
ROOT
HETATM    1  C   UNL     1     -11.898  12.290  68.457  1.00  0.00    -0.307 C  
HETATM    2  H   UNL     1     -11.553  12.708  70.334  1.00  0.00     0.000 HD 
HETATM    3  O   UNL     1     -11.275  13.062  69.498  1.00  0.00    -0.187 OA 
ENDROOT
BRANCH   1   4
HETATM    4  C   UNL     1     -11.447  12.866  67.097  1.00  0.00    -0.336 C  
BRANCH   4   5
HETATM    5  N   UNL     1     -12.131  12.254  65.955  1.00  0.00    -0.620 NA 
HETATM    6  C   UNL     1     -12.635  12.047  63.596  1.00  0.00    -0.605 C  
HETATM    7  C   UNL     1     -10.288  12.519  64.292  1.00  0.00    -0.396 C  
HETATM    8  C   UNL     1     -11.764  12.791  64.629  1.00  0.00    -0.355 C  
HETATM    9  H   UNL     1     -13.141  12.305  66.085  1.00  0.00     0.000 HD 
HETATM   10  C   UNL     1     -12.064  14.296  64.516  1.00  0.00    -0.499 C  
ENDBRANCH   4   5
ENDBRANCH   1   4
BRANCH   1  11
HETATM   11  C   UNL     1     -11.558  10.807  68.646  1.00  0.00    -0.272 C  
BRANCH  11  12
HETATM   12  O   UNL     1     -11.139  10.610  70.000  1.00  0.00    -0.281 OA 
BRANCH  12  13
HETATM   13  C   UNL     1     -11.726   9.564  70.643  1.00  0.00    -0.262 A  
HETATM   14  N   UNL     1     -12.793   9.778  71.414  1.00  0.00    -0.365 NA 
HETATM   15  S   UNL     1     -13.124   8.282  72.077  1.00  0.00    -0.305 SA 
HETATM   16  N   UNL     1     -11.904   7.369  71.402  1.00  0.00    -0.287 NA 
HETATM   17  C   UNL     1     -11.219   8.195  70.601  1.00  0.00    -0.260 A  
BRANCH  17  18
HETATM   18  N   UNL     1     -10.110   7.818  69.897  1.00  0.00    -0.199 NA 
HETATM   19  C   UNL     1      -8.748   8.207  70.272  1.00  0.00    -0.133 C  
HETATM   20  C   UNL     1      -7.823   6.998  70.052  1.00  0.00    -0.113 C  
HETATM   21  O   UNL     1      -7.885   6.534  68.690  1.00  0.00    -0.106 OA 
HETATM   22  C   UNL     1      -9.233   6.169  68.337  1.00  0.00    -0.111 C  
HETATM   23  C   UNL     1     -10.210   7.347  68.511  1.00  0.00    -0.183 C  
ENDBRANCH  17  18
ENDBRANCH  12  13
ENDBRANCH  11  12
ENDBRANCH   1  11
TORSDOF 6
ENDMDL
MODEL      117
REMARK 921   NORMALIZED FREE ENERGY PREDICTED BY IDOCK:   -4.41 KCAL/MOL
REMARK 922        TOTAL FREE ENERGY PREDICTED BY IDOCK:   -6.74 KCAL/MOL
REMARK 923 INTER-LIGAND FREE ENERGY PREDICTED BY IDOCK:   -5.66 KCAL/MOL
REMARK 924 INTRA-LIGAND FREE ENERGY PREDICTED BY IDOCK:   -1.08 KCAL/MOL
REMARK 927      BINDING AFFINITY PREDICTED BY RF-SCORE:    0.00 PKD
ROOT
HETATM    1  C   UNL     1      -8.106  15.251  68.295  1.00  0.00    -0.137 C  
HETATM    2  H   UNL     1      -6.279  14.704  67.868  1.00  0.00     0.000 HD 
HETATM    3  O   UNL     1      -6.738  15.531  67.952  1.00  0.00    -0.127 OA 
ENDROOT
BRANCH   1   4
HETATM    4  C   UNL     1      -8.853  16.595  68.431  1.00  0.00    -0.226 C  
BRANCH   4   5
HETATM    5  N   UNL     1      -9.591  16.971  67.222  1.00  0.00    -0.240 NA 
HETATM    6  C   UNL     1     -10.482  18.581  65.648  1.00  0.00    -0.132 C  
HETATM    7  C   UNL     1      -8.209  18.955  66.602  1.00  0.00    -0.295 C  
HETATM    8  C   UNL     1      -9.615  18.416  66.914  1.00  0.00    -0.303 C  
HETATM    9  H   UNL     1     -10.543  16.608  67.268  1.00  0.00     0.000 HD 
HETATM   10  C   UNL     1     -10.257  19.235  68.046  1.00  0.00    -0.507 C  
ENDBRANCH   4   5
ENDBRANCH   1   4
BRANCH   1  11
HETATM   11  C   UNL     1      -8.713  14.308  67.247  1.00  0.00    -0.218 C  
BRANCH  11  12
HETATM   12  O   UNL     1      -9.900  13.728  67.797  1.00  0.00    -0.223 OA 
BRANCH  12  13
HETATM   13  C   UNL     1     -10.914  13.533  66.910  1.00  0.00    -0.288 A  
HETATM   14  N   UNL     1     -11.756  14.531  66.640  1.00  0.00    -0.380 NA 
HETATM   15  S   UNL     1     -12.879  13.848  65.609  1.00  0.00    -0.283 SA 
HETATM   16  N   UNL     1     -12.308  12.285  65.523  1.00  0.00    -0.566 NA 
HETATM   17  C   UNL     1     -11.194  12.252  66.265  1.00  0.00    -0.323 A  
BRANCH  17  18
HETATM   18  N   UNL     1     -10.456  11.121  66.472  1.00  0.00    -0.247 NA 
HETATM   19  C   UNL     1     -10.556  10.305  67.684  1.00  0.00    -0.263 C  
HETATM   20  C   UNL     1     -10.496   8.824  67.276  1.00  0.00    -0.283 C  
HETATM   21  O   UNL     1      -9.292   8.534  66.541  1.00  0.00    -0.172 OA 
HETATM   22  C   UNL     1      -9.206   9.354  65.360  1.00  0.00    -0.244 C  
HETATM   23  C   UNL     1      -9.235  10.855  65.702  1.00  0.00    -0.203 C  
ENDBRANCH  17  18
ENDBRANCH  12  13
ENDBRANCH  11  12
ENDBRANCH   1  11
TORSDOF 6
ENDMDL
MODEL      118
REMARK 921   NORMALIZED FREE ENERGY PREDICTED BY IDOCK:   -4.41 KCAL/MOL
REMARK 922        TOTAL FREE ENERGY PREDICTED BY IDOCK:   -6.74 KCAL/MOL
REMARK 923 INTER-LIGAND FREE ENERGY PREDICTED BY IDOCK:   -5.91 KCAL/MOL
REMARK 924 INTRA-LIGAND FREE ENERGY PREDICTED BY IDOCK:   -0.83 KCAL/MOL
REMARK 927      BINDING AFFINITY PREDICTED BY RF-SCORE:    0.00 PKD
ROOT
HETATM    1  C   UNL     1     -10.493  16.707  66.578  1.00  0.00    -0.262 C  
HETATM    2  H   UNL     1      -9.287  17.632  65.349  1.00  0.00     0.000 HD 
HETATM    3  O   UNL     1      -9.329  16.765  65.735  1.00  0.00    -0.515 OA 
ENDROOT
BRANCH   1   4
HETATM    4  C   UNL     1     -10.561  15.298  67.206  1.00  0.00    -0.290 C  
BRANCH   4   5
HETATM    5  N   UNL     1     -10.322  14.223  66.240  1.00  0.00    -0.286 NA 
HETATM    6  C   UNL     1     -10.930  12.186  65.080  1.00  0.00    -0.355 C  
HETATM    7  C   UNL     1     -12.692  13.891  65.530  1.00  0.00    -0.536 C  
HETATM    8  C   UNL     1     -11.417  13.242  66.094  1.00  0.00    -0.328 C  
HETATM    9  H   UNL     1      -9.450  13.742  66.462  1.00  0.00     0.000 HD 
HETATM   10  C   UNL     1     -11.728  12.527  67.420  1.00  0.00    -0.432 C  
ENDBRANCH   4   5
ENDBRANCH   1   4
BRANCH   1  11
HETATM   11  C   UNL     1     -10.436  17.843  67.607  1.00  0.00    -0.397 C  
BRANCH  11  12
HETATM   12  O   UNL     1      -9.368  17.572  68.519  1.00  0.00    -0.273 OA 
BRANCH  12  13
HETATM   13  C   UNL     1      -8.298  18.409  68.424  1.00  0.00    -0.308 A  
HETATM   14  N   UNL     1      -8.495  19.713  68.223  1.00  0.00    -0.329 NA 
HETATM   15  S   UNL     1      -6.955  20.338  68.068  1.00  0.00    -0.274 SA 
HETATM   16  N   UNL     1      -6.041  18.955  68.237  1.00  0.00    -0.209 NA 
HETATM   17  C   UNL     1      -6.908  17.960  68.462  1.00  0.00    -0.236 A  
BRANCH  17  18
HETATM   18  N   UNL     1      -6.538  16.653  68.614  1.00  0.00    -0.152 NA 
HETATM   19  C   UNL     1      -5.768  16.163  69.760  1.00  0.00    -0.155 C  
HETATM   20  C   UNL     1      -6.339  14.798  70.177  1.00  0.00    -0.169 C  
HETATM   21  O   UNL     1      -6.312  13.863  69.082  1.00  0.00    -0.095 OA 
HETATM   22  C   UNL     1      -7.063  14.368  67.962  1.00  0.00    -0.138 C  
HETATM   23  C   UNL     1      -6.524  15.727  67.476  1.00  0.00    -0.173 C  
ENDBRANCH  17  18
ENDBRANCH  12  13
ENDBRANCH  11  12
ENDBRANCH   1  11
TORSDOF 6
ENDMDL
MODEL      119
REMARK 921   NORMALIZED FREE ENERGY PREDICTED BY IDOCK:   -4.39 KCAL/MOL
REMARK 922        TOTAL FREE ENERGY PREDICTED BY IDOCK:   -6.71 KCAL/MOL
REMARK 923 INTER-LIGAND FREE ENERGY PREDICTED BY IDOCK:   -5.91 KCAL/MOL
REMARK 924 INTRA-LIGAND FREE ENERGY PREDICTED BY IDOCK:   -0.80 KCAL/MOL
REMARK 927      BINDING AFFINITY PREDICTED BY RF-SCORE:    0.00 PKD
ROOT
HETATM    1  C   UNL     1      -7.937  13.258  67.575  1.00  0.00    -0.184 C  
HETATM    2  H   UNL     1      -6.711  12.718  68.998  1.00  0.00     0.000 HD 
HETATM    3  O   UNL     1      -7.555  12.420  68.680  1.00  0.00    -0.116 OA 
ENDROOT
BRANCH   1   4
HETATM    4  C   UNL     1      -9.309  12.774  67.057  1.00  0.00    -0.229 C  
BRANCH   4   5
HETATM    5  N   UNL     1      -9.439  12.861  65.600  1.00  0.00    -0.467 NA 
HETATM    6  C   UNL     1     -10.468  12.286  63.485  1.00  0.00    -0.459 C  
HETATM    7  C   UNL     1     -11.922  12.630  65.482  1.00  0.00    -0.509 C  
HETATM    8  C   UNL     1     -10.557  12.094  65.013  1.00  0.00    -0.291 C  
HETATM    9  H   UNL     1      -8.561  12.592  65.155  1.00  0.00     0.000 HD 
HETATM   10  C   UNL     1     -10.446  10.591  65.317  1.00  0.00    -0.232 C  
ENDBRANCH   4   5
ENDBRANCH   1   4
BRANCH   1  11
HETATM   11  C   UNL     1      -7.924  14.727  68.018  1.00  0.00    -0.136 C  
BRANCH  11  12
HETATM   12  O   UNL     1      -8.883  15.442  67.233  1.00  0.00    -0.177 OA 
BRANCH  12  13
HETATM   13  C   UNL     1      -9.140  16.713  67.649  1.00  0.00    -0.207 A  
HETATM   14  N   UNL     1      -8.368  17.715  67.227  1.00  0.00    -0.212 NA 
HETATM   15  S   UNL     1      -8.955  19.051  68.039  1.00  0.00    -0.319 SA 
HETATM   16  N   UNL     1     -10.174  18.355  68.938  1.00  0.00    -0.344 NA 
HETATM   17  C   UNL     1     -10.191  17.059  68.604  1.00  0.00    -0.321 A  
BRANCH  17  18
HETATM   18  N   UNL     1     -11.036  16.143  69.166  1.00  0.00    -0.287 NA 
HETATM   19  C   UNL     1     -11.886  15.245  68.381  1.00  0.00    -0.260 C  
HETATM   20  C   UNL     1     -11.877  13.862  69.052  1.00  0.00    -0.358 C  
HETATM   21  O   UNL     1     -12.314  13.943  70.421  1.00  0.00    -0.332 OA 
HETATM   22  C   UNL     1     -11.473  14.839  71.173  1.00  0.00    -0.212 C  
HETATM   23  C   UNL     1     -11.459  16.255  70.566  1.00  0.00    -0.262 C  
ENDBRANCH  17  18
ENDBRANCH  12  13
ENDBRANCH  11  12
ENDBRANCH   1  11
TORSDOF 6
ENDMDL
MODEL      120
REMARK 921   NORMALIZED FREE ENERGY PREDICTED BY IDOCK:   -4.37 KCAL/MOL
REMARK 922        TOTAL FREE ENERGY PREDICTED BY IDOCK:   -6.69 KCAL/MOL
REMARK 923 INTER-LIGAND FREE ENERGY PREDICTED BY IDOCK:   -6.11 KCAL/MOL
REMARK 924 INTRA-LIGAND FREE ENERGY PREDICTED BY IDOCK:   -0.58 KCAL/MOL
REMARK 927      BINDING AFFINITY PREDICTED BY RF-SCORE:    0.00 PKD
ROOT
HETATM    1  C   UNL     1      -8.637   9.650  67.201  1.00  0.00    -0.132 C  
HETATM    2  H   UNL     1      -8.212  11.289  68.177  1.00  0.00     0.000 HD 
HETATM    3  O   UNL     1      -8.208  10.361  68.376  1.00  0.00    -0.106 OA 
ENDROOT
BRANCH   1   4
HETATM    4  C   UNL     1      -8.631   8.140  67.525  1.00  0.00    -0.129 C  
BRANCH   4   5
HETATM    5  N   UNL     1      -9.552   7.778  68.606  1.00  0.00    -0.152 NA 
HETATM    6  C   UNL     1     -11.203   6.347  69.649  1.00  0.00    -0.483 C  
HETATM    7  C   UNL     1      -9.289   5.301  68.440  1.00  0.00    -0.146 C  
HETATM    8  C   UNL     1     -10.262   6.494  68.436  1.00  0.00    -0.172 C  
HETATM    9  H   UNL     1     -10.224   8.530  68.758  1.00  0.00     0.000 HD 
HETATM   10  C   UNL     1     -11.117   6.475  67.158  1.00  0.00    -0.434 C  
ENDBRANCH   4   5
ENDBRANCH   1   4
BRANCH   1  11
HETATM   11  C   UNL     1     -10.003  10.183  66.751  1.00  0.00    -0.211 C  
BRANCH  11  12
HETATM   12  O   UNL     1      -9.791  11.376  65.989  1.00  0.00    -0.207 OA 
BRANCH  12  13
HETATM   13  C   UNL     1     -10.890  11.853  65.342  1.00  0.00    -0.294 A  
HETATM   14  N   UNL     1     -11.208  11.373  64.139  1.00  0.00    -0.313 NA 
HETATM   15  S   UNL     1     -12.528  12.283  63.673  1.00  0.00    -0.491 SA 
HETATM   16  N   UNL     1     -12.683  13.297  64.987  1.00  0.00    -0.686 NA 
HETATM   17  C   UNL     1     -11.732  12.931  65.855  1.00  0.00    -0.399 A  
BRANCH  17  18
HETATM   18  N   UNL     1     -11.513  13.561  67.048  1.00  0.00    -0.324 NA 
HETATM   19  C   UNL     1     -10.703  14.774  67.181  1.00  0.00    -0.299 C  
HETATM   20  C   UNL     1     -11.397  15.711  68.184  1.00  0.00    -0.340 C  
HETATM   21  O   UNL     1     -11.592  15.063  69.455  1.00  0.00    -0.279 OA 
HETATM   22  C   UNL     1     -12.380  13.866  69.302  1.00  0.00    -0.161 C  
HETATM   23  C   UNL     1     -11.725  12.871  68.325  1.00  0.00    -0.350 C  
ENDBRANCH  17  18
ENDBRANCH  12  13
ENDBRANCH  11  12
ENDBRANCH   1  11
TORSDOF 6
ENDMDL
MODEL      121
REMARK 921   NORMALIZED FREE ENERGY PREDICTED BY IDOCK:   -4.34 KCAL/MOL
REMARK 922        TOTAL FREE ENERGY PREDICTED BY IDOCK:   -6.65 KCAL/MOL
REMARK 923 INTER-LIGAND FREE ENERGY PREDICTED BY IDOCK:   -6.23 KCAL/MOL
REMARK 924 INTRA-LIGAND FREE ENERGY PREDICTED BY IDOCK:   -0.42 KCAL/MOL
REMARK 927      BINDING AFFINITY PREDICTED BY RF-SCORE:    0.00 PKD
ROOT
HETATM    1  C   UNL     1     -10.588  15.260  67.563  1.00  0.00    -0.273 C  
HETATM    2  H   UNL     1      -9.939  17.102  67.503  1.00  0.00     0.000 HD 
HETATM    3  O   UNL     1      -9.562  16.245  67.346  1.00  0.00    -0.227 OA 
ENDROOT
BRANCH   1   4
HETATM    4  C   UNL     1      -9.975  13.865  67.309  1.00  0.00    -0.242 C  
BRANCH   4   5
HETATM    5  N   UNL     1      -9.110  13.407  68.400  1.00  0.00    -0.286 NA 
HETATM    6  C   UNL     1      -7.030  12.547  69.291  1.00  0.00     0.032 C  
HETATM    7  C   UNL     1      -6.952  14.262  67.483  1.00  0.00    -0.177 C  
HETATM    8  C   UNL     1      -7.732  13.046  68.011  1.00  0.00    -0.145 C  
HETATM    9  H   UNL     1      -9.551  12.628  68.890  1.00  0.00     0.000 HD 
HETATM   10  C   UNL     1      -7.706  11.909  66.975  1.00  0.00    -0.146 C  
ENDBRANCH   4   5
ENDBRANCH   1   4
BRANCH   1  11
HETATM   11  C   UNL     1     -11.175  15.433  68.969  1.00  0.00    -0.291 C  
BRANCH  11  12
HETATM   12  O   UNL     1     -11.858  14.226  69.323  1.00  0.00    -0.291 OA 
BRANCH  12  13
HETATM   13  C   UNL     1     -12.573  14.283  70.480  1.00  0.00    -0.353 A  
HETATM   14  N   UNL     1     -12.933  15.468  70.976  1.00  0.00    -0.483 NA 
HETATM   15  S   UNL     1     -13.684  15.094  72.420  1.00  0.00    -0.529 SA 
HETATM   16  N   UNL     1     -13.535  13.434  72.425  1.00  0.00    -0.577 NA 
HETATM   17  C   UNL     1     -12.928  13.111  71.276  1.00  0.00    -0.254 A  
BRANCH  17  18
HETATM   18  N   UNL     1     -12.594  11.831  70.931  1.00  0.00    -0.333 NA 
HETATM   19  C   UNL     1     -12.068  11.464  69.614  1.00  0.00    -0.305 C  
HETATM   20  C   UNL     1     -10.952  10.424  69.812  1.00  0.00    -0.293 C  
HETATM   21  O   UNL     1     -11.434   9.272  70.530  1.00  0.00    -0.265 OA 
HETATM   22  C   UNL     1     -11.958   9.655  71.816  1.00  0.00    -0.347 C  
HETATM   23  C   UNL     1     -13.100  10.680  71.687  1.00  0.00    -0.450 C  
ENDBRANCH  17  18
ENDBRANCH  12  13
ENDBRANCH  11  12
ENDBRANCH   1  11
TORSDOF 6
ENDMDL
MODEL      122
REMARK 921   NORMALIZED FREE ENERGY PREDICTED BY IDOCK:   -4.34 KCAL/MOL
REMARK 922        TOTAL FREE ENERGY PREDICTED BY IDOCK:   -6.65 KCAL/MOL
REMARK 923 INTER-LIGAND FREE ENERGY PREDICTED BY IDOCK:   -6.01 KCAL/MOL
REMARK 924 INTRA-LIGAND FREE ENERGY PREDICTED BY IDOCK:   -0.64 KCAL/MOL
REMARK 927      BINDING AFFINITY PREDICTED BY RF-SCORE:    0.00 PKD
ROOT
HETATM    1  C   UNL     1      -9.344  10.979  68.154  1.00  0.00    -0.173 C  
HETATM    2  H   UNL     1     -10.051  12.801  68.175  1.00  0.00     0.000 HD 
HETATM    3  O   UNL     1     -10.197  12.011  68.680  1.00  0.00    -0.214 OA 
ENDROOT
BRANCH   1   4
HETATM    4  C   UNL     1      -9.582   9.694  68.974  1.00  0.00    -0.168 C  
BRANCH   4   5
HETATM    5  N   UNL     1     -10.229   8.628  68.204  1.00  0.00    -0.198 NA 
HETATM    6  C   UNL     1     -10.980   6.350  67.877  1.00  0.00    -0.416 C  
HETATM    7  C   UNL     1     -11.217   7.387  70.131  1.00  0.00    -0.239 C  
HETATM    8  C   UNL     1     -10.323   7.318  68.881  1.00  0.00    -0.201 C  
HETATM    9  H   UNL     1      -9.767   8.521  67.301  1.00  0.00     0.000 HD 
HETATM   10  C   UNL     1      -8.938   6.762  69.251  1.00  0.00    -0.137 C  
ENDBRANCH   4   5
ENDBRANCH   1   4
BRANCH   1  11
HETATM   11  C   UNL     1      -9.609  10.814  66.651  1.00  0.00    -0.178 C  
BRANCH  11  12
HETATM   12  O   UNL     1      -9.687  12.116  66.063  1.00  0.00    -0.239 OA 
BRANCH  12  13
HETATM   13  C   UNL     1     -10.729  12.304  65.208  1.00  0.00    -0.292 A  
HETATM   14  N   UNL     1     -11.071  11.333  64.359  1.00  0.00    -0.267 NA 
HETATM   15  S   UNL     1     -12.299  12.003  63.447  1.00  0.00    -0.393 SA 
HETATM   16  N   UNL     1     -12.384  13.527  64.115  1.00  0.00    -0.634 NA 
HETATM   17  C   UNL     1     -11.481  13.552  65.103  1.00  0.00    -0.301 A  
BRANCH  17  18
HETATM   18  N   UNL     1     -11.226  14.657  65.867  1.00  0.00    -0.333 NA 
HETATM   19  C   UNL     1     -11.728  14.824  67.233  1.00  0.00    -0.347 C  
HETATM   20  C   UNL     1     -10.615  15.461  68.082  1.00  0.00    -0.263 C  
HETATM   21  O   UNL     1     -10.182  16.714  67.519  1.00  0.00    -0.274 OA 
HETATM   22  C   UNL     1      -9.704  16.531  66.173  1.00  0.00    -0.317 C  
HETATM   23  C   UNL     1     -10.783  15.918  65.261  1.00  0.00    -0.424 C  
ENDBRANCH  17  18
ENDBRANCH  12  13
ENDBRANCH  11  12
ENDBRANCH   1  11
TORSDOF 6
ENDMDL
MODEL      123
REMARK 921   NORMALIZED FREE ENERGY PREDICTED BY IDOCK:   -4.34 KCAL/MOL
REMARK 922        TOTAL FREE ENERGY PREDICTED BY IDOCK:   -6.65 KCAL/MOL
REMARK 923 INTER-LIGAND FREE ENERGY PREDICTED BY IDOCK:   -5.77 KCAL/MOL
REMARK 924 INTRA-LIGAND FREE ENERGY PREDICTED BY IDOCK:   -0.88 KCAL/MOL
REMARK 927      BINDING AFFINITY PREDICTED BY RF-SCORE:    0.00 PKD
ROOT
HETATM    1  C   UNL     1     -11.944  10.711  71.244  1.00  0.00    -0.245 C  
HETATM    2  H   UNL     1     -13.726  11.282  71.807  1.00  0.00     0.000 HD 
HETATM    3  O   UNL     1     -13.193  10.505  71.926  1.00  0.00    -0.446 OA 
ENDROOT
BRANCH   1   4
HETATM    4  C   UNL     1     -11.077   9.448  71.437  1.00  0.00    -0.380 C  
BRANCH   4   5
HETATM    5  N   UNL     1     -11.293   8.436  70.400  1.00  0.00    -0.389 NA 
HETATM    6  C   UNL     1     -11.257   6.167  69.554  1.00  0.00    -0.482 C  
HETATM    7  C   UNL     1     -11.980   6.568  71.906  1.00  0.00    -0.389 C  
HETATM    8  C   UNL     1     -11.018   7.041  70.802  1.00  0.00    -0.255 C  
HETATM    9  H   UNL     1     -10.754   8.671  69.566  1.00  0.00     0.000 HD 
HETATM   10  C   UNL     1      -9.560   6.850  71.252  1.00  0.00    -0.165 C  
ENDBRANCH   4   5
ENDBRANCH   1   4
BRANCH   1  11
HETATM   11  C   UNL     1     -12.214  11.060  69.775  1.00  0.00    -0.318 C  
BRANCH  11  12
HETATM   12  O   UNL     1     -10.960  11.109  69.086  1.00  0.00    -0.214 OA 
BRANCH  12  13
HETATM   13  C   UNL     1     -11.023  11.546  67.799  1.00  0.00    -0.236 A  
HETATM   14  N   UNL     1     -11.855  12.539  67.478  1.00  0.00    -0.450 NA 
HETATM   15  S   UNL     1     -11.695  12.685  65.822  1.00  0.00    -0.436 SA 
HETATM   16  N   UNL     1     -10.588  11.479  65.511  1.00  0.00    -0.274 NA 
HETATM   17  C   UNL     1     -10.273  10.946  66.698  1.00  0.00    -0.234 A  
BRANCH  17  18
HETATM   18  N   UNL     1      -9.416   9.892  66.851  1.00  0.00    -0.158 NA 
HETATM   19  C   UNL     1      -9.811   8.497  66.647  1.00  0.00    -0.272 C  
HETATM   20  C   UNL     1      -8.665   7.771  65.922  1.00  0.00    -0.149 C  
HETATM   21  O   UNL     1      -7.434   7.870  66.662  1.00  0.00    -0.086 OA 
HETATM   22  C   UNL     1      -7.069   9.248  66.863  1.00  0.00    -0.082 C  
HETATM   23  C   UNL     1      -8.167  10.029  67.610  1.00  0.00    -0.114 C  
ENDBRANCH  17  18
ENDBRANCH  12  13
ENDBRANCH  11  12
ENDBRANCH   1  11
TORSDOF 6
ENDMDL
MODEL      124
REMARK 921   NORMALIZED FREE ENERGY PREDICTED BY IDOCK:   -4.34 KCAL/MOL
REMARK 922        TOTAL FREE ENERGY PREDICTED BY IDOCK:   -6.64 KCAL/MOL
REMARK 923 INTER-LIGAND FREE ENERGY PREDICTED BY IDOCK:   -6.14 KCAL/MOL
REMARK 924 INTRA-LIGAND FREE ENERGY PREDICTED BY IDOCK:   -0.50 KCAL/MOL
REMARK 927      BINDING AFFINITY PREDICTED BY RF-SCORE:    0.00 PKD
ROOT
HETATM    1  C   UNL     1     -10.755   9.619  68.327  1.00  0.00    -0.217 C  
HETATM    2  H   UNL     1     -10.742   8.458  66.754  1.00  0.00     0.000 HD 
HETATM    3  O   UNL     1     -10.578   8.345  67.682  1.00  0.00    -0.243 OA 
ENDROOT
BRANCH   1   4
HETATM    4  C   UNL     1     -10.488   9.435  69.836  1.00  0.00    -0.233 C  
BRANCH   4   5
HETATM    5  N   UNL     1     -10.037   8.084  70.182  1.00  0.00    -0.192 NA 
HETATM    6  C   UNL     1     -10.154   6.028  71.455  1.00  0.00    -0.236 C  
HETATM    7  C   UNL     1     -12.274   7.129  70.742  1.00  0.00    -0.308 C  
HETATM    8  C   UNL     1     -10.834   7.391  71.215  1.00  0.00    -0.238 C  
HETATM    9  H   UNL     1      -9.054   8.103  70.455  1.00  0.00     0.000 HD 
HETATM   10  C   UNL     1     -10.845   8.163  72.546  1.00  0.00    -0.431 C  
ENDBRANCH   4   5
ENDBRANCH   1   4
BRANCH   1  11
HETATM   11  C   UNL     1      -9.849  10.660  67.658  1.00  0.00    -0.167 C  
BRANCH  11  12
HETATM   12  O   UNL     1     -10.653  11.465  66.790  1.00  0.00    -0.233 OA 
BRANCH  12  13
HETATM   13  C   UNL     1     -10.324  11.402  65.471  1.00  0.00    -0.266 A  
HETATM   14  N   UNL     1      -9.989  10.230  64.929  1.00  0.00    -0.334 NA 
HETATM   15  S   UNL     1      -9.569  10.612  63.359  1.00  0.00    -0.350 SA 
HETATM   16  N   UNL     1      -9.792  12.263  63.372  1.00  0.00    -0.347 NA 
HETATM   17  C   UNL     1     -10.243  12.569  64.596  1.00  0.00    -0.290 A  
BRANCH  17  18
HETATM   18  N   UNL     1     -10.508  13.845  65.007  1.00  0.00    -0.388 NA 
HETATM   19  C   UNL     1      -9.765  14.517  66.076  1.00  0.00    -0.303 C  
HETATM   20  C   UNL     1      -9.537  15.980  65.660  1.00  0.00    -0.191 C  
HETATM   21  O   UNL     1     -10.785  16.644  65.385  1.00  0.00    -0.473 OA 
HETATM   22  C   UNL     1     -11.506  15.963  64.341  1.00  0.00    -0.264 C  
HETATM   23  C   UNL     1     -11.790  14.493  64.706  1.00  0.00    -0.441 C  
ENDBRANCH  17  18
ENDBRANCH  12  13
ENDBRANCH  11  12
ENDBRANCH   1  11
TORSDOF 6
ENDMDL
MODEL      125
REMARK 921   NORMALIZED FREE ENERGY PREDICTED BY IDOCK:   -4.32 KCAL/MOL
REMARK 922        TOTAL FREE ENERGY PREDICTED BY IDOCK:   -6.62 KCAL/MOL
REMARK 923 INTER-LIGAND FREE ENERGY PREDICTED BY IDOCK:   -5.95 KCAL/MOL
REMARK 924 INTRA-LIGAND FREE ENERGY PREDICTED BY IDOCK:   -0.67 KCAL/MOL
REMARK 927      BINDING AFFINITY PREDICTED BY RF-SCORE:    0.00 PKD
ROOT
HETATM    1  C   UNL     1      -9.607  10.368  67.816  1.00  0.00    -0.152 C  
HETATM    2  H   UNL     1      -7.713  10.614  68.230  1.00  0.00     0.000 HD 
HETATM    3  O   UNL     1      -8.247   9.907  67.889  1.00  0.00    -0.112 OA 
ENDROOT
BRANCH   1   4
HETATM    4  C   UNL     1     -10.475   9.218  67.261  1.00  0.00    -0.264 C  
BRANCH   4   5
HETATM    5  N   UNL     1      -9.697   8.194  66.559  1.00  0.00    -0.279 NA 
HETATM    6  C   UNL     1      -8.873   5.938  66.254  1.00  0.00    -0.143 C  
HETATM    7  C   UNL     1     -11.235   6.273  66.977  1.00  0.00    -0.248 C  
HETATM    8  C   UNL     1      -9.805   6.825  67.104  1.00  0.00    -0.161 C  
HETATM    9  H   UNL     1      -8.717   8.474  66.509  1.00  0.00     0.000 HD 
HETATM   10  C   UNL     1      -9.336   6.751  68.567  1.00  0.00    -0.126 C  
ENDBRANCH   4   5
ENDBRANCH   1   4
BRANCH   1  11
HETATM   11  C   UNL     1     -10.051  10.870  69.196  1.00  0.00    -0.177 C  
BRANCH  11  12
HETATM   12  O   UNL     1     -11.431  10.535  69.374  1.00  0.00    -0.247 OA 
BRANCH  12  13
HETATM   13  C   UNL     1     -12.117  11.340  70.231  1.00  0.00    -0.373 A  
HETATM   14  N   UNL     1     -12.109  12.661  70.046  1.00  0.00    -0.304 NA 
HETATM   15  S   UNL     1     -12.966  13.260  71.348  1.00  0.00    -0.249 SA 
HETATM   16  N   UNL     1     -13.328  11.848  72.155  1.00  0.00    -0.420 NA 
HETATM   17  C   UNL     1     -12.827  10.854  71.412  1.00  0.00    -0.449 A  
BRANCH  17  18
HETATM   18  N   UNL     1     -12.890   9.536  71.769  1.00  0.00    -0.374 NA 
HETATM   19  C   UNL     1     -14.113   8.892  72.256  1.00  0.00    -0.442 C  
HETATM   20  C   UNL     1     -14.198   7.487  71.637  1.00  0.00    -0.458 C  
HETATM   21  O   UNL     1     -13.029   6.707  71.948  1.00  0.00    -0.306 OA 
HETATM   22  C   UNL     1     -11.837   7.362  71.473  1.00  0.00    -0.297 C  
HETATM   23  C   UNL     1     -11.677   8.770  72.077  1.00  0.00    -0.372 C  
ENDBRANCH  17  18
ENDBRANCH  12  13
ENDBRANCH  11  12
ENDBRANCH   1  11
TORSDOF 6
ENDMDL
MODEL      126
REMARK 921   NORMALIZED FREE ENERGY PREDICTED BY IDOCK:   -4.31 KCAL/MOL
REMARK 922        TOTAL FREE ENERGY PREDICTED BY IDOCK:   -6.61 KCAL/MOL
REMARK 923 INTER-LIGAND FREE ENERGY PREDICTED BY IDOCK:   -6.27 KCAL/MOL
REMARK 924 INTRA-LIGAND FREE ENERGY PREDICTED BY IDOCK:   -0.34 KCAL/MOL
REMARK 927      BINDING AFFINITY PREDICTED BY RF-SCORE:    0.00 PKD
ROOT
HETATM    1  C   UNL     1     -10.305  10.302  66.378  1.00  0.00    -0.195 C  
HETATM    2  H   UNL     1      -9.631  11.930  65.531  1.00  0.00     0.000 HD 
HETATM    3  O   UNL     1      -9.367  11.018  65.555  1.00  0.00    -0.202 OA 
ENDROOT
BRANCH   1   4
HETATM    4  C   UNL     1      -9.877   8.819  66.417  1.00  0.00    -0.282 C  
BRANCH   4   5
HETATM    5  N   UNL     1     -10.666   8.015  67.353  1.00  0.00    -0.489 NA 
HETATM    6  C   UNL     1     -10.944   6.232  68.968  1.00  0.00    -0.437 C  
HETATM    7  C   UNL     1      -8.862   7.602  69.028  1.00  0.00    -0.135 C  
HETATM    8  C   UNL     1      -9.916   6.981  68.095  1.00  0.00    -0.151 C  
HETATM    9  H   UNL     1     -11.457   7.591  66.868  1.00  0.00     0.000 HD 
HETATM   10  C   UNL     1      -9.254   5.963  67.151  1.00  0.00    -0.116 C  
ENDBRANCH   4   5
ENDBRANCH   1   4
BRANCH   1  11
HETATM   11  C   UNL     1     -10.379  10.963  67.761  1.00  0.00    -0.187 C  
BRANCH  11  12
HETATM   12  O   UNL     1     -11.689  11.514  67.926  1.00  0.00    -0.489 OA 
BRANCH  12  13
HETATM   13  C   UNL     1     -11.763  12.599  68.745  1.00  0.00    -0.323 A  
HETATM   14  N   UNL     1     -12.140  12.443  70.015  1.00  0.00    -0.296 NA 
HETATM   15  S   UNL     1     -12.194  14.000  70.618  1.00  0.00    -0.381 SA 
HETATM   16  N   UNL     1     -11.760  14.870  69.264  1.00  0.00    -0.299 NA 
HETATM   17  C   UNL     1     -11.517  13.969  68.304  1.00  0.00    -0.304 A  
BRANCH  17  18
HETATM   18  N   UNL     1     -11.169  14.303  67.024  1.00  0.00    -0.312 NA 
HETATM   19  C   UNL     1     -11.744  13.659  65.841  1.00  0.00    -0.354 C  
HETATM   20  C   UNL     1     -11.993  14.740  64.776  1.00  0.00    -0.404 C  
HETATM   21  O   UNL     1     -10.781  15.448  64.457  1.00  0.00    -0.280 OA 
HETATM   22  C   UNL     1     -10.225  16.064  65.635  1.00  0.00    -0.386 C  
HETATM   23  C   UNL     1      -9.927  15.029  66.736  1.00  0.00    -0.248 C  
ENDBRANCH  17  18
ENDBRANCH  12  13
ENDBRANCH  11  12
ENDBRANCH   1  11
TORSDOF 6
ENDMDL
MODEL      127
REMARK 921   NORMALIZED FREE ENERGY PREDICTED BY IDOCK:   -4.31 KCAL/MOL
REMARK 922        TOTAL FREE ENERGY PREDICTED BY IDOCK:   -6.61 KCAL/MOL
REMARK 923 INTER-LIGAND FREE ENERGY PREDICTED BY IDOCK:   -5.86 KCAL/MOL
REMARK 924 INTRA-LIGAND FREE ENERGY PREDICTED BY IDOCK:   -0.74 KCAL/MOL
REMARK 927      BINDING AFFINITY PREDICTED BY RF-SCORE:    0.00 PKD
ROOT
HETATM    1  C   UNL     1     -10.752  15.539  65.272  1.00  0.00    -0.422 C  
HETATM    2  H   UNL     1     -11.907  16.170  63.827  1.00  0.00     0.000 HD 
HETATM    3  O   UNL     1     -11.129  16.494  64.265  1.00  0.00    -0.915 OA 
ENDROOT
BRANCH   1   4
HETATM    4  C   UNL     1      -9.488  16.066  65.984  1.00  0.00    -0.349 C  
BRANCH   4   5
HETATM    5  N   UNL     1      -9.363  15.591  67.365  1.00  0.00    -0.205 NA 
HETATM    6  C   UNL     1      -8.221  15.408  69.492  1.00  0.00    -0.207 C  
HETATM    7  C   UNL     1      -8.199  17.594  68.294  1.00  0.00    -0.276 C  
HETATM    8  C   UNL     1      -8.173  16.069  68.099  1.00  0.00    -0.152 C  
HETATM    9  H   UNL     1      -9.402  14.572  67.388  1.00  0.00     0.000 HD 
HETATM   10  C   UNL     1      -6.865  15.645  67.410  1.00  0.00    -0.231 C  
ENDBRANCH   4   5
ENDBRANCH   1   4
BRANCH   1  11
HETATM   11  C   UNL     1     -11.938  15.292  66.213  1.00  0.00     0.321 C  
BRANCH  11  12
HETATM   12  O   UNL     1     -11.991  13.893  66.512  1.00  0.00    -0.392 OA 
BRANCH  12  13
HETATM   13  C   UNL     1     -11.863  13.066  65.439  1.00  0.00    -0.388 A  
HETATM   14  N   UNL     1     -12.619  13.264  64.358  1.00  0.00    -0.649 NA 
HETATM   15  S   UNL     1     -12.226  11.994  63.347  1.00  0.00    -0.418 SA 
HETATM   16  N   UNL     1     -11.114  11.184  64.287  1.00  0.00    -0.229 NA 
HETATM   17  C   UNL     1     -10.980  11.902  65.409  1.00  0.00    -0.301 A  
BRANCH  17  18
HETATM   18  N   UNL     1     -10.176  11.534  66.452  1.00  0.00    -0.217 NA 
HETATM   19  C   UNL     1     -10.661  10.795  67.620  1.00  0.00    -0.258 C  
HETATM   20  C   UNL     1      -9.602   9.747  68.003  1.00  0.00    -0.142 C  
HETATM   21  O   UNL     1      -8.327  10.364  68.258  1.00  0.00    -0.113 OA 
HETATM   22  C   UNL     1      -7.873  11.095  67.103  1.00  0.00    -0.139 C  
HETATM   23  C   UNL     1      -8.880  12.182  66.681  1.00  0.00    -0.182 C  
ENDBRANCH  17  18
ENDBRANCH  12  13
ENDBRANCH  11  12
ENDBRANCH   1  11
TORSDOF 6
ENDMDL
MODEL      128
REMARK 921   NORMALIZED FREE ENERGY PREDICTED BY IDOCK:   -4.30 KCAL/MOL
REMARK 922        TOTAL FREE ENERGY PREDICTED BY IDOCK:   -6.59 KCAL/MOL
REMARK 923 INTER-LIGAND FREE ENERGY PREDICTED BY IDOCK:   -6.47 KCAL/MOL
REMARK 924 INTRA-LIGAND FREE ENERGY PREDICTED BY IDOCK:   -0.12 KCAL/MOL
REMARK 927      BINDING AFFINITY PREDICTED BY RF-SCORE:    0.00 PKD
ROOT
HETATM    1  C   UNL     1     -10.412  15.102  65.500  1.00  0.00    -0.379 C  
HETATM    2  H   UNL     1     -11.694  15.329  64.042  1.00  0.00     0.000 HD 
HETATM    3  O   UNL     1     -11.324  15.889  64.714  1.00  0.00    -0.394 OA 
ENDROOT
BRANCH   1   4
HETATM    4  C   UNL     1      -9.811  16.012  66.593  1.00  0.00    -0.260 C  
BRANCH   4   5
HETATM    5  N   UNL     1      -9.088  17.166  66.050  1.00  0.00    -0.513 NA 
HETATM    6  C   UNL     1      -8.375  19.479  66.083  1.00  0.00    -0.333 C  
HETATM    7  C   UNL     1      -8.462  18.211  68.228  1.00  0.00    -0.294 C  
HETATM    8  C   UNL     1      -9.149  18.397  66.864  1.00  0.00    -0.286 C  
HETATM    9  H   UNL     1      -9.405  17.360  65.100  1.00  0.00     0.000 HD 
HETATM   10  C   UNL     1     -10.594  18.885  67.061  1.00  0.00    -0.510 C  
ENDBRANCH   4   5
ENDBRANCH   1   4
BRANCH   1  11
HETATM   11  C   UNL     1     -11.144  13.871  66.052  1.00  0.00    -0.289 C  
BRANCH  11  12
HETATM   12  O   UNL     1     -10.848  13.759  67.447  1.00  0.00    -0.272 OA 
BRANCH  12  13
HETATM   13  C   UNL     1     -10.236  12.602  67.820  1.00  0.00    -0.222 A  
HETATM   14  N   UNL     1      -9.226  12.125  67.091  1.00  0.00    -0.187 NA 
HETATM   15  S   UNL     1      -8.846  10.672  67.823  1.00  0.00    -0.134 SA 
HETATM   16  N   UNL     1      -9.974  10.640  69.049  1.00  0.00    -0.206 NA 
HETATM   17  C   UNL     1     -10.662  11.785  68.954  1.00  0.00    -0.205 A  
BRANCH  17  18
HETATM   18  N   UNL     1     -11.708  12.110  69.771  1.00  0.00    -0.320 NA 
HETATM   19  C   UNL     1     -12.707  11.138  70.224  1.00  0.00    -0.139 C  
HETATM   20  C   UNL     1     -13.028  11.427  71.699  1.00  0.00    -0.418 C  
HETATM   21  O   UNL     1     -13.487  12.780  71.878  1.00  0.00    -0.450 OA 
HETATM   22  C   UNL     1     -12.497  13.720  71.417  1.00  0.00    -0.318 C  
HETATM   23  C   UNL     1     -12.147  13.500  69.933  1.00  0.00    -0.341 C  
ENDBRANCH  17  18
ENDBRANCH  12  13
ENDBRANCH  11  12
ENDBRANCH   1  11
TORSDOF 6
ENDMDL
MODEL      129
REMARK 921   NORMALIZED FREE ENERGY PREDICTED BY IDOCK:   -4.29 KCAL/MOL
REMARK 922        TOTAL FREE ENERGY PREDICTED BY IDOCK:   -6.58 KCAL/MOL
REMARK 923 INTER-LIGAND FREE ENERGY PREDICTED BY IDOCK:   -6.21 KCAL/MOL
REMARK 924 INTRA-LIGAND FREE ENERGY PREDICTED BY IDOCK:   -0.37 KCAL/MOL
REMARK 927      BINDING AFFINITY PREDICTED BY RF-SCORE:    0.00 PKD
ROOT
HETATM    1  C   UNL     1     -11.360  11.283  67.818  1.00  0.00    -0.285 C  
HETATM    2  H   UNL     1     -12.222  10.282  69.258  1.00  0.00     0.000 HD 
HETATM    3  O   UNL     1     -12.399  11.091  68.793  1.00  0.00    -0.533 OA 
ENDROOT
BRANCH   1   4
HETATM    4  C   UNL     1     -11.648  12.598  67.062  1.00  0.00    -0.365 C  
BRANCH   4   5
HETATM    5  N   UNL     1     -12.288  12.388  65.761  1.00  0.00    -0.603 NA 
HETATM    6  C   UNL     1     -12.268  12.212  63.347  1.00  0.00    -0.635 C  
HETATM    7  C   UNL     1     -10.382  11.225  64.645  1.00  0.00    -0.373 C  
HETATM    8  C   UNL     1     -11.381  12.394  64.595  1.00  0.00    -0.315 C  
HETATM    9  H   UNL     1     -13.035  13.070  65.626  1.00  0.00     0.000 HD 
HETATM   10  C   UNL     1     -10.628  13.729  64.460  1.00  0.00    -0.405 C  
ENDBRANCH   4   5
ENDBRANCH   1   4
BRANCH   1  11
HETATM   11  C   UNL     1      -9.993  11.254  68.515  1.00  0.00    -0.202 C  
BRANCH  11  12
HETATM   12  O   UNL     1     -10.039  10.273  69.555  1.00  0.00    -0.221 OA 
BRANCH  12  13
HETATM   13  C   UNL     1      -8.827   9.863  70.019  1.00  0.00    -0.160 A  
HETATM   14  N   UNL     1      -7.720  10.487  69.615  1.00  0.00    -0.143 NA 
HETATM   15  S   UNL     1      -6.481   9.621  70.325  1.00  0.00    -0.097 SA 
HETATM   16  N   UNL     1      -7.348   8.445  71.127  1.00  0.00    -0.066 NA 
HETATM   17  C   UNL     1      -8.640   8.713  70.901  1.00  0.00    -0.172 A  
BRANCH  17  18
HETATM   18  N   UNL     1      -9.666   7.939  71.366  1.00  0.00    -0.162 NA 
HETATM   19  C   UNL     1     -10.575   8.364  72.433  1.00  0.00    -0.335 C  
HETATM   20  C   UNL     1     -11.998   7.916  72.063  1.00  0.00    -0.319 C  
HETATM   21  O   UNL     1     -12.059   6.493  71.851  1.00  0.00    -0.334 OA 
HETATM   22  C   UNL     1     -11.151   6.093  70.807  1.00  0.00    -0.309 C  
HETATM   23  C   UNL     1      -9.698   6.491  71.129  1.00  0.00    -0.174 C  
ENDBRANCH  17  18
ENDBRANCH  12  13
ENDBRANCH  11  12
ENDBRANCH   1  11
TORSDOF 6
ENDMDL
MODEL      130
REMARK 921   NORMALIZED FREE ENERGY PREDICTED BY IDOCK:   -4.27 KCAL/MOL
REMARK 922        TOTAL FREE ENERGY PREDICTED BY IDOCK:   -6.56 KCAL/MOL
REMARK 923 INTER-LIGAND FREE ENERGY PREDICTED BY IDOCK:   -5.51 KCAL/MOL
REMARK 924 INTRA-LIGAND FREE ENERGY PREDICTED BY IDOCK:   -1.05 KCAL/MOL
REMARK 927      BINDING AFFINITY PREDICTED BY RF-SCORE:    0.00 PKD
ROOT
HETATM    1  C   UNL     1     -10.767  16.679  66.582  1.00  0.00    -0.124 C  
HETATM    2  H   UNL     1      -9.498  17.250  65.210  1.00  0.00     0.000 HD 
HETATM    3  O   UNL     1      -9.619  16.472  65.740  1.00  0.00    -0.476 OA 
ENDROOT
BRANCH   1   4
HETATM    4  C   UNL     1     -10.964  15.413  67.444  1.00  0.00    -0.312 C  
BRANCH   4   5
HETATM    5  N   UNL     1     -12.025  15.556  68.446  1.00  0.00    -0.506 NA 
HETATM    6  C   UNL     1     -13.061  15.071  70.580  1.00  0.00    -0.305 C  
HETATM    7  C   UNL     1     -10.585  15.352  70.475  1.00  0.00    -0.229 C  
HETATM    8  C   UNL     1     -11.811  14.823  69.710  1.00  0.00    -0.316 C  
HETATM    9  H   UNL     1     -12.924  15.297  68.040  1.00  0.00     0.000 HD 
HETATM   10  C   UNL     1     -11.678  13.308  69.480  1.00  0.00    -0.384 C  
ENDBRANCH   4   5
ENDBRANCH   1   4
BRANCH   1  11
HETATM   11  C   UNL     1     -10.577  17.963  67.399  1.00  0.00    -0.360 C  
BRANCH  11  12
HETATM   12  O   UNL     1      -9.536  17.739  68.355  1.00  0.00    -0.277 OA 
BRANCH  12  13
HETATM   13  C   UNL     1      -8.431  18.519  68.202  1.00  0.00    -0.296 A  
HETATM   14  N   UNL     1      -8.572  19.816  67.926  1.00  0.00    -0.314 NA 
HETATM   15  S   UNL     1      -7.006  20.361  67.722  1.00  0.00    -0.310 SA 
HETATM   16  N   UNL     1      -6.154  18.950  67.964  1.00  0.00    -0.209 NA 
HETATM   17  C   UNL     1      -7.062  18.010  68.254  1.00  0.00    -0.241 A  
BRANCH  17  18
HETATM   18  N   UNL     1      -6.749  16.699  68.480  1.00  0.00    -0.142 NA 
HETATM   19  C   UNL     1      -6.169  16.215  69.734  1.00  0.00    -0.184 C  
HETATM   20  C   UNL     1      -6.827  14.870  70.084  1.00  0.00    -0.072 C  
HETATM   21  O   UNL     1      -6.661  13.915  69.020  1.00  0.00    -0.096 OA 
HETATM   22  C   UNL     1      -7.227  14.414  67.793  1.00  0.00    -0.175 C  
HETATM   23  C   UNL     1      -6.590  15.751  67.371  1.00  0.00    -0.180 C  
ENDBRANCH  17  18
ENDBRANCH  12  13
ENDBRANCH  11  12
ENDBRANCH   1  11
TORSDOF 6
ENDMDL
MODEL      131
REMARK 921   NORMALIZED FREE ENERGY PREDICTED BY IDOCK:   -4.26 KCAL/MOL
REMARK 922        TOTAL FREE ENERGY PREDICTED BY IDOCK:   -6.54 KCAL/MOL
REMARK 923 INTER-LIGAND FREE ENERGY PREDICTED BY IDOCK:   -5.66 KCAL/MOL
REMARK 924 INTRA-LIGAND FREE ENERGY PREDICTED BY IDOCK:   -0.88 KCAL/MOL
REMARK 927      BINDING AFFINITY PREDICTED BY RF-SCORE:    0.00 PKD
ROOT
HETATM    1  C   UNL     1      -9.453  10.705  67.202  1.00  0.00    -0.156 C  
HETATM    2  H   UNL     1     -10.442   9.236  68.031  1.00  0.00     0.000 HD 
HETATM    3  O   UNL     1     -10.468   9.685  67.195  1.00  0.00    -0.247 OA 
ENDROOT
BRANCH   1   4
HETATM    4  C   UNL     1      -9.496  11.435  65.842  1.00  0.00    -0.228 C  
BRANCH   4   5
HETATM    5  N   UNL     1     -10.795  11.332  65.172  1.00  0.00    -0.241 NA 
HETATM    6  C   UNL     1     -12.391  11.926  63.451  1.00  0.00    -0.577 C  
HETATM    7  C   UNL     1      -9.986  11.689  62.838  1.00  0.00    -0.189 C  
HETATM    8  C   UNL     1     -10.947  12.146  63.949  1.00  0.00    -0.402 C  
HETATM    9  H   UNL     1     -11.544  11.548  65.830  1.00  0.00     0.000 HD 
HETATM   10  C   UNL     1     -10.758  13.646  64.229  1.00  0.00    -0.280 C  
ENDBRANCH   4   5
ENDBRANCH   1   4
BRANCH   1  11
HETATM   11  C   UNL     1      -9.665  11.628  68.409  1.00  0.00    -0.199 C  
BRANCH  11  12
HETATM   12  O   UNL     1     -10.548  12.684  68.019  1.00  0.00    -0.210 OA 
BRANCH  12  13
HETATM   13  C   UNL     1     -11.051  13.427  69.042  1.00  0.00    -0.249 A  
HETATM   14  N   UNL     1     -11.970  12.898  69.852  1.00  0.00    -0.331 NA 
HETATM   15  S   UNL     1     -12.380  14.152  70.876  1.00  0.00    -0.386 SA 
HETATM   16  N   UNL     1     -11.408  15.367  70.281  1.00  0.00    -0.283 NA 
HETATM   17  C   UNL     1     -10.698  14.823  69.285  1.00  0.00    -0.256 A  
BRANCH  17  18
HETATM   18  N   UNL     1      -9.809  15.524  68.518  1.00  0.00    -0.199 NA 
HETATM   19  C   UNL     1      -8.518  16.003  69.017  1.00  0.00    -0.244 C  
HETATM   20  C   UNL     1      -7.467  15.798  67.914  1.00  0.00    -0.134 C  
HETATM   21  O   UNL     1      -7.848  16.471  66.699  1.00  0.00    -0.226 OA 
HETATM   22  C   UNL     1      -9.124  15.995  66.231  1.00  0.00    -0.344 C  
HETATM   23  C   UNL     1     -10.231  16.195  67.283  1.00  0.00    -0.277 C  
ENDBRANCH  17  18
ENDBRANCH  12  13
ENDBRANCH  11  12
ENDBRANCH   1  11
TORSDOF 6
ENDMDL
MODEL      132
REMARK 921   NORMALIZED FREE ENERGY PREDICTED BY IDOCK:   -4.25 KCAL/MOL
REMARK 922        TOTAL FREE ENERGY PREDICTED BY IDOCK:   -6.53 KCAL/MOL
REMARK 923 INTER-LIGAND FREE ENERGY PREDICTED BY IDOCK:   -6.07 KCAL/MOL
REMARK 924 INTRA-LIGAND FREE ENERGY PREDICTED BY IDOCK:   -0.46 KCAL/MOL
REMARK 927      BINDING AFFINITY PREDICTED BY RF-SCORE:    0.00 PKD
ROOT
HETATM    1  C   UNL     1     -10.928  11.263  68.051  1.00  0.00    -0.247 C  
HETATM    2  H   UNL     1     -10.350   9.495  68.651  1.00  0.00     0.000 HD 
HETATM    3  O   UNL     1     -10.678   9.863  67.839  1.00  0.00    -0.238 OA 
ENDROOT
BRANCH   1   4
HETATM    4  C   UNL     1     -11.463  11.861  66.732  1.00  0.00    -0.316 C  
BRANCH   4   5
HETATM    5  N   UNL     1     -10.658  12.981  66.237  1.00  0.00    -0.268 NA 
HETATM    6  C   UNL     1     -10.347  15.285  65.561  1.00  0.00    -0.408 C  
HETATM    7  C   UNL     1     -11.788  14.790  67.534  1.00  0.00    -0.326 C  
HETATM    8  C   UNL     1     -11.358  14.279  66.148  1.00  0.00    -0.342 C  
HETATM    9  H   UNL     1     -10.247  12.743  65.335  1.00  0.00     0.000 HD 
HETATM   10  C   UNL     1     -12.573  14.212  65.208  1.00  0.00    -0.460 C  
ENDBRANCH   4   5
ENDBRANCH   1   4
BRANCH   1  11
HETATM   11  C   UNL     1     -11.879  11.439  69.242  1.00  0.00    -0.349 C  
BRANCH  11  12
HETATM   12  O   UNL     1     -11.279  10.831  70.390  1.00  0.00    -0.292 OA 
BRANCH  12  13
HETATM   13  C   UNL     1     -12.072   9.949  71.060  1.00  0.00    -0.358 A  
HETATM   14  N   UNL     1     -13.389  10.155  71.115  1.00  0.00    -0.351 NA 
HETATM   15  S   UNL     1     -13.952   8.926  72.096  1.00  0.00    -0.434 SA 
HETATM   16  N   UNL     1     -12.526   8.147  72.465  1.00  0.00    -0.257 NA 
HETATM   17  C   UNL     1     -11.562   8.797  71.800  1.00  0.00    -0.346 A  
BRANCH  17  18
HETATM   18  N   UNL     1     -10.237   8.475  71.882  1.00  0.00    -0.270 NA 
HETATM   19  C   UNL     1      -9.360   8.369  70.713  1.00  0.00    -0.163 C  
HETATM   20  C   UNL     1      -7.999   8.987  71.073  1.00  0.00    -0.150 C  
HETATM   21  O   UNL     1      -7.423   8.345  72.226  1.00  0.00    -0.116 OA 
HETATM   22  C   UNL     1      -8.304   8.448  73.361  1.00  0.00    -0.109 C  
HETATM   23  C   UNL     1      -9.683   7.823  73.075  1.00  0.00    -0.267 C  
ENDBRANCH  17  18
ENDBRANCH  12  13
ENDBRANCH  11  12
ENDBRANCH   1  11
TORSDOF 6
ENDMDL
MODEL      133
REMARK 921   NORMALIZED FREE ENERGY PREDICTED BY IDOCK:   -4.24 KCAL/MOL
REMARK 922        TOTAL FREE ENERGY PREDICTED BY IDOCK:   -6.52 KCAL/MOL
REMARK 923 INTER-LIGAND FREE ENERGY PREDICTED BY IDOCK:   -5.67 KCAL/MOL
REMARK 924 INTRA-LIGAND FREE ENERGY PREDICTED BY IDOCK:   -0.85 KCAL/MOL
REMARK 927      BINDING AFFINITY PREDICTED BY RF-SCORE:    0.00 PKD
ROOT
HETATM    1  C   UNL     1     -12.075  14.067  69.452  1.00  0.00    -0.340 C  
HETATM    2  H   UNL     1     -13.376  13.438  70.769  1.00  0.00     0.000 HD 
HETATM    3  O   UNL     1     -12.755  14.154  70.717  1.00  0.00    -0.329 OA 
ENDROOT
BRANCH   1   4
HETATM    4  C   UNL     1     -11.065  15.232  69.368  1.00  0.00    -0.280 C  
BRANCH   4   5
HETATM    5  N   UNL     1     -11.226  16.049  68.162  1.00  0.00    -0.344 NA 
HETATM    6  C   UNL     1     -10.381  17.225  66.222  1.00  0.00    -0.323 C  
HETATM    7  C   UNL     1      -9.382  15.023  66.828  1.00  0.00    -0.271 C  
HETATM    8  C   UNL     1      -9.986  16.315  67.403  1.00  0.00    -0.249 C  
HETATM    9  H   UNL     1     -11.688  16.928  68.395  1.00  0.00     0.000 HD 
HETATM   10  C   UNL     1      -8.940  17.056  68.253  1.00  0.00    -0.242 C  
ENDBRANCH   4   5
ENDBRANCH   1   4
BRANCH   1  11
HETATM   11  C   UNL     1     -11.436  12.680  69.310  1.00  0.00    -0.294 C  
BRANCH  11  12
HETATM   12  O   UNL     1     -12.190  11.933  68.350  1.00  0.00    -0.425 OA 
BRANCH  12  13
HETATM   13  C   UNL     1     -11.762  12.044  67.063  1.00  0.00    -0.267 A  
HETATM   14  N   UNL     1     -12.281  12.985  66.272  1.00  0.00    -0.448 NA 
HETATM   15  S   UNL     1     -11.570  12.708  64.787  1.00  0.00    -0.350 SA 
HETATM   16  N   UNL     1     -10.620  11.385  65.142  1.00  0.00    -0.293 NA 
HETATM   17  C   UNL     1     -10.795  11.139  66.446  1.00  0.00    -0.225 A  
BRANCH  17  18
HETATM   18  N   UNL     1     -10.206  10.096  67.105  1.00  0.00    -0.212 NA 
HETATM   19  C   UNL     1      -8.964  10.227  67.871  1.00  0.00    -0.131 C  
HETATM   20  C   UNL     1      -9.100   9.393  69.156  1.00  0.00    -0.148 C  
HETATM   21  O   UNL     1      -9.395   8.016  68.856  1.00  0.00    -0.150 OA 
HETATM   22  C   UNL     1     -10.612   7.909  68.093  1.00  0.00    -0.120 C  
HETATM   23  C   UNL     1     -10.532   8.704  66.775  1.00  0.00    -0.228 C  
ENDBRANCH  17  18
ENDBRANCH  12  13
ENDBRANCH  11  12
ENDBRANCH   1  11
TORSDOF 6
ENDMDL
MODEL      134
REMARK 921   NORMALIZED FREE ENERGY PREDICTED BY IDOCK:   -4.24 KCAL/MOL
REMARK 922        TOTAL FREE ENERGY PREDICTED BY IDOCK:   -6.51 KCAL/MOL
REMARK 923 INTER-LIGAND FREE ENERGY PREDICTED BY IDOCK:   -6.24 KCAL/MOL
REMARK 924 INTRA-LIGAND FREE ENERGY PREDICTED BY IDOCK:   -0.27 KCAL/MOL
REMARK 927      BINDING AFFINITY PREDICTED BY RF-SCORE:    0.00 PKD
ROOT
HETATM    1  C   UNL     1      -7.900  15.992  67.618  1.00  0.00    -0.142 C  
HETATM    2  H   UNL     1      -6.033  15.566  67.229  1.00  0.00     0.000 HD 
HETATM    3  O   UNL     1      -6.668  16.191  66.903  1.00  0.00    -0.222 OA 
ENDROOT
BRANCH   1   4
HETATM    4  C   UNL     1      -8.934  17.009  67.087  1.00  0.00    -0.222 C  
BRANCH   4   5
HETATM    5  N   UNL     1      -8.418  18.379  67.029  1.00  0.00    -0.248 NA 
HETATM    6  C   UNL     1      -8.671  20.787  67.083  1.00  0.00    -0.223 C  
HETATM    7  C   UNL     1     -10.013  19.396  68.658  1.00  0.00    -0.527 C  
HETATM    8  C   UNL     1      -9.418  19.446  67.240  1.00  0.00    -0.318 C  
HETATM    9  H   UNL     1      -7.928  18.530  66.147  1.00  0.00     0.000 HD 
HETATM   10  C   UNL     1     -10.542  19.396  66.192  1.00  0.00    -0.571 C  
ENDBRANCH   4   5
ENDBRANCH   1   4
BRANCH   1  11
HETATM   11  C   UNL     1      -8.341  14.529  67.480  1.00  0.00    -0.188 C  
BRANCH  11  12
HETATM   12  O   UNL     1      -9.756  14.504  67.269  1.00  0.00    -0.225 OA 
BRANCH  12  13
HETATM   13  C   UNL     1     -10.364  13.320  67.555  1.00  0.00    -0.229 A  
HETATM   14  N   UNL     1     -10.125  12.253  66.791  1.00  0.00    -0.207 NA 
HETATM   15  S   UNL     1     -11.127  11.072  67.415  1.00  0.00    -0.279 SA 
HETATM   16  N   UNL     1     -11.876  11.917  68.639  1.00  0.00    -0.320 NA 
HETATM   17  C   UNL     1     -11.338  13.144  68.629  1.00  0.00    -0.289 A  
BRANCH  17  18
HETATM   18  N   UNL     1     -11.728  14.148  69.471  1.00  0.00    -0.291 NA 
HETATM   19  C   UNL     1     -12.564  13.927  70.654  1.00  0.00    -0.335 C  
HETATM   20  C   UNL     1     -12.028  14.808  71.795  1.00  0.00    -0.339 C  
HETATM   21  O   UNL     1     -12.004  16.196  71.415  1.00  0.00    -0.442 OA 
HETATM   22  C   UNL     1     -11.187  16.391  70.245  1.00  0.00    -0.246 C  
HETATM   23  C   UNL     1     -11.687  15.553  69.052  1.00  0.00    -0.377 C  
ENDBRANCH  17  18
ENDBRANCH  12  13
ENDBRANCH  11  12
ENDBRANCH   1  11
TORSDOF 6
ENDMDL
MODEL      135
REMARK 921   NORMALIZED FREE ENERGY PREDICTED BY IDOCK:   -4.22 KCAL/MOL
REMARK 922        TOTAL FREE ENERGY PREDICTED BY IDOCK:   -6.49 KCAL/MOL
REMARK 923 INTER-LIGAND FREE ENERGY PREDICTED BY IDOCK:   -5.50 KCAL/MOL
REMARK 924 INTRA-LIGAND FREE ENERGY PREDICTED BY IDOCK:   -0.99 KCAL/MOL
REMARK 927      BINDING AFFINITY PREDICTED BY RF-SCORE:    0.00 PKD
ROOT
HETATM    1  C   UNL     1     -11.172  10.780  68.594  1.00  0.00    -0.274 C  
HETATM    2  H   UNL     1     -12.702  11.982  68.415  1.00  0.00     0.000 HD 
HETATM    3  O   UNL     1     -12.499  11.217  68.938  1.00  0.00    -0.460 OA 
ENDROOT
BRANCH   1   4
HETATM    4  C   UNL     1     -10.841   9.535  69.445  1.00  0.00    -0.206 C  
BRANCH   4   5
HETATM    5  N   UNL     1      -9.462   9.070  69.276  1.00  0.00    -0.155 NA 
HETATM    6  C   UNL     1      -7.785   7.354  68.951  1.00  0.00    -0.115 C  
HETATM    7  C   UNL     1      -9.945   7.180  67.719  1.00  0.00    -0.192 C  
HETATM    8  C   UNL     1      -9.301   7.620  69.045  1.00  0.00    -0.146 C  
HETATM    9  H   UNL     1      -8.895   9.361  70.073  1.00  0.00     0.000 HD 
HETATM   10  C   UNL     1      -9.865   6.787  70.209  1.00  0.00    -0.185 C  
ENDBRANCH   4   5
ENDBRANCH   1   4
BRANCH   1  11
HETATM   11  C   UNL     1     -11.090  10.537  67.082  1.00  0.00    -0.160 C  
BRANCH  11  12
HETATM   12  O   UNL     1      -9.715  10.602  66.690  1.00  0.00    -0.174 OA 
BRANCH  12  13
HETATM   13  C   UNL     1      -9.079  11.766  66.998  1.00  0.00    -0.187 A  
HETATM   14  N   UNL     1      -8.094  11.763  67.898  1.00  0.00    -0.136 NA 
HETATM   15  S   UNL     1      -7.673  13.372  68.047  1.00  0.00    -0.164 SA 
HETATM   16  N   UNL     1      -8.750  14.072  66.985  1.00  0.00    -0.221 NA 
HETATM   17  C   UNL     1      -9.451  13.067  66.446  1.00  0.00    -0.224 A  
BRANCH  17  18
HETATM   18  N   UNL     1     -10.466  13.247  65.550  1.00  0.00    -0.282 NA 
HETATM   19  C   UNL     1     -10.361  12.894  64.132  1.00  0.00    -0.361 C  
HETATM   20  C   UNL     1     -11.693  12.266  63.691  1.00  0.00    -0.504 C  
HETATM   21  O   UNL     1     -12.797  13.158  63.933  1.00  0.00    -0.653 OA 
HETATM   22  C   UNL     1     -12.876  13.504  65.329  1.00  0.00    -0.353 C  
HETATM   23  C   UNL     1     -11.578  14.163  65.831  1.00  0.00    -0.348 C  
ENDBRANCH  17  18
ENDBRANCH  12  13
ENDBRANCH  11  12
ENDBRANCH   1  11
TORSDOF 6
ENDMDL
MODEL      136
REMARK 921   NORMALIZED FREE ENERGY PREDICTED BY IDOCK:   -4.22 KCAL/MOL
REMARK 922        TOTAL FREE ENERGY PREDICTED BY IDOCK:   -6.48 KCAL/MOL
REMARK 923 INTER-LIGAND FREE ENERGY PREDICTED BY IDOCK:   -5.66 KCAL/MOL
REMARK 924 INTRA-LIGAND FREE ENERGY PREDICTED BY IDOCK:   -0.82 KCAL/MOL
REMARK 927      BINDING AFFINITY PREDICTED BY RF-SCORE:    0.00 PKD
ROOT
HETATM    1  C   UNL     1      -9.777   7.837  67.847  1.00  0.00    -0.153 C  
HETATM    2  H   UNL     1     -10.543   6.366  68.880  1.00  0.00     0.000 HD 
HETATM    3  O   UNL     1     -10.835   6.916  68.163  1.00  0.00    -0.223 OA 
ENDROOT
BRANCH   1   4
HETATM    4  C   UNL     1     -10.250   8.732  66.681  1.00  0.00    -0.270 C  
BRANCH   4   5
HETATM    5  N   UNL     1      -9.516   8.494  65.435  1.00  0.00    -0.412 NA 
HETATM    6  C   UNL     1      -8.344   9.222  63.446  1.00  0.00    -0.193 C  
HETATM    7  C   UNL     1      -7.985  10.460  65.580  1.00  0.00    -0.153 C  
HETATM    8  C   UNL     1      -9.029   9.704  64.741  1.00  0.00    -0.225 C  
HETATM    9  H   UNL     1     -10.082   7.931  64.800  1.00  0.00     0.000 HD 
HETATM   10  C   UNL     1     -10.181  10.647  64.354  1.00  0.00    -0.400 C  
ENDBRANCH   4   5
ENDBRANCH   1   4
BRANCH   1  11
HETATM   11  C   UNL     1      -9.383   8.618  69.108  1.00  0.00    -0.153 C  
BRANCH  11  12
HETATM   12  O   UNL     1      -9.776   9.983  68.933  1.00  0.00    -0.165 OA 
BRANCH  12  13
HETATM   13  C   UNL     1     -10.768  10.411  69.760  1.00  0.00    -0.278 A  
HETATM   14  N   UNL     1     -11.175   9.631  70.763  1.00  0.00    -0.307 NA 
HETATM   15  S   UNL     1     -12.446  10.474  71.444  1.00  0.00    -0.408 SA 
HETATM   16  N   UNL     1     -12.492  11.815  70.457  1.00  0.00    -0.268 NA 
HETATM   17  C   UNL     1     -11.487  11.671  69.583  1.00  0.00    -0.288 A  
BRANCH  17  18
HETATM   18  N   UNL     1     -11.225  12.559  68.578  1.00  0.00    -0.261 NA 
HETATM   19  C   UNL     1     -11.680  12.370  67.198  1.00  0.00    -0.345 C  
HETATM   20  C   UNL     1     -12.143  13.731  66.653  1.00  0.00    -0.429 C  
HETATM   21  O   UNL     1     -11.092  14.712  66.734  1.00  0.00    -0.320 OA 
HETATM   22  C   UNL     1     -10.650  14.874  68.095  1.00  0.00    -0.244 C  
HETATM   23  C   UNL     1     -10.147  13.548  68.696  1.00  0.00    -0.166 C  
ENDBRANCH  17  18
ENDBRANCH  12  13
ENDBRANCH  11  12
ENDBRANCH   1  11
TORSDOF 6
ENDMDL
MODEL      137
REMARK 921   NORMALIZED FREE ENERGY PREDICTED BY IDOCK:   -4.20 KCAL/MOL
REMARK 922        TOTAL FREE ENERGY PREDICTED BY IDOCK:   -6.46 KCAL/MOL
REMARK 923 INTER-LIGAND FREE ENERGY PREDICTED BY IDOCK:   -6.08 KCAL/MOL
REMARK 924 INTRA-LIGAND FREE ENERGY PREDICTED BY IDOCK:   -0.39 KCAL/MOL
REMARK 927      BINDING AFFINITY PREDICTED BY RF-SCORE:    0.00 PKD
ROOT
HETATM    1  C   UNL     1     -10.590   9.786  68.809  1.00  0.00    -0.219 C  
HETATM    2  H   UNL     1      -8.967  10.086  67.762  1.00  0.00     0.000 HD 
HETATM    3  O   UNL     1      -9.182  10.052  68.687  1.00  0.00    -0.143 OA 
ENDROOT
BRANCH   1   4
HETATM    4  C   UNL     1     -10.940   9.730  70.312  1.00  0.00    -0.298 C  
BRANCH   4   5
HETATM    5  N   UNL     1     -12.259   9.151  70.577  1.00  0.00    -0.477 NA 
HETATM    6  C   UNL     1     -13.729   7.400  71.375  1.00  0.00    -0.419 C  
HETATM    7  C   UNL     1     -11.661   7.921  72.665  1.00  0.00    -0.435 C  
HETATM    8  C   UNL     1     -12.255   7.835  71.249  1.00  0.00    -0.303 C  
HETATM    9  H   UNL     1     -12.797   9.099  69.712  1.00  0.00     0.000 HD 
HETATM   10  C   UNL     1     -11.508   6.772  70.425  1.00  0.00    -0.419 C  
ENDBRANCH   4   5
ENDBRANCH   1   4
BRANCH   1  11
HETATM   11  C   UNL     1     -11.381  10.842  68.027  1.00  0.00    -0.312 C  
BRANCH  11  12
HETATM   12  O   UNL     1     -10.512  11.420  67.047  1.00  0.00    -0.217 OA 
BRANCH  12  13
HETATM   13  C   UNL     1     -11.101  11.725  65.859  1.00  0.00    -0.302 A  
HETATM   14  N   UNL     1     -12.179  12.511  65.838  1.00  0.00    -0.624 NA 
HETATM   15  S   UNL     1     -12.630  12.542  64.230  1.00  0.00    -0.334 SA 
HETATM   16  N   UNL     1     -11.471  11.545  63.566  1.00  0.00    -0.346 NA 
HETATM   17  C   UNL     1     -10.666  11.186  64.573  1.00  0.00    -0.297 A  
BRANCH  17  18
HETATM   18  N   UNL     1      -9.609  10.331  64.428  1.00  0.00    -0.298 NA 
HETATM   19  C   UNL     1      -8.790  10.262  63.216  1.00  0.00    -0.222 C  
HETATM   20  C   UNL     1      -7.320  10.095  63.635  1.00  0.00    -0.123 C  
HETATM   21  O   UNL     1      -7.141   8.929  64.462  1.00  0.00    -0.087 OA 
HETATM   22  C   UNL     1      -7.964   9.010  65.642  1.00  0.00    -0.104 C  
HETATM   23  C   UNL     1      -9.457   9.153  65.291  1.00  0.00    -0.099 C  
ENDBRANCH  17  18
ENDBRANCH  12  13
ENDBRANCH  11  12
ENDBRANCH   1  11
TORSDOF 6
ENDMDL
MODEL      138
REMARK 921   NORMALIZED FREE ENERGY PREDICTED BY IDOCK:   -4.20 KCAL/MOL
REMARK 922        TOTAL FREE ENERGY PREDICTED BY IDOCK:   -6.46 KCAL/MOL
REMARK 923 INTER-LIGAND FREE ENERGY PREDICTED BY IDOCK:   -5.83 KCAL/MOL
REMARK 924 INTRA-LIGAND FREE ENERGY PREDICTED BY IDOCK:   -0.63 KCAL/MOL
REMARK 927      BINDING AFFINITY PREDICTED BY RF-SCORE:    0.00 PKD
ROOT
HETATM    1  C   UNL     1      -9.576   9.576  67.867  1.00  0.00    -0.133 C  
HETATM    2  H   UNL     1      -8.603  11.271  67.880  1.00  0.00     0.000 HD 
HETATM    3  O   UNL     1      -8.485  10.418  68.280  1.00  0.00    -0.117 OA 
ENDROOT
BRANCH   1   4
HETATM    4  C   UNL     1      -9.385   8.189  68.518  1.00  0.00    -0.138 C  
BRANCH   4   5
HETATM    5  N   UNL     1      -9.691   8.176  69.951  1.00  0.00    -0.175 NA 
HETATM    6  C   UNL     1     -10.447   7.110  71.989  1.00  0.00    -0.232 C  
HETATM    7  C   UNL     1      -9.023   5.814  70.405  1.00  0.00    -0.154 C  
HETATM    8  C   UNL     1     -10.132   6.877  70.497  1.00  0.00    -0.187 C  
HETATM    9  H   UNL     1     -10.379   8.897  70.167  1.00  0.00     0.000 HD 
HETATM   10  C   UNL     1     -11.411   6.369  69.810  1.00  0.00    -0.494 C  
ENDBRANCH   4   5
ENDBRANCH   1   4
BRANCH   1  11
HETATM   11  C   UNL     1     -10.906  10.251  68.225  1.00  0.00    -0.255 C  
BRANCH  11  12
HETATM   12  O   UNL     1     -10.709  11.037  69.404  1.00  0.00    -0.229 OA 
BRANCH  12  13
HETATM   13  C   UNL     1     -11.667  10.897  70.361  1.00  0.00    -0.350 A  
HETATM   14  N   UNL     1     -12.020   9.677  70.768  1.00  0.00    -0.286 NA 
HETATM   15  S   UNL     1     -13.266   9.951  71.846  1.00  0.00    -0.447 SA 
HETATM   16  N   UNL     1     -13.370  11.613  71.780  1.00  0.00    -0.342 NA 
HETATM   17  C   UNL     1     -12.405  12.015  70.944  1.00  0.00    -0.285 A  
BRANCH  17  18
HETATM   18  N   UNL     1     -12.198  13.322  70.600  1.00  0.00    -0.366 NA 
HETATM   19  C   UNL     1     -12.441  14.442  71.512  1.00  0.00    -0.355 C  
HETATM   20  C   UNL     1     -11.309  15.466  71.331  1.00  0.00    -0.389 C  
HETATM   21  O   UNL     1     -11.216  15.907  69.964  1.00  0.00    -0.296 OA 
HETATM   22  C   UNL     1     -10.989  14.791  69.082  1.00  0.00    -0.267 C  
HETATM   23  C   UNL     1     -12.105  13.735  69.195  1.00  0.00    -0.333 C  
ENDBRANCH  17  18
ENDBRANCH  12  13
ENDBRANCH  11  12
ENDBRANCH   1  11
TORSDOF 6
ENDMDL
MODEL      139
REMARK 921   NORMALIZED FREE ENERGY PREDICTED BY IDOCK:   -4.20 KCAL/MOL
REMARK 922        TOTAL FREE ENERGY PREDICTED BY IDOCK:   -6.45 KCAL/MOL
REMARK 923 INTER-LIGAND FREE ENERGY PREDICTED BY IDOCK:   -6.00 KCAL/MOL
REMARK 924 INTRA-LIGAND FREE ENERGY PREDICTED BY IDOCK:   -0.45 KCAL/MOL
REMARK 927      BINDING AFFINITY PREDICTED BY RF-SCORE:    0.00 PKD
ROOT
HETATM    1  C   UNL     1     -11.663  11.683  70.000  1.00  0.00    -0.321 C  
HETATM    2  H   UNL     1     -12.537  12.908  71.247  1.00  0.00     0.000 HD 
HETATM    3  O   UNL     1     -12.462  11.965  71.161  1.00  0.00    -0.348 OA 
ENDROOT
BRANCH   1   4
HETATM    4  C   UNL     1     -11.542  10.150  69.861  1.00  0.00    -0.223 C  
BRANCH   4   5
HETATM    5  N   UNL     1     -11.108   9.491  71.096  1.00  0.00    -0.352 NA 
HETATM    6  C   UNL     1     -11.295   7.809  72.827  1.00  0.00    -0.446 C  
HETATM    7  C   UNL     1     -11.745   7.162  70.462  1.00  0.00    -0.314 C  
HETATM    8  C   UNL     1     -11.886   8.299  71.489  1.00  0.00    -0.293 C  
HETATM    9  H   UNL     1     -11.089  10.164  71.862  1.00  0.00     0.000 HD 
HETATM   10  C   UNL     1     -13.372   8.630  71.712  1.00  0.00    -0.410 C  
ENDBRANCH   4   5
ENDBRANCH   1   4
BRANCH   1  11
HETATM   11  C   UNL     1     -12.279  12.370  68.775  1.00  0.00     0.072 C  
BRANCH  11  12
HETATM   12  O   UNL     1     -11.459  12.083  67.637  1.00  0.00    -0.284 OA 
BRANCH  12  13
HETATM   13  C   UNL     1     -11.076  13.169  66.911  1.00  0.00    -0.282 A  
HETATM   14  N   UNL     1     -11.360  14.394  67.354  1.00  0.00    -0.321 NA 
HETATM   15  S   UNL     1     -10.817  15.403  66.139  1.00  0.00    -0.285 SA 
HETATM   16  N   UNL     1     -10.240  14.286  65.045  1.00  0.00    -0.406 NA 
HETATM   17  C   UNL     1     -10.416  13.085  65.610  1.00  0.00    -0.279 A  
BRANCH  17  18
HETATM   18  N   UNL     1     -10.098  11.906  64.996  1.00  0.00    -0.260 NA 
HETATM   19  C   UNL     1     -10.820  11.384  63.834  1.00  0.00    -0.393 C  
HETATM   20  C   UNL     1      -9.795  10.781  62.859  1.00  0.00    -0.256 C  
HETATM   21  O   UNL     1      -9.008   9.757  63.496  1.00  0.00    -0.229 OA 
HETATM   22  C   UNL     1      -8.316  10.287  64.643  1.00  0.00    -0.169 C  
HETATM   23  C   UNL     1      -9.290  10.886  65.675  1.00  0.00    -0.207 C  
ENDBRANCH  17  18
ENDBRANCH  12  13
ENDBRANCH  11  12
ENDBRANCH   1  11
TORSDOF 6
ENDMDL
MODEL      140
REMARK 921   NORMALIZED FREE ENERGY PREDICTED BY IDOCK:   -4.19 KCAL/MOL
REMARK 922        TOTAL FREE ENERGY PREDICTED BY IDOCK:   -6.45 KCAL/MOL
REMARK 923 INTER-LIGAND FREE ENERGY PREDICTED BY IDOCK:   -5.86 KCAL/MOL
REMARK 924 INTRA-LIGAND FREE ENERGY PREDICTED BY IDOCK:   -0.59 KCAL/MOL
REMARK 927      BINDING AFFINITY PREDICTED BY RF-SCORE:    0.00 PKD
ROOT
HETATM    1  C   UNL     1      -7.853  15.942  67.724  1.00  0.00    -0.139 C  
HETATM    2  H   UNL     1      -6.238  14.909  67.345  1.00  0.00     0.000 HD 
HETATM    3  O   UNL     1      -6.854  15.417  66.832  1.00  0.00    -0.212 OA 
ENDROOT
BRANCH   1   4
HETATM    4  C   UNL     1      -8.855  16.768  66.889  1.00  0.00    -0.218 C  
BRANCH   4   5
HETATM    5  N   UNL     1      -9.612  17.736  67.688  1.00  0.00    -0.262 NA 
HETATM    6  C   UNL     1     -10.233  19.984  68.338  1.00  0.00    -0.510 C  
HETATM    7  C   UNL     1      -9.867  19.484  65.924  1.00  0.00    -0.322 C  
HETATM    8  C   UNL     1      -9.388  19.157  67.349  1.00  0.00    -0.304 C  
HETATM    9  H   UNL     1      -9.436  17.583  68.680  1.00  0.00     0.000 HD 
HETATM   10  C   UNL     1      -7.914  19.562  67.518  1.00  0.00    -0.308 C  
ENDBRANCH   4   5
ENDBRANCH   1   4
BRANCH   1  11
HETATM   11  C   UNL     1      -8.497  14.791  68.506  1.00  0.00    -0.159 C  
BRANCH  11  12
HETATM   12  O   UNL     1      -8.848  13.758  67.579  1.00  0.00    -0.176 OA 
BRANCH  12  13
HETATM   13  C   UNL     1      -9.975  13.060  67.887  1.00  0.00    -0.230 A  
HETATM   14  N   UNL     1     -10.468  13.116  69.126  1.00  0.00     0.006 NA 
HETATM   15  S   UNL     1     -11.761  12.059  69.097  1.00  0.00    -0.332 SA 
HETATM   16  N   UNL     1     -11.683  11.519  67.523  1.00  0.00    -0.604 NA 
HETATM   17  C   UNL     1     -10.667  12.177  66.952  1.00  0.00    -0.236 A  
BRANCH  17  18
HETATM   18  N   UNL     1     -10.263  11.974  65.662  1.00  0.00    -0.244 NA 
HETATM   19  C   UNL     1      -9.174  11.066  65.293  1.00  0.00    -0.207 C  
HETATM   20  C   UNL     1      -9.583  10.315  64.016  1.00  0.00    -0.304 C  
HETATM   21  O   UNL     1      -9.894  11.230  62.948  1.00  0.00    -0.322 OA 
HETATM   22  C   UNL     1     -10.958  12.121  63.334  1.00  0.00    -0.412 C  
HETATM   23  C   UNL     1     -10.601  12.926  64.598  1.00  0.00    -0.363 C  
ENDBRANCH  17  18
ENDBRANCH  12  13
ENDBRANCH  11  12
ENDBRANCH   1  11
TORSDOF 6
ENDMDL
MODEL      141
REMARK 921   NORMALIZED FREE ENERGY PREDICTED BY IDOCK:   -4.19 KCAL/MOL
REMARK 922        TOTAL FREE ENERGY PREDICTED BY IDOCK:   -6.45 KCAL/MOL
REMARK 923 INTER-LIGAND FREE ENERGY PREDICTED BY IDOCK:   -5.72 KCAL/MOL
REMARK 924 INTRA-LIGAND FREE ENERGY PREDICTED BY IDOCK:   -0.73 KCAL/MOL
REMARK 927      BINDING AFFINITY PREDICTED BY RF-SCORE:    0.00 PKD
ROOT
HETATM    1  C   UNL     1     -10.937  10.167  69.087  1.00  0.00    -0.230 C  
HETATM    2  H   UNL     1     -11.682  10.976  70.703  1.00  0.00     0.000 HD 
HETATM    3  O   UNL     1     -11.679  11.188  69.777  1.00  0.00    -0.281 OA 
ENDROOT
BRANCH   1   4
HETATM    4  C   UNL     1     -10.932  10.513  67.582  1.00  0.00    -0.314 C  
BRANCH   4   5
HETATM    5  N   UNL     1     -11.790  11.653  67.248  1.00  0.00    -0.626 NA 
HETATM    6  C   UNL     1     -12.303  13.692  66.047  1.00  0.00    -0.493 C  
HETATM    7  C   UNL     1     -11.172  11.829  64.836  1.00  0.00    -0.328 C  
HETATM    8  C   UNL     1     -11.277  12.549  66.191  1.00  0.00    -0.321 C  
HETATM    9  H   UNL     1     -11.998  12.190  68.090  1.00  0.00     0.000 HD 
HETATM   10  C   UNL     1      -9.919  13.166  66.569  1.00  0.00    -0.268 C  
ENDBRANCH   4   5
ENDBRANCH   1   4
BRANCH   1  11
HETATM   11  C   UNL     1      -9.537  10.048  69.701  1.00  0.00    -0.226 C  
BRANCH  11  12
HETATM   12  O   UNL     1      -9.236   8.659  69.870  1.00  0.00    -0.150 OA 
BRANCH  12  13
HETATM   13  C   UNL     1      -9.912   8.038  70.875  1.00  0.00    -0.186 A  
HETATM   14  N   UNL     1      -9.966   8.603  72.082  1.00  0.00    -0.318 NA 
HETATM   15  S   UNL     1     -10.783   7.486  73.018  1.00  0.00    -0.397 SA 
HETATM   16  N   UNL     1     -11.050   6.281  71.898  1.00  0.00    -0.255 NA 
HETATM   17  C   UNL     1     -10.545   6.728  70.741  1.00  0.00    -0.222 A  
BRANCH  17  18
HETATM   18  N   UNL     1     -10.538   5.997  69.586  1.00  0.00    -0.267 NA 
HETATM   19  C   UNL     1     -11.281   6.385  68.385  1.00  0.00    -0.200 C  
HETATM   20  C   UNL     1     -10.401   6.093  67.158  1.00  0.00    -0.230 C  
HETATM   21  O   UNL     1     -10.008   4.709  67.114  1.00  0.00    -0.194 OA 
HETATM   22  C   UNL     1      -9.290   4.344  68.309  1.00  0.00    -0.147 C  
HETATM   23  C   UNL     1     -10.128   4.588  69.577  1.00  0.00    -0.069 C  
ENDBRANCH  17  18
ENDBRANCH  12  13
ENDBRANCH  11  12
ENDBRANCH   1  11
TORSDOF 6
ENDMDL
MODEL      142
REMARK 921   NORMALIZED FREE ENERGY PREDICTED BY IDOCK:   -4.17 KCAL/MOL
REMARK 922        TOTAL FREE ENERGY PREDICTED BY IDOCK:   -6.42 KCAL/MOL
REMARK 923 INTER-LIGAND FREE ENERGY PREDICTED BY IDOCK:   -6.31 KCAL/MOL
REMARK 924 INTRA-LIGAND FREE ENERGY PREDICTED BY IDOCK:   -0.11 KCAL/MOL
REMARK 927      BINDING AFFINITY PREDICTED BY RF-SCORE:    0.00 PKD
ROOT
HETATM    1  C   UNL     1     -11.035  16.557  68.239  1.00  0.00    -0.346 C  
HETATM    2  H   UNL     1     -10.766  18.414  68.787  1.00  0.00     0.000 HD 
HETATM    3  O   UNL     1     -10.318  17.804  68.214  1.00  0.00    -0.355 OA 
ENDROOT
BRANCH   1   4
HETATM    4  C   UNL     1     -10.306  15.564  67.309  1.00  0.00    -0.267 C  
BRANCH   4   5
HETATM    5  N   UNL     1     -10.872  15.518  65.958  1.00  0.00    -0.319 NA 
HETATM    6  C   UNL     1     -11.966  14.396  64.111  1.00  0.00    -0.373 C  
HETATM    7  C   UNL     1     -12.724  13.914  66.437  1.00  0.00    -0.170 C  
HETATM    8  C   UNL     1     -11.493  14.234  65.571  1.00  0.00    -0.329 C  
HETATM    9  H   UNL     1     -10.163  15.782  65.273  1.00  0.00     0.000 HD 
HETATM   10  C   UNL     1     -10.490  13.070  65.625  1.00  0.00    -0.291 C  
ENDBRANCH   4   5
ENDBRANCH   1   4
BRANCH   1  11
HETATM   11  C   UNL     1     -11.163  16.070  69.688  1.00  0.00    -0.336 C  
BRANCH  11  12
HETATM   12  O   UNL     1     -11.831  14.805  69.680  1.00  0.00    -0.285 OA 
BRANCH  12  13
HETATM   13  C   UNL     1     -12.772  14.640  70.650  1.00  0.00    -0.357 A  
HETATM   14  N   UNL     1     -13.424  15.703  71.125  1.00  0.00    -0.575 NA 
HETATM   15  S   UNL     1     -14.386  15.081  72.340  1.00  0.00    -0.185 SA 
HETATM   16  N   UNL     1     -13.962  13.470  72.276  1.00  0.00    -0.590 NA 
HETATM   17  C   UNL     1     -13.082  13.356  71.273  1.00  0.00    -0.238 A  
BRANCH  17  18
HETATM   18  N   UNL     1     -12.471  12.181  70.934  1.00  0.00    -0.342 NA 
HETATM   19  C   UNL     1     -12.503  10.984  71.777  1.00  0.00    -0.089 C  
HETATM   20  C   UNL     1     -12.688   9.758  70.868  1.00  0.00    -0.247 C  
HETATM   21  O   UNL     1     -11.645   9.680  69.878  1.00  0.00    -0.163 OA 
HETATM   22  C   UNL     1     -11.621  10.870  69.068  1.00  0.00    -0.316 C  
HETATM   23  C   UNL     1     -11.413  12.138  69.918  1.00  0.00    -0.133 C  
ENDBRANCH  17  18
ENDBRANCH  12  13
ENDBRANCH  11  12
ENDBRANCH   1  11
TORSDOF 6
ENDMDL
MODEL      143
REMARK 921   NORMALIZED FREE ENERGY PREDICTED BY IDOCK:   -4.16 KCAL/MOL
REMARK 922        TOTAL FREE ENERGY PREDICTED BY IDOCK:   -6.41 KCAL/MOL
REMARK 923 INTER-LIGAND FREE ENERGY PREDICTED BY IDOCK:   -5.31 KCAL/MOL
REMARK 924 INTRA-LIGAND FREE ENERGY PREDICTED BY IDOCK:   -1.10 KCAL/MOL
REMARK 927      BINDING AFFINITY PREDICTED BY RF-SCORE:    0.00 PKD
ROOT
HETATM    1  C   UNL     1     -10.357   6.802  68.301  1.00  0.00    -0.187 C  
HETATM    2  H   UNL     1      -8.641   6.024  67.779  1.00  0.00     0.000 HD 
HETATM    3  O   UNL     1      -9.227   5.939  68.521  1.00  0.00    -0.118 OA 
ENDROOT
BRANCH   1   4
HETATM    4  C   UNL     1     -11.309   6.664  69.508  1.00  0.00    -0.299 C  
BRANCH   4   5
HETATM    5  N   UNL     1     -11.764   7.954  70.035  1.00  0.00    -0.443 NA 
HETATM    6  C   UNL     1     -12.604   9.396  71.789  1.00  0.00    -0.470 C  
HETATM    7  C   UNL     1     -10.876   7.689  72.353  1.00  0.00    -0.341 C  
HETATM    8  C   UNL     1     -12.106   7.971  71.472  1.00  0.00    -0.298 C  
HETATM    9  H   UNL     1     -12.551   8.297  69.485  1.00  0.00     0.000 HD 
HETATM   10  C   UNL     1     -13.235   6.981  71.806  1.00  0.00    -0.326 C  
ENDBRANCH   4   5
ENDBRANCH   1   4
BRANCH   1  11
HETATM   11  C   UNL     1      -9.866   8.235  68.058  1.00  0.00    -0.169 C  
BRANCH  11  12
HETATM   12  O   UNL     1     -10.886   8.946  67.350  1.00  0.00    -0.218 OA 
BRANCH  12  13
HETATM   13  C   UNL     1     -10.953  10.280  67.614  1.00  0.00    -0.294 A  
HETATM   14  N   UNL     1     -11.910  10.746  68.419  1.00  0.00    -0.483 NA 
HETATM   15  S   UNL     1     -11.696  12.402  68.389  1.00  0.00    -0.323 SA 
HETATM   16  N   UNL     1     -10.405  12.528  67.342  1.00  0.00    -0.215 NA 
HETATM   17  C   UNL     1     -10.070  11.274  67.011  1.00  0.00    -0.206 A  
BRANCH  17  18
HETATM   18  N   UNL     1      -9.071  10.966  66.130  1.00  0.00    -0.177 NA 
HETATM   19  C   UNL     1      -7.663  11.295  66.364  1.00  0.00    -0.089 C  
HETATM   20  C   UNL     1      -6.805  10.108  65.894  1.00  0.00    -0.115 C  
HETATM   21  O   UNL     1      -7.055   9.799  64.510  1.00  0.00    -0.116 OA 
HETATM   22  C   UNL     1      -8.446   9.491  64.298  1.00  0.00    -0.184 C  
HETATM   23  C   UNL     1      -9.361  10.654  64.726  1.00  0.00    -0.233 C  
ENDBRANCH  17  18
ENDBRANCH  12  13
ENDBRANCH  11  12
ENDBRANCH   1  11
TORSDOF 6
ENDMDL
MODEL      144
REMARK 921   NORMALIZED FREE ENERGY PREDICTED BY IDOCK:   -4.16 KCAL/MOL
REMARK 922        TOTAL FREE ENERGY PREDICTED BY IDOCK:   -6.40 KCAL/MOL
REMARK 923 INTER-LIGAND FREE ENERGY PREDICTED BY IDOCK:   -5.69 KCAL/MOL
REMARK 924 INTRA-LIGAND FREE ENERGY PREDICTED BY IDOCK:   -0.71 KCAL/MOL
REMARK 927      BINDING AFFINITY PREDICTED BY RF-SCORE:    0.00 PKD
ROOT
HETATM    1  C   UNL     1     -10.012  11.132  66.465  1.00  0.00    -0.214 C  
HETATM    2  H   UNL     1     -10.916   9.918  65.228  1.00  0.00     0.000 HD 
HETATM    3  O   UNL     1     -10.475  10.756  65.157  1.00  0.00    -0.285 OA 
ENDROOT
BRANCH   1   4
HETATM    4  C   UNL     1      -9.296  12.495  66.349  1.00  0.00    -0.209 C  
BRANCH   4   5
HETATM    5  N   UNL     1      -9.918  13.392  65.371  1.00  0.00    -0.478 NA 
HETATM    6  C   UNL     1     -10.968  15.471  64.709  1.00  0.00    -0.416 C  
HETATM    7  C   UNL     1      -9.055  15.540  66.306  1.00  0.00    -0.369 C  
HETATM    8  C   UNL     1     -10.290  14.728  65.879  1.00  0.00    -0.320 C  
HETATM    9  H   UNL     1     -10.730  12.940  64.950  1.00  0.00     0.000 HD 
HETATM   10  C   UNL     1     -11.295  14.642  67.040  1.00  0.00    -0.362 C  
ENDBRANCH   4   5
ENDBRANCH   1   4
BRANCH   1  11
HETATM   11  C   UNL     1     -11.193  11.133  67.445  1.00  0.00    -0.294 C  
BRANCH  11  12
HETATM   12  O   UNL     1     -10.688  11.394  68.758  1.00  0.00    -0.187 OA 
BRANCH  12  13
HETATM   13  C   UNL     1     -11.375  10.800  69.772  1.00  0.00    -0.300 A  
HETATM   14  N   UNL     1     -12.433  11.416  70.302  1.00  0.00    -0.262 NA 
HETATM   15  S   UNL     1     -12.903  10.414  71.552  1.00  0.00    -0.496 SA 
HETATM   16  N   UNL     1     -11.756   9.211  71.433  1.00  0.00    -0.316 NA 
HETATM   17  C   UNL     1     -10.988   9.531  70.384  1.00  0.00    -0.278 A  
BRANCH  17  18
HETATM   18  N   UNL     1      -9.903   8.799  69.989  1.00  0.00    -0.174 NA 
HETATM   19  C   UNL     1      -8.533   9.100  70.409  1.00  0.00    -0.199 C  
HETATM   20  C   UNL     1      -7.815   7.772  70.702  1.00  0.00    -0.096 C  
HETATM   21  O   UNL     1      -7.837   6.903  69.554  1.00  0.00    -0.114 OA 
HETATM   22  C   UNL     1      -9.192   6.628  69.149  1.00  0.00    -0.136 C  
HETATM   23  C   UNL     1      -9.963   7.920  68.815  1.00  0.00    -0.187 C  
ENDBRANCH  17  18
ENDBRANCH  12  13
ENDBRANCH  11  12
ENDBRANCH   1  11
TORSDOF 6
ENDMDL
MODEL      145
REMARK 921   NORMALIZED FREE ENERGY PREDICTED BY IDOCK:   -4.13 KCAL/MOL
REMARK 922        TOTAL FREE ENERGY PREDICTED BY IDOCK:   -6.36 KCAL/MOL
REMARK 923 INTER-LIGAND FREE ENERGY PREDICTED BY IDOCK:   -5.91 KCAL/MOL
REMARK 924 INTRA-LIGAND FREE ENERGY PREDICTED BY IDOCK:   -0.45 KCAL/MOL
REMARK 927      BINDING AFFINITY PREDICTED BY RF-SCORE:    0.00 PKD
ROOT
HETATM    1  C   UNL     1     -12.158  12.604  68.486  1.00  0.00    -0.085 C  
HETATM    2  H   UNL     1     -11.964  13.057  70.377  1.00  0.00     0.000 HD 
HETATM    3  O   UNL     1     -11.724  13.465  69.554  1.00  0.00    -0.292 OA 
ENDROOT
BRANCH   1   4
HETATM    4  C   UNL     1     -11.768  13.267  67.147  1.00  0.00    -0.376 C  
BRANCH   4   5
HETATM    5  N   UNL     1     -11.543  14.711  67.261  1.00  0.00    -0.379 NA 
HETATM    6  C   UNL     1     -10.408  16.771  66.689  1.00  0.00    -0.297 C  
HETATM    7  C   UNL     1     -10.914  15.130  64.882  1.00  0.00    -0.434 C  
HETATM    8  C   UNL     1     -10.512  15.268  66.361  1.00  0.00    -0.303 C  
HETATM    9  H   UNL     1     -11.330  14.955  68.228  1.00  0.00     0.000 HD 
HETATM   10  C   UNL     1      -9.134  14.627  66.598  1.00  0.00    -0.285 C  
ENDBRANCH   4   5
ENDBRANCH   1   4
BRANCH   1  11
HETATM   11  C   UNL     1     -11.561  11.205  68.682  1.00  0.00    -0.315 C  
BRANCH  11  12
HETATM   12  O   UNL     1     -11.182  11.066  70.055  1.00  0.00    -0.273 OA 
BRANCH  12  13
HETATM   13  C   UNL     1     -11.978  10.249  70.797  1.00  0.00    -0.360 A  
HETATM   14  N   UNL     1     -13.017  10.762  71.458  1.00  0.00    -0.439 NA 
HETATM   15  S   UNL     1     -13.645   9.463  72.300  1.00  0.00    -0.408 SA 
HETATM   16  N   UNL     1     -12.590   8.258  71.842  1.00  0.00    -0.329 NA 
HETATM   17  C   UNL     1     -11.732   8.821  70.981  1.00  0.00    -0.282 A  
BRANCH  17  18
HETATM   18  N   UNL     1     -10.684   8.152  70.412  1.00  0.00    -0.229 NA 
HETATM   19  C   UNL     1     -10.751   6.747  70.007  1.00  0.00    -0.247 C  
HETATM   20  C   UNL     1     -10.016   6.595  68.665  1.00  0.00    -0.147 C  
HETATM   21  O   UNL     1      -8.654   7.054  68.761  1.00  0.00    -0.125 OA 
HETATM   22  C   UNL     1      -8.609   8.434  69.172  1.00  0.00    -0.134 C  
HETATM   23  C   UNL     1      -9.309   8.651  70.527  1.00  0.00    -0.175 C  
ENDBRANCH  17  18
ENDBRANCH  12  13
ENDBRANCH  11  12
ENDBRANCH   1  11
TORSDOF 6
ENDMDL
MODEL      146
REMARK 921   NORMALIZED FREE ENERGY PREDICTED BY IDOCK:   -4.07 KCAL/MOL
REMARK 922        TOTAL FREE ENERGY PREDICTED BY IDOCK:   -6.29 KCAL/MOL
REMARK 923 INTER-LIGAND FREE ENERGY PREDICTED BY IDOCK:   -5.40 KCAL/MOL
REMARK 924 INTRA-LIGAND FREE ENERGY PREDICTED BY IDOCK:   -0.89 KCAL/MOL
REMARK 927      BINDING AFFINITY PREDICTED BY RF-SCORE:    0.00 PKD
ROOT
HETATM    1  C   UNL     1     -11.820  12.188  68.436  1.00  0.00    -0.303 C  
HETATM    2  H   UNL     1     -11.374  12.451  70.320  1.00  0.00     0.000 HD 
HETATM    3  O   UNL     1     -11.235  12.936  69.516  1.00  0.00    -0.185 OA 
ENDROOT
BRANCH   1   4
HETATM    4  C   UNL     1     -11.593  12.976  67.128  1.00  0.00    -0.358 C  
BRANCH   4   5
HETATM    5  N   UNL     1     -12.322  12.419  65.984  1.00  0.00    -0.551 NA 
HETATM    6  C   UNL     1     -12.633  11.993  63.622  1.00  0.00    -0.605 C  
HETATM    7  C   UNL     1     -10.337  11.847  64.582  1.00  0.00    -0.326 C  
HETATM    8  C   UNL     1     -11.676  12.600  64.668  1.00  0.00    -0.357 C  
HETATM    9  H   UNL     1     -13.271  12.792  65.961  1.00  0.00     0.000 HD 
HETATM   10  C   UNL     1     -11.471  14.085  64.327  1.00  0.00    -0.314 C  
ENDBRANCH   4   5
ENDBRANCH   1   4
BRANCH   1  11
HETATM   11  C   UNL     1     -11.232  10.772  68.417  1.00  0.00    -0.284 C  
BRANCH  11  12
HETATM   12  O   UNL     1     -10.072  10.777  67.579  1.00  0.00    -0.177 OA 
BRANCH  12  13
HETATM   13  C   UNL     1      -8.893  10.548  68.219  1.00  0.00    -0.139 A  
HETATM   14  N   UNL     1      -8.042  11.557  68.418  1.00  0.00    -0.143 NA 
HETATM   15  S   UNL     1      -6.713  10.835  69.126  1.00  0.00    -0.085 SA 
HETATM   16  N   UNL     1      -7.208   9.244  69.162  1.00  0.00    -0.065 NA 
HETATM   17  C   UNL     1      -8.448   9.228  68.658  1.00  0.00    -0.123 A  
BRANCH  17  18
HETATM   18  N   UNL     1      -9.180   8.086  68.487  1.00  0.00    -0.136 NA 
HETATM   19  C   UNL     1      -9.505   7.167  69.580  1.00  0.00    -0.151 C  
HETATM   20  C   UNL     1     -10.956   6.692  69.396  1.00  0.00    -0.309 C  
HETATM   21  O   UNL     1     -11.143   6.072  68.110  1.00  0.00    -0.306 OA 
HETATM   22  C   UNL     1     -10.807   6.987  67.049  1.00  0.00    -0.343 C  
HETATM   23  C   UNL     1      -9.353   7.483  67.160  1.00  0.00    -0.142 C  
ENDBRANCH  17  18
ENDBRANCH  12  13
ENDBRANCH  11  12
ENDBRANCH   1  11
TORSDOF 6
ENDMDL
MODEL      147
REMARK 921   NORMALIZED FREE ENERGY PREDICTED BY IDOCK:   -4.06 KCAL/MOL
REMARK 922        TOTAL FREE ENERGY PREDICTED BY IDOCK:   -6.27 KCAL/MOL
REMARK 923 INTER-LIGAND FREE ENERGY PREDICTED BY IDOCK:   -5.80 KCAL/MOL
REMARK 924 INTRA-LIGAND FREE ENERGY PREDICTED BY IDOCK:   -0.47 KCAL/MOL
REMARK 927      BINDING AFFINITY PREDICTED BY RF-SCORE:    0.00 PKD
ROOT
HETATM    1  C   UNL     1      -9.827  17.841  65.908  1.00  0.00    -0.063 C  
HETATM    2  H   UNL     1     -11.390  18.981  66.182  1.00  0.00     0.000 HD 
HETATM    3  O   UNL     1     -10.570  18.833  66.638  1.00  0.00    -0.403 OA 
ENDROOT
BRANCH   1   4
HETATM    4  C   UNL     1      -8.494  17.599  66.648  1.00  0.00    -0.259 C  
BRANCH   4   5
HETATM    5  N   UNL     1      -8.331  18.443  67.835  1.00  0.00    -0.256 NA 
HETATM    6  C   UNL     1      -7.037  19.838  69.332  1.00  0.00    -0.304 C  
HETATM    7  C   UNL     1      -6.664  20.034  66.875  1.00  0.00    -0.245 C  
HETATM    8  C   UNL     1      -6.994  19.048  68.008  1.00  0.00    -0.232 C  
HETATM    9  H   UNL     1      -8.588  17.921  68.672  1.00  0.00     0.000 HD 
HETATM   10  C   UNL     1      -5.891  17.982  68.120  1.00  0.00    -0.168 C  
ENDBRANCH   4   5
ENDBRANCH   1   4
BRANCH   1  11
HETATM   11  C   UNL     1     -10.683  16.579  65.742  1.00  0.00    -0.225 C  
BRANCH  11  12
HETATM   12  O   UNL     1     -10.761  15.919  67.010  1.00  0.00    -0.316 OA 
BRANCH  12  13
HETATM   13  C   UNL     1     -10.822  14.560  66.953  1.00  0.00    -0.305 A  
HETATM   14  N   UNL     1     -10.657  13.940  65.783  1.00  0.00    -0.290 NA 
HETATM   15  S   UNL     1     -10.906  12.327  66.138  1.00  0.00    -0.291 SA 
HETATM   16  N   UNL     1     -11.242  12.418  67.768  1.00  0.00    -0.256 NA 
HETATM   17  C   UNL     1     -11.130  13.711  68.101  1.00  0.00    -0.256 A  
BRANCH  17  18
HETATM   18  N   UNL     1     -11.372  14.192  69.357  1.00  0.00    -0.264 NA 
HETATM   19  C   UNL     1     -10.578  15.256  69.977  1.00  0.00    -0.270 C  
HETATM   20  C   UNL     1     -11.533  16.191  70.737  1.00  0.00    -0.378 C  
HETATM   21  O   UNL     1     -12.305  15.467  71.714  1.00  0.00    -0.335 OA 
HETATM   22  C   UNL     1     -13.069  14.419  71.087  1.00  0.00    -0.352 C  
HETATM   23  C   UNL     1     -12.166  13.429  70.327  1.00  0.00    -0.335 C  
ENDBRANCH  17  18
ENDBRANCH  12  13
ENDBRANCH  11  12
ENDBRANCH   1  11
TORSDOF 6
ENDMDL
MODEL      148
REMARK 921   NORMALIZED FREE ENERGY PREDICTED BY IDOCK:   -4.06 KCAL/MOL
REMARK 922        TOTAL FREE ENERGY PREDICTED BY IDOCK:   -6.27 KCAL/MOL
REMARK 923 INTER-LIGAND FREE ENERGY PREDICTED BY IDOCK:   -5.81 KCAL/MOL
REMARK 924 INTRA-LIGAND FREE ENERGY PREDICTED BY IDOCK:   -0.46 KCAL/MOL
REMARK 927      BINDING AFFINITY PREDICTED BY RF-SCORE:    0.00 PKD
ROOT
HETATM    1  C   UNL     1     -10.004  18.169  66.336  1.00  0.00    -0.376 C  
HETATM    2  H   UNL     1     -11.311  19.559  65.913  1.00  0.00     0.000 HD 
HETATM    3  O   UNL     1     -10.903  19.229  66.704  1.00  0.00    -0.420 OA 
ENDROOT
BRANCH   1   4
HETATM    4  C   UNL     1      -9.341  17.632  67.622  1.00  0.00    -0.246 C  
BRANCH   4   5
HETATM    5  N   UNL     1      -8.646  18.669  68.390  1.00  0.00    -0.329 NA 
HETATM    6  C   UNL     1      -6.675  19.667  69.380  1.00  0.00    -0.389 C  
HETATM    7  C   UNL     1      -6.495  18.622  67.124  1.00  0.00    -0.196 C  
HETATM    8  C   UNL     1      -7.181  18.509  68.496  1.00  0.00    -0.288 C  
HETATM    9  H   UNL     1      -9.057  18.749  69.320  1.00  0.00     0.000 HD 
HETATM   10  C   UNL     1      -6.796  17.183  69.174  1.00  0.00    -0.236 C  
ENDBRANCH   4   5
ENDBRANCH   1   4
BRANCH   1  11
HETATM   11  C   UNL     1     -10.770  17.103  65.541  1.00  0.00    -0.117 C  
BRANCH  11  12
HETATM   12  O   UNL     1     -10.695  15.867  66.258  1.00  0.00    -0.310 OA 
BRANCH  12  13
HETATM   13  C   UNL     1     -11.005  14.757  65.534  1.00  0.00    -0.346 A  
HETATM   14  N   UNL     1     -11.861  14.851  64.515  1.00  0.00    -0.426 NA 
HETATM   15  S   UNL     1     -12.034  13.278  63.982  1.00  0.00    -0.467 SA 
HETATM   16  N   UNL     1     -11.041  12.477  65.054  1.00  0.00    -0.290 NA 
HETATM   17  C   UNL     1     -10.506  13.419  65.842  1.00  0.00    -0.287 A  
BRANCH  17  18
HETATM   18  N   UNL     1      -9.661  13.146  66.880  1.00  0.00    -0.240 NA 
HETATM   19  C   UNL     1     -10.059  12.376  68.061  1.00  0.00    -0.214 C  
HETATM   20  C   UNL     1      -8.897  11.445  68.446  1.00  0.00    -0.167 C  
HETATM   21  O   UNL     1      -7.688  12.189  68.682  1.00  0.00    -0.125 OA 
HETATM   22  C   UNL     1      -7.319  12.948  67.514  1.00  0.00    -0.154 C  
HETATM   23  C   UNL     1      -8.434  13.923  67.090  1.00  0.00    -0.180 C  
ENDBRANCH  17  18
ENDBRANCH  12  13
ENDBRANCH  11  12
ENDBRANCH   1  11
TORSDOF 6
ENDMDL
MODEL      149
REMARK 921   NORMALIZED FREE ENERGY PREDICTED BY IDOCK:   -4.05 KCAL/MOL
REMARK 922        TOTAL FREE ENERGY PREDICTED BY IDOCK:   -6.25 KCAL/MOL
REMARK 923 INTER-LIGAND FREE ENERGY PREDICTED BY IDOCK:   -5.47 KCAL/MOL
REMARK 924 INTRA-LIGAND FREE ENERGY PREDICTED BY IDOCK:   -0.78 KCAL/MOL
REMARK 927      BINDING AFFINITY PREDICTED BY RF-SCORE:    0.00 PKD
ROOT
HETATM    1  C   UNL     1     -11.538  14.122  67.134  1.00  0.00    -0.377 C  
HETATM    2  H   UNL     1     -10.204  13.896  65.723  1.00  0.00     0.000 HD 
HETATM    3  O   UNL     1     -10.394  13.474  66.552  1.00  0.00    -0.272 OA 
ENDROOT
BRANCH   1   4
HETATM    4  C   UNL     1     -11.846  13.436  68.482  1.00  0.00    -0.366 C  
BRANCH   4   5
HETATM    5  N   UNL     1     -10.751  12.588  68.962  1.00  0.00    -0.405 NA 
HETATM    6  C   UNL     1      -9.800  10.471  69.650  1.00  0.00    -0.117 C  
HETATM    7  C   UNL     1     -11.374  10.516  67.718  1.00  0.00    -0.267 C  
HETATM    8  C   UNL     1     -11.064  11.150  69.085  1.00  0.00    -0.248 C  
HETATM    9  H   UNL     1     -10.397  12.945  69.849  1.00  0.00     0.000 HD 
HETATM   10  C   UNL     1     -12.225  10.896  70.061  1.00  0.00    -0.422 C  
ENDBRANCH   4   5
ENDBRANCH   1   4
BRANCH   1  11
HETATM   11  C   UNL     1     -11.267  15.628  67.252  1.00  0.00    -0.184 C  
BRANCH  11  12
HETATM   12  O   UNL     1     -10.284  15.830  68.272  1.00  0.00    -0.220 OA 
BRANCH  12  13
HETATM   13  C   UNL     1      -9.793  17.096  68.361  1.00  0.00    -0.296 A  
HETATM   14  N   UNL     1     -10.625  18.135  68.267  1.00  0.00    -0.308 NA 
HETATM   15  S   UNL     1      -9.619  19.468  68.322  1.00  0.00    -0.401 SA 
HETATM   16  N   UNL     1      -8.131  18.727  68.445  1.00  0.00    -0.329 NA 
HETATM   17  C   UNL     1      -8.372  17.410  68.489  1.00  0.00    -0.271 A  
BRANCH  17  18
HETATM   18  N   UNL     1      -7.389  16.463  68.550  1.00  0.00    -0.171 NA 
HETATM   19  C   UNL     1      -6.451  16.347  69.670  1.00  0.00    -0.201 C  
HETATM   20  C   UNL     1      -6.245  14.855  69.975  1.00  0.00    -0.156 C  
HETATM   21  O   UNL     1      -5.774  14.144  68.815  1.00  0.00    -0.077 OA 
HETATM   22  C   UNL     1      -6.703  14.280  67.722  1.00  0.00    -0.176 C  
HETATM   23  C   UNL     1      -6.935  15.755  67.347  1.00  0.00    -0.202 C  
ENDBRANCH  17  18
ENDBRANCH  12  13
ENDBRANCH  11  12
ENDBRANCH   1  11
TORSDOF 6
ENDMDL
MODEL      150
REMARK 921   NORMALIZED FREE ENERGY PREDICTED BY IDOCK:   -4.04 KCAL/MOL
REMARK 922        TOTAL FREE ENERGY PREDICTED BY IDOCK:   -6.24 KCAL/MOL
REMARK 923 INTER-LIGAND FREE ENERGY PREDICTED BY IDOCK:   -5.84 KCAL/MOL
REMARK 924 INTRA-LIGAND FREE ENERGY PREDICTED BY IDOCK:   -0.39 KCAL/MOL
REMARK 927      BINDING AFFINITY PREDICTED BY RF-SCORE:    0.00 PKD
ROOT
HETATM    1  C   UNL     1      -8.404  13.914  67.405  1.00  0.00    -0.198 C  
HETATM    2  H   UNL     1      -7.234  12.894  68.593  1.00  0.00     0.000 HD 
HETATM    3  O   UNL     1      -8.117  12.793  68.259  1.00  0.00    -0.146 OA 
ENDROOT
BRANCH   1   4
HETATM    4  C   UNL     1      -9.839  13.750  66.862  1.00  0.00    -0.264 C  
BRANCH   4   5
HETATM    5  N   UNL     1      -9.886  13.498  65.419  1.00  0.00    -0.518 NA 
HETATM    6  C   UNL     1     -10.667  12.314  63.457  1.00  0.00    -0.497 C  
HETATM    7  C   UNL     1     -12.285  12.824  65.283  1.00  0.00    -0.535 C  
HETATM    8  C   UNL     1     -10.825  12.443  64.986  1.00  0.00    -0.295 C  
HETATM    9  H   UNL     1      -8.949  13.295  65.070  1.00  0.00     0.000 HD 
HETATM   10  C   UNL     1     -10.493  11.082  65.620  1.00  0.00    -0.293 C  
ENDBRANCH   4   5
ENDBRANCH   1   4
BRANCH   1  11
HETATM   11  C   UNL     1      -8.180  15.218  68.181  1.00  0.00    -0.141 C  
BRANCH  11  12
HETATM   12  O   UNL     1      -6.837  15.655  67.948  1.00  0.00    -0.118 OA 
BRANCH  12  13
HETATM   13  C   UNL     1      -6.386  16.619  68.797  1.00  0.00    -0.152 A  
HETATM   14  N   UNL     1      -5.547  16.292  69.782  1.00  0.00    -0.146 NA 
HETATM   15  S   UNL     1      -5.334  17.717  70.625  1.00  0.00    -0.226 SA 
HETATM   16  N   UNL     1      -6.318  18.742  69.754  1.00  0.00    -0.221 NA 
HETATM   17  C   UNL     1      -6.817  18.014  68.747  1.00  0.00    -0.259 A  
BRANCH  17  18
HETATM   18  N   UNL     1      -7.706  18.500  67.830  1.00  0.00    -0.247 NA 
HETATM   19  C   UNL     1      -9.144  18.613  68.086  1.00  0.00    -0.313 C  
HETATM   20  C   UNL     1      -9.638  19.940  67.485  1.00  0.00    -0.370 C  
HETATM   21  O   UNL     1      -9.343  20.018  66.078  1.00  0.00    -0.383 OA 
HETATM   22  C   UNL     1      -7.926  19.893  65.847  1.00  0.00    -0.276 C  
HETATM   23  C   UNL     1      -7.370  18.569  66.404  1.00  0.00    -0.247 C  
ENDBRANCH  17  18
ENDBRANCH  12  13
ENDBRANCH  11  12
ENDBRANCH   1  11
TORSDOF 6
ENDMDL
MODEL      151
REMARK 921   NORMALIZED FREE ENERGY PREDICTED BY IDOCK:   -4.03 KCAL/MOL
REMARK 922        TOTAL FREE ENERGY PREDICTED BY IDOCK:   -6.23 KCAL/MOL
REMARK 923 INTER-LIGAND FREE ENERGY PREDICTED BY IDOCK:   -5.53 KCAL/MOL
REMARK 924 INTRA-LIGAND FREE ENERGY PREDICTED BY IDOCK:   -0.69 KCAL/MOL
REMARK 927      BINDING AFFINITY PREDICTED BY RF-SCORE:    0.00 PKD
ROOT
HETATM    1  C   UNL     1     -10.586   8.056  67.122  1.00  0.00    -0.297 C  
HETATM    2  H   UNL     1     -11.124   6.598  65.937  1.00  0.00     0.000 HD 
HETATM    3  O   UNL     1     -10.964   6.692  66.869  1.00  0.00    -0.376 OA 
ENDROOT
BRANCH   1   4
HETATM    4  C   UNL     1     -10.325   8.209  68.636  1.00  0.00    -0.200 C  
BRANCH   4   5
HETATM    5  N   UNL     1     -11.303   7.499  69.465  1.00  0.00    -0.455 NA 
HETATM    6  C   UNL     1     -12.420   7.026  71.560  1.00  0.00    -0.426 C  
HETATM    7  C   UNL     1     -11.866   9.390  70.994  1.00  0.00    -0.396 C  
HETATM    8  C   UNL     1     -11.380   7.935  70.874  1.00  0.00    -0.277 C  
HETATM    9  H   UNL     1     -11.134   6.494  69.420  1.00  0.00     0.000 HD 
HETATM   10  C   UNL     1     -10.037   7.764  71.604  1.00  0.00    -0.224 C  
ENDBRANCH   4   5
ENDBRANCH   1   4
BRANCH   1  11
HETATM   11  C   UNL     1      -9.383   8.426  66.245  1.00  0.00    -0.219 C  
BRANCH  11  12
HETATM   12  O   UNL     1      -9.451   9.825  65.953  1.00  0.00    -0.188 OA 
BRANCH  12  13
HETATM   13  C   UNL     1      -8.350  10.544  66.302  1.00  0.00    -0.152 A  
HETATM   14  N   UNL     1      -7.146   9.972  66.258  1.00  0.00    -0.100 NA 
HETATM   15  S   UNL     1      -6.115  11.145  66.851  1.00  0.00    -0.119 SA 
HETATM   16  N   UNL     1      -7.197  12.369  67.180  1.00  0.00    -0.120 NA 
HETATM   17  C   UNL     1      -8.399  11.917  66.799  1.00  0.00    -0.153 A  
BRANCH  17  18
HETATM   18  N   UNL     1      -9.557  12.628  66.948  1.00  0.00    -0.225 NA 
HETATM   19  C   UNL     1     -10.062  13.563  65.940  1.00  0.00    -0.303 C  
HETATM   20  C   UNL     1     -11.588  13.398  65.850  1.00  0.00    -0.342 C  
HETATM   21  O   UNL     1     -12.213  13.610  67.130  1.00  0.00    -0.372 OA 
HETATM   22  C   UNL     1     -11.694  12.690  68.110  1.00  0.00    -0.347 C  
HETATM   23  C   UNL     1     -10.168  12.823  68.268  1.00  0.00    -0.244 C  
ENDBRANCH  17  18
ENDBRANCH  12  13
ENDBRANCH  11  12
ENDBRANCH   1  11
TORSDOF 6
ENDMDL
MODEL      152
REMARK 921   NORMALIZED FREE ENERGY PREDICTED BY IDOCK:   -4.03 KCAL/MOL
REMARK 922        TOTAL FREE ENERGY PREDICTED BY IDOCK:   -6.23 KCAL/MOL
REMARK 923 INTER-LIGAND FREE ENERGY PREDICTED BY IDOCK:   -6.16 KCAL/MOL
REMARK 924 INTRA-LIGAND FREE ENERGY PREDICTED BY IDOCK:   -0.06 KCAL/MOL
REMARK 927      BINDING AFFINITY PREDICTED BY RF-SCORE:    0.00 PKD
ROOT
HETATM    1  C   UNL     1     -11.833  11.693  69.233  1.00  0.00    -0.331 C  
HETATM    2  H   UNL     1     -10.043  11.031  68.811  1.00  0.00     0.000 HD 
HETATM    3  O   UNL     1     -10.440  11.499  69.535  1.00  0.00    -0.043 OA 
ENDROOT
BRANCH   1   4
HETATM    4  C   UNL     1     -12.478  12.454  70.411  1.00  0.00    -0.136 C  
BRANCH   4   5
HETATM    5  N   UNL     1     -11.711  13.631  70.827  1.00  0.00    -0.501 NA 
HETATM    6  C   UNL     1     -11.495  15.830  71.817  1.00  0.00    -0.484 C  
HETATM    7  C   UNL     1     -13.037  14.178  72.870  1.00  0.00    -0.544 C  
HETATM    8  C   UNL     1     -12.481  14.680  71.526  1.00  0.00    -0.346 C  
HETATM    9  H   UNL     1     -11.224  14.032  70.025  1.00  0.00     0.000 HD 
HETATM   10  C   UNL     1     -13.621  15.233  70.655  1.00  0.00    -0.187 C  
ENDBRANCH   4   5
ENDBRANCH   1   4
BRANCH   1  11
HETATM   11  C   UNL     1     -11.969  12.408  67.883  1.00  0.00    -0.196 C  
BRANCH  11  12
HETATM   12  O   UNL     1     -11.392  11.574  66.873  1.00  0.00    -0.347 OA 
BRANCH  12  13
HETATM   13  C   UNL     1     -11.452  12.072  65.607  1.00  0.00    -0.316 A  
HETATM   14  N   UNL     1     -12.357  13.005  65.306  1.00  0.00    -0.464 NA 
HETATM   15  S   UNL     1     -12.157  13.252  63.667  1.00  0.00    -0.420 SA 
HETATM   16  N   UNL     1     -10.939  12.164  63.336  1.00  0.00    -0.431 NA 
HETATM   17  C   UNL     1     -10.617  11.598  64.506  1.00  0.00    -0.318 A  
BRANCH  17  18
HETATM   18  N   UNL     1      -9.675  10.616  64.638  1.00  0.00    -0.273 NA 
HETATM   19  C   UNL     1      -8.682  10.310  63.606  1.00  0.00    -0.206 C  
HETATM   20  C   UNL     1      -7.338  10.025  64.297  1.00  0.00    -0.133 C  
HETATM   21  O   UNL     1      -7.459   8.952  65.250  1.00  0.00    -0.087 OA 
HETATM   22  C   UNL     1      -8.448   9.266  66.249  1.00  0.00    -0.127 C  
HETATM   23  C   UNL     1      -9.829   9.539  65.622  1.00  0.00    -0.272 C  
ENDBRANCH  17  18
ENDBRANCH  12  13
ENDBRANCH  11  12
ENDBRANCH   1  11
TORSDOF 6
ENDMDL
MODEL      153
REMARK 921   NORMALIZED FREE ENERGY PREDICTED BY IDOCK:   -4.02 KCAL/MOL
REMARK 922        TOTAL FREE ENERGY PREDICTED BY IDOCK:   -6.22 KCAL/MOL
REMARK 923 INTER-LIGAND FREE ENERGY PREDICTED BY IDOCK:   -5.57 KCAL/MOL
REMARK 924 INTRA-LIGAND FREE ENERGY PREDICTED BY IDOCK:   -0.65 KCAL/MOL
REMARK 927      BINDING AFFINITY PREDICTED BY RF-SCORE:    0.00 PKD
ROOT
HETATM    1  C   UNL     1      -9.985   8.841  67.179  1.00  0.00    -0.230 C  
HETATM    2  H   UNL     1     -10.792   9.602  65.570  1.00  0.00     0.000 HD 
HETATM    3  O   UNL     1      -9.990   9.135  65.771  1.00  0.00    -0.277 OA 
ENDROOT
BRANCH   1   4
HETATM    4  C   UNL     1      -8.680   8.083  67.507  1.00  0.00    -0.125 C  
BRANCH   4   5
HETATM    5  N   UNL     1      -8.593   7.662  68.908  1.00  0.00    -0.129 NA 
HETATM    6  C   UNL     1      -8.462   5.995  70.659  1.00  0.00    -0.133 C  
HETATM    7  C   UNL     1      -7.178   5.637  68.552  1.00  0.00    -0.075 C  
HETATM    8  C   UNL     1      -8.485   6.206  69.131  1.00  0.00    -0.119 C  
HETATM    9  H   UNL     1      -9.382   8.038  69.434  1.00  0.00     0.000 HD 
HETATM   10  C   UNL     1      -9.693   5.445  68.558  1.00  0.00    -0.183 C  
ENDBRANCH   4   5
ENDBRANCH   1   4
BRANCH   1  11
HETATM   11  C   UNL     1     -10.164  10.140  67.974  1.00  0.00    -0.173 C  
BRANCH  11  12
HETATM   12  O   UNL     1     -11.565  10.361  68.165  1.00  0.00    -0.355 OA 
BRANCH  12  13
HETATM   13  C   UNL     1     -11.882  11.426  68.952  1.00  0.00    -0.347 A  
HETATM   14  N   UNL     1     -11.770  12.663  68.465  1.00  0.00    -0.314 NA 
HETATM   15  S   UNL     1     -12.148  13.646  69.762  1.00  0.00    -0.311 SA 
HETATM   16  N   UNL     1     -12.434  12.505  70.942  1.00  0.00    -0.336 NA 
HETATM   17  C   UNL     1     -12.283  11.312  70.352  1.00  0.00    -0.365 A  
BRANCH  17  18
HETATM   18  N   UNL     1     -12.399  10.121  71.012  1.00  0.00    -0.342 NA 
HETATM   19  C   UNL     1     -13.479   9.827  71.957  1.00  0.00    -0.407 C  
HETATM   20  C   UNL     1     -13.934   8.375  71.735  1.00  0.00    -0.420 C  
HETATM   21  O   UNL     1     -12.835   7.456  71.884  1.00  0.00    -0.317 OA 
HETATM   22  C   UNL     1     -11.779   7.769  70.955  1.00  0.00    -0.281 C  
HETATM   23  C   UNL     1     -11.259   9.206  71.142  1.00  0.00    -0.325 C  
ENDBRANCH  17  18
ENDBRANCH  12  13
ENDBRANCH  11  12
ENDBRANCH   1  11
TORSDOF 6
ENDMDL
MODEL      154
REMARK 921   NORMALIZED FREE ENERGY PREDICTED BY IDOCK:   -4.02 KCAL/MOL
REMARK 922        TOTAL FREE ENERGY PREDICTED BY IDOCK:   -6.21 KCAL/MOL
REMARK 923 INTER-LIGAND FREE ENERGY PREDICTED BY IDOCK:   -5.57 KCAL/MOL
REMARK 924 INTRA-LIGAND FREE ENERGY PREDICTED BY IDOCK:   -0.64 KCAL/MOL
REMARK 927      BINDING AFFINITY PREDICTED BY RF-SCORE:    0.00 PKD
ROOT
HETATM    1  C   UNL     1     -12.031  10.385  70.921  1.00  0.00    -0.377 C  
HETATM    2  H   UNL     1     -13.733  10.815  70.061  1.00  0.00     0.000 HD 
HETATM    3  O   UNL     1     -13.408  10.111  70.609  1.00  0.00    -0.310 OA 
ENDROOT
BRANCH   1   4
HETATM    4  C   UNL     1     -11.503   9.241  71.812  1.00  0.00    -0.378 C  
BRANCH   4   5
HETATM    5  N   UNL     1     -10.417   8.478  71.189  1.00  0.00    -0.210 NA 
HETATM    6  C   UNL     1      -8.817   6.662  71.118  1.00  0.00    -0.137 C  
HETATM    7  C   UNL     1     -11.112   6.216  71.986  1.00  0.00    -0.322 C  
HETATM    8  C   UNL     1      -9.990   7.266  71.919  1.00  0.00    -0.166 C  
HETATM    9  H   UNL     1      -9.616   9.086  71.022  1.00  0.00     0.000 HD 
HETATM   10  C   UNL     1      -9.487   7.595  73.334  1.00  0.00    -0.330 C  
ENDBRANCH   4   5
ENDBRANCH   1   4
BRANCH   1  11
HETATM   11  C   UNL     1     -11.239  10.575  69.621  1.00  0.00    -0.282 C  
BRANCH  11  12
HETATM   12  O   UNL     1     -11.995  11.427  68.754  1.00  0.00    -0.412 OA 
BRANCH  12  13
HETATM   13  C   UNL     1     -11.685  12.750  68.826  1.00  0.00    -0.323 A  
HETATM   14  N   UNL     1     -12.367  13.545  69.653  1.00  0.00    -0.227 NA 
HETATM   15  S   UNL     1     -11.748  15.067  69.358  1.00  0.00    -0.341 SA 
HETATM   16  N   UNL     1     -10.630  14.722  68.171  1.00  0.00    -0.238 NA 
HETATM   17  C   UNL     1     -10.674  13.395  67.992  1.00  0.00    -0.248 A  
BRANCH  17  18
HETATM   18  N   UNL     1      -9.922  12.732  67.064  1.00  0.00    -0.228 NA 
HETATM   19  C   UNL     1      -8.466  12.600  67.153  1.00  0.00    -0.186 C  
HETATM   20  C   UNL     1      -8.082  11.175  66.720  1.00  0.00    -0.155 C  
HETATM   21  O   UNL     1      -8.560  10.887  65.392  1.00  0.00    -0.176 OA 
HETATM   22  C   UNL     1      -9.991  11.034  65.322  1.00  0.00    -0.266 C  
HETATM   23  C   UNL     1     -10.441  12.452  65.720  1.00  0.00    -0.259 C  
ENDBRANCH  17  18
ENDBRANCH  12  13
ENDBRANCH  11  12
ENDBRANCH   1  11
TORSDOF 6
ENDMDL
MODEL      155
REMARK 921   NORMALIZED FREE ENERGY PREDICTED BY IDOCK:   -4.00 KCAL/MOL
REMARK 922        TOTAL FREE ENERGY PREDICTED BY IDOCK:   -6.19 KCAL/MOL
REMARK 923 INTER-LIGAND FREE ENERGY PREDICTED BY IDOCK:   -5.58 KCAL/MOL
REMARK 924 INTRA-LIGAND FREE ENERGY PREDICTED BY IDOCK:   -0.62 KCAL/MOL
REMARK 927      BINDING AFFINITY PREDICTED BY RF-SCORE:    0.00 PKD
ROOT
HETATM    1  C   UNL     1     -11.419  13.248  66.215  1.00  0.00    -0.325 C  
HETATM    2  H   UNL     1     -12.686  12.865  67.653  1.00  0.00     0.000 HD 
HETATM    3  O   UNL     1     -11.964  13.468  67.528  1.00  0.00    -0.361 OA 
ENDROOT
BRANCH   1   4
HETATM    4  C   UNL     1     -10.244  14.228  66.012  1.00  0.00    -0.315 C  
BRANCH   4   5
HETATM    5  N   UNL     1      -9.549  14.563  67.258  1.00  0.00    -0.221 NA 
HETATM    6  C   UNL     1      -8.555  16.116  68.827  1.00  0.00    -0.236 C  
HETATM    7  C   UNL     1     -10.677  16.749  67.681  1.00  0.00    -0.305 C  
HETATM    8  C   UNL     1      -9.342  16.004  67.505  1.00  0.00    -0.217 C  
HETATM    9  H   UNL     1      -8.657  14.069  67.303  1.00  0.00     0.000 HD 
HETATM   10  C   UNL     1      -8.510  16.664  66.393  1.00  0.00    -0.348 C  
ENDBRANCH   4   5
ENDBRANCH   1   4
BRANCH   1  11
HETATM   11  C   UNL     1     -11.029  11.772  66.064  1.00  0.00    -0.306 C  
BRANCH  11  12
HETATM   12  O   UNL     1     -11.496  11.063  67.216  1.00  0.00    -0.470 OA 
BRANCH  12  13
HETATM   13  C   UNL     1     -10.764   9.967  67.558  1.00  0.00    -0.281 A  
HETATM   14  N   UNL     1     -10.072   9.316  66.622  1.00  0.00    -0.263 NA 
HETATM   15  S   UNL     1      -9.421   8.009  67.432  1.00  0.00    -0.158 SA 
HETATM   16  N   UNL     1     -10.031   8.259  68.962  1.00  0.00    -0.184 NA 
HETATM   17  C   UNL     1     -10.734   9.397  68.903  1.00  0.00    -0.178 A  
BRANCH  17  18
HETATM   18  N   UNL     1     -11.425   9.916  69.962  1.00  0.00    -0.239 NA 
HETATM   19  C   UNL     1     -11.327  11.317  70.378  1.00  0.00     0.025 C  
HETATM   20  C   UNL     1     -12.733  11.804  70.767  1.00  0.00    -0.167 C  
HETATM   21  O   UNL     1     -13.302  10.983  71.803  1.00  0.00    -0.390 OA 
HETATM   22  C   UNL     1     -13.378   9.608  71.381  1.00  0.00    -0.368 C  
HETATM   23  C   UNL     1     -11.994   9.049  71.000  1.00  0.00    -0.269 C  
ENDBRANCH  17  18
ENDBRANCH  12  13
ENDBRANCH  11  12
ENDBRANCH   1  11
TORSDOF 6
ENDMDL
MODEL      156
REMARK 921   NORMALIZED FREE ENERGY PREDICTED BY IDOCK:   -3.99 KCAL/MOL
REMARK 922        TOTAL FREE ENERGY PREDICTED BY IDOCK:   -6.17 KCAL/MOL
REMARK 923 INTER-LIGAND FREE ENERGY PREDICTED BY IDOCK:   -5.90 KCAL/MOL
REMARK 924 INTRA-LIGAND FREE ENERGY PREDICTED BY IDOCK:   -0.27 KCAL/MOL
REMARK 927      BINDING AFFINITY PREDICTED BY RF-SCORE:    0.00 PKD
ROOT
HETATM    1  C   UNL     1     -12.049  13.750  69.332  1.00  0.00    -0.328 C  
HETATM    2  H   UNL     1     -13.697  14.204  70.279  1.00  0.00     0.000 HD 
HETATM    3  O   UNL     1     -12.872  14.640  70.104  1.00  0.00    -0.282 OA 
ENDROOT
BRANCH   1   4
HETATM    4  C   UNL     1     -10.707  14.460  69.049  1.00  0.00    -0.250 C  
BRANCH   4   5
HETATM    5  N   UNL     1     -10.826  15.554  68.082  1.00  0.00    -0.285 NA 
HETATM    6  C   UNL     1     -10.374  16.614  65.952  1.00  0.00    -0.355 C  
HETATM    7  C   UNL     1     -10.814  14.161  66.011  1.00  0.00    -0.297 C  
HETATM    8  C   UNL     1     -10.169  15.328  66.778  1.00  0.00    -0.272 C  
HETATM    9  H   UNL     1     -10.489  16.423  68.496  1.00  0.00     0.000 HD 
HETATM   10  C   UNL     1      -8.657  15.090  66.931  1.00  0.00    -0.280 C  
ENDBRANCH   4   5
ENDBRANCH   1   4
BRANCH   1  11
HETATM   11  C   UNL     1     -11.900  12.416  70.075  1.00  0.00    -0.288 C  
BRANCH  11  12
HETATM   12  O   UNL     1     -12.441  11.379  69.251  1.00  0.00    -0.276 OA 
BRANCH  12  13
HETATM   13  C   UNL     1     -11.520  10.591  68.631  1.00  0.00    -0.223 A  
HETATM   14  N   UNL     1     -11.258  10.775  67.336  1.00  0.00    -0.388 NA 
HETATM   15  S   UNL     1     -10.175   9.560  66.963  1.00  0.00    -0.257 SA 
HETATM   16  N   UNL     1     -10.053   8.792  68.437  1.00  0.00    -0.184 NA 
HETATM   17  C   UNL     1     -10.825   9.484  69.284  1.00  0.00    -0.191 A  
BRANCH  17  18
HETATM   18  N   UNL     1     -11.016   9.135  70.592  1.00  0.00    -0.246 NA 
HETATM   19  C   UNL     1     -12.335   9.086  71.227  1.00  0.00    -0.302 C  
HETATM   20  C   UNL     1     -12.385   7.851  72.141  1.00  0.00    -0.291 C  
HETATM   21  O   UNL     1     -11.327   7.880  73.118  1.00  0.00    -0.361 OA 
HETATM   22  C   UNL     1     -10.040   7.940  72.474  1.00  0.00    -0.261 C  
HETATM   23  C   UNL     1      -9.914   9.174  71.560  1.00  0.00    -0.287 C  
ENDBRANCH  17  18
ENDBRANCH  12  13
ENDBRANCH  11  12
ENDBRANCH   1  11
TORSDOF 6
ENDMDL
MODEL      157
REMARK 921   NORMALIZED FREE ENERGY PREDICTED BY IDOCK:   -3.97 KCAL/MOL
REMARK 922        TOTAL FREE ENERGY PREDICTED BY IDOCK:   -6.15 KCAL/MOL
REMARK 923 INTER-LIGAND FREE ENERGY PREDICTED BY IDOCK:   -5.27 KCAL/MOL
REMARK 924 INTRA-LIGAND FREE ENERGY PREDICTED BY IDOCK:   -0.88 KCAL/MOL
REMARK 927      BINDING AFFINITY PREDICTED BY RF-SCORE:    0.00 PKD
ROOT
HETATM    1  C   UNL     1     -10.256  14.553  67.232  1.00  0.00    -0.255 C  
HETATM    2  H   UNL     1      -8.448  15.226  67.547  1.00  0.00     0.000 HD 
HETATM    3  O   UNL     1      -8.941  14.934  66.790  1.00  0.00    -0.239 OA 
ENDROOT
BRANCH   1   4
HETATM    4  C   UNL     1     -11.057  14.077  66.001  1.00  0.00    -0.303 C  
BRANCH   4   5
HETATM    5  N   UNL     1     -10.223  13.436  64.981  1.00  0.00    -0.478 NA 
HETATM    6  C   UNL     1      -9.817  11.818  63.226  1.00  0.00    -0.402 C  
HETATM    7  C   UNL     1     -12.037  12.947  63.337  1.00  0.00    -0.610 C  
HETATM    8  C   UNL     1     -10.885  12.381  64.186  1.00  0.00    -0.372 C  
HETATM    9  H   UNL     1      -9.372  13.069  65.407  1.00  0.00     0.000 HD 
HETATM   10  C   UNL     1     -11.394  11.230  65.069  1.00  0.00    -0.003 C  
ENDBRANCH   4   5
ENDBRANCH   1   4
BRANCH   1  11
HETATM   11  C   UNL     1     -10.138  13.499  68.340  1.00  0.00    -0.240 C  
BRANCH  11  12
HETATM   12  O   UNL     1     -10.965  12.385  67.992  1.00  0.00    -0.207 OA 
BRANCH  12  13
HETATM   13  C   UNL     1     -11.296  11.563  69.026  1.00  0.00    -0.276 A  
HETATM   14  N   UNL     1     -12.396  11.811  69.740  1.00  0.00    -0.168 NA 
HETATM   15  S   UNL     1     -12.370  10.652  70.943  1.00  0.00    -0.434 SA 
HETATM   16  N   UNL     1     -10.957   9.851  70.569  1.00  0.00    -0.305 NA 
HETATM   17  C   UNL     1     -10.476  10.437  69.465  1.00  0.00    -0.247 A  
BRANCH  17  18
HETATM   18  N   UNL     1      -9.299  10.080  68.870  1.00  0.00    -0.164 NA 
HETATM   19  C   UNL     1      -9.226   9.359  67.597  1.00  0.00    -0.127 C  
HETATM   20  C   UNL     1      -8.074   9.955  66.771  1.00  0.00    -0.117 C  
HETATM   21  O   UNL     1      -6.827   9.888  67.489  1.00  0.00    -0.079 OA 
HETATM   22  C   UNL     1      -6.923  10.591  68.742  1.00  0.00    -0.070 C  
HETATM   23  C   UNL     1      -8.046  10.025  69.632  1.00  0.00    -0.172 C  
ENDBRANCH  17  18
ENDBRANCH  12  13
ENDBRANCH  11  12
ENDBRANCH   1  11
TORSDOF 6
ENDMDL
MODEL      158
REMARK 921   NORMALIZED FREE ENERGY PREDICTED BY IDOCK:   -3.91 KCAL/MOL
REMARK 922        TOTAL FREE ENERGY PREDICTED BY IDOCK:   -6.06 KCAL/MOL
REMARK 923 INTER-LIGAND FREE ENERGY PREDICTED BY IDOCK:   -5.70 KCAL/MOL
REMARK 924 INTRA-LIGAND FREE ENERGY PREDICTED BY IDOCK:   -0.36 KCAL/MOL
REMARK 927      BINDING AFFINITY PREDICTED BY RF-SCORE:    0.00 PKD
ROOT
HETATM    1  C   UNL     1     -10.454  14.503  68.477  1.00  0.00    -0.250 C  
HETATM    2  H   UNL     1      -9.472  12.898  67.947  1.00  0.00     0.000 HD 
HETATM    3  O   UNL     1      -9.884  13.623  67.493  1.00  0.00    -0.220 OA 
ENDROOT
BRANCH   1   4
HETATM    4  C   UNL     1     -11.125  15.681  67.738  1.00  0.00    -0.311 C  
BRANCH   4   5
HETATM    5  N   UNL     1     -10.895  16.975  68.387  1.00  0.00    -0.361 NA 
HETATM    6  C   UNL     1      -9.835  19.145  68.564  1.00  0.00    -0.483 C  
HETATM    7  C   UNL     1     -10.519  18.315  66.315  1.00  0.00    -0.397 C  
HETATM    8  C   UNL     1      -9.966  17.884  67.685  1.00  0.00    -0.324 C  
HETATM    9  H   UNL     1     -10.584  16.833  69.348  1.00  0.00     0.000 HD 
HETATM   10  C   UNL     1      -8.568  17.264  67.521  1.00  0.00    -0.213 C  
ENDBRANCH   4   5
ENDBRANCH   1   4
BRANCH   1  11
HETATM   11  C   UNL     1     -11.411  13.711  69.378  1.00  0.00    -0.286 C  
BRANCH  11  12
HETATM   12  O   UNL     1     -11.210  12.315  69.131  1.00  0.00    -0.243 OA 
BRANCH  12  13
HETATM   13  C   UNL     1     -11.752  11.479  70.058  1.00  0.00    -0.332 A  
HETATM   14  N   UNL     1     -12.712  11.925  70.869  1.00  0.00    -0.262 NA 
HETATM   15  S   UNL     1     -13.010  10.639  71.893  1.00  0.00    -0.342 SA 
HETATM   16  N   UNL     1     -11.910   9.526  71.319  1.00  0.00    -0.344 NA 
HETATM   17  C   UNL     1     -11.298  10.108  70.280  1.00  0.00    -0.315 A  
BRANCH  17  18
HETATM   18  N   UNL     1     -10.294   9.517  69.566  1.00  0.00    -0.205 NA 
HETATM   19  C   UNL     1     -10.357   8.137  69.079  1.00  0.00    -0.218 C  
HETATM   20  C   UNL     1      -9.759   8.096  67.663  1.00  0.00    -0.159 C  
HETATM   21  O   UNL     1      -8.410   8.601  67.651  1.00  0.00    -0.119 OA 
HETATM   22  C   UNL     1      -8.368   9.954  68.143  1.00  0.00    -0.110 C  
HETATM   23  C   UNL     1      -8.931  10.060  69.573  1.00  0.00    -0.205 C  
ENDBRANCH  17  18
ENDBRANCH  12  13
ENDBRANCH  11  12
ENDBRANCH   1  11
TORSDOF 6
ENDMDL
MODEL      159
REMARK 921   NORMALIZED FREE ENERGY PREDICTED BY IDOCK:   -3.90 KCAL/MOL
REMARK 922        TOTAL FREE ENERGY PREDICTED BY IDOCK:   -6.05 KCAL/MOL
REMARK 923 INTER-LIGAND FREE ENERGY PREDICTED BY IDOCK:   -5.53 KCAL/MOL
REMARK 924 INTRA-LIGAND FREE ENERGY PREDICTED BY IDOCK:   -0.52 KCAL/MOL
REMARK 927      BINDING AFFINITY PREDICTED BY RF-SCORE:    0.00 PKD
ROOT
HETATM    1  C   UNL     1      -9.402  11.135  68.085  1.00  0.00    -0.176 C  
HETATM    2  H   UNL     1      -7.743  10.649  67.173  1.00  0.00     0.000 HD 
HETATM    3  O   UNL     1      -8.297  11.419  67.209  1.00  0.00    -0.138 OA 
ENDROOT
BRANCH   1   4
HETATM    4  C   UNL     1     -10.303  12.387  68.144  1.00  0.00    -0.226 C  
BRANCH   4   5
HETATM    5  N   UNL     1      -9.547  13.642  68.154  1.00  0.00    -0.216 NA 
HETATM    6  C   UNL     1      -9.129  15.918  67.442  1.00  0.00    -0.205 C  
HETATM    7  C   UNL     1     -11.480  15.189  67.837  1.00  0.00    -0.344 C  
HETATM    8  C   UNL     1     -10.105  14.729  67.324  1.00  0.00    -0.236 C  
HETATM    9  H   UNL     1      -8.577  13.467  67.894  1.00  0.00     0.000 HD 
HETATM   10  C   UNL     1     -10.198  14.330  65.842  1.00  0.00    -0.338 C  
ENDBRANCH   4   5
ENDBRANCH   1   4
BRANCH   1  11
HETATM   11  C   UNL     1     -10.126   9.872  67.602  1.00  0.00    -0.197 C  
BRANCH  11  12
HETATM   12  O   UNL     1     -10.827   9.301  68.712  1.00  0.00    -0.187 OA 
BRANCH  12  13
HETATM   13  C   UNL     1     -10.354   8.099  69.140  1.00  0.00    -0.220 A  
HETATM   14  N   UNL     1      -9.418   7.467  68.429  1.00  0.00    -0.143 NA 
HETATM   15  S   UNL     1      -9.206   6.018  69.234  1.00  0.00    -0.127 SA 
HETATM   16  N   UNL     1     -10.312   6.186  70.469  1.00  0.00    -0.204 NA 
HETATM   17  C   UNL     1     -10.858   7.400  70.319  1.00  0.00    -0.245 A  
BRANCH  17  18
HETATM   18  N   UNL     1     -11.846   7.889  71.126  1.00  0.00    -0.289 NA 
HETATM   19  C   UNL     1     -11.726   9.142  71.876  1.00  0.00    -0.366 C  
HETATM   20  C   UNL     1     -13.074   9.879  71.804  1.00  0.00    -0.452 C  
HETATM   21  O   UNL     1     -14.144   9.059  72.311  1.00  0.00    -0.447 OA 
HETATM   22  C   UNL     1     -14.238   7.828  71.569  1.00  0.00    -0.424 C  
HETATM   23  C   UNL     1     -12.924   7.026  71.622  1.00  0.00    -0.352 C  
ENDBRANCH  17  18
ENDBRANCH  12  13
ENDBRANCH  11  12
ENDBRANCH   1  11
TORSDOF 6
ENDMDL
MODEL      160
REMARK 921   NORMALIZED FREE ENERGY PREDICTED BY IDOCK:   -3.88 KCAL/MOL
REMARK 922        TOTAL FREE ENERGY PREDICTED BY IDOCK:   -6.03 KCAL/MOL
REMARK 923 INTER-LIGAND FREE ENERGY PREDICTED BY IDOCK:   -5.17 KCAL/MOL
REMARK 924 INTRA-LIGAND FREE ENERGY PREDICTED BY IDOCK:   -0.86 KCAL/MOL
REMARK 927      BINDING AFFINITY PREDICTED BY RF-SCORE:    0.00 PKD
ROOT
HETATM    1  C   UNL     1      -6.838  10.952  66.941  1.00  0.00    -0.114 C  
HETATM    2  H   UNL     1      -7.490  10.442  68.712  1.00  0.00     0.000 HD 
HETATM    3  O   UNL     1      -7.186   9.978  67.941  1.00  0.00    -0.085 OA 
ENDROOT
BRANCH   1   4
HETATM    4  C   UNL     1      -6.344  10.199  65.688  1.00  0.00    -0.102 C  
BRANCH   4   5
HETATM    5  N   UNL     1      -7.294  10.248  64.573  1.00  0.00    -0.257 NA 
HETATM    6  C   UNL     1      -8.485   9.270  62.705  1.00  0.00    -0.209 C  
HETATM    7  C   UNL     1      -8.139   7.906  64.763  1.00  0.00    -0.141 C  
HETATM    8  C   UNL     1      -7.501   8.973  63.856  1.00  0.00    -0.110 C  
HETATM    9  H   UNL     1      -7.021  10.978  63.915  1.00  0.00     0.000 HD 
HETATM   10  C   UNL     1      -6.195   8.437  63.246  1.00  0.00    -0.081 C  
ENDBRANCH   4   5
ENDBRANCH   1   4
BRANCH   1  11
HETATM   11  C   UNL     1      -8.040  11.869  66.680  1.00  0.00    -0.063 C  
BRANCH  11  12
HETATM   12  O   UNL     1      -9.228  11.073  66.711  1.00  0.00    -0.157 OA 
BRANCH  12  13
HETATM   13  C   UNL     1     -10.224  11.549  67.508  1.00  0.00    -0.184 A  
HETATM   14  N   UNL     1     -10.260  11.206  68.797  1.00  0.00    -0.201 NA 
HETATM   15  S   UNL     1     -11.666  11.906  69.366  1.00  0.00    -0.347 SA 
HETATM   16  N   UNL     1     -12.236  12.627  67.976  1.00  0.00    -0.216 NA 
HETATM   17  C   UNL     1     -11.326  12.379  67.026  1.00  0.00    -0.327 A  
BRANCH  17  18
HETATM   18  N   UNL     1     -11.461  12.778  65.725  1.00  0.00    -0.330 NA 
HETATM   19  C   UNL     1     -11.348  11.864  64.587  1.00  0.00    -0.293 C  
HETATM   20  C   UNL     1     -12.425  12.240  63.556  1.00  0.00    -0.534 C  
HETATM   21  O   UNL     1     -12.298  13.615  63.146  1.00  0.00    -0.729 OA 
HETATM   22  C   UNL     1     -12.399  14.497  64.280  1.00  0.00    -0.369 C  
HETATM   23  C   UNL     1     -11.328  14.189  65.343  1.00  0.00    -0.322 C  
ENDBRANCH  17  18
ENDBRANCH  12  13
ENDBRANCH  11  12
ENDBRANCH   1  11
TORSDOF 6
ENDMDL
MODEL      161
REMARK 921   NORMALIZED FREE ENERGY PREDICTED BY IDOCK:   -3.86 KCAL/MOL
REMARK 922        TOTAL FREE ENERGY PREDICTED BY IDOCK:   -6.00 KCAL/MOL
REMARK 923 INTER-LIGAND FREE ENERGY PREDICTED BY IDOCK:   -5.41 KCAL/MOL
REMARK 924 INTRA-LIGAND FREE ENERGY PREDICTED BY IDOCK:   -0.59 KCAL/MOL
REMARK 927      BINDING AFFINITY PREDICTED BY RF-SCORE:    0.00 PKD
ROOT
HETATM    1  C   UNL     1     -12.441   9.494  71.292  1.00  0.00    -0.346 C  
HETATM    2  H   UNL     1     -13.707  10.875  70.734  1.00  0.00     0.000 HD 
HETATM    3  O   UNL     1     -13.773   9.989  71.069  1.00  0.00    -0.241 OA 
ENDROOT
BRANCH   1   4
HETATM    4  C   UNL     1     -12.548   8.053  71.835  1.00  0.00    -0.328 C  
BRANCH   4   5
HETATM    5  N   UNL     1     -11.705   7.816  73.011  1.00  0.00    -0.616 NA 
HETATM    6  C   UNL     1     -10.055   6.569  74.269  1.00  0.00    -0.379 C  
HETATM    7  C   UNL     1      -9.740   6.850  71.812  1.00  0.00    -0.163 C  
HETATM    8  C   UNL     1     -10.793   6.658  72.918  1.00  0.00    -0.262 C  
HETATM    9  H   UNL     1     -12.286   7.736  73.845  1.00  0.00     0.000 HD 
HETATM   10  C   UNL     1     -11.557   5.341  72.699  1.00  0.00    -0.226 C  
ENDBRANCH   4   5
ENDBRANCH   1   4
BRANCH   1  11
HETATM   11  C   UNL     1     -11.629   9.610  69.995  1.00  0.00    -0.088 C  
BRANCH  11  12
HETATM   12  O   UNL     1     -11.251  10.979  69.822  1.00  0.00    -0.258 OA 
BRANCH  12  13
HETATM   13  C   UNL     1     -10.082  11.178  69.152  1.00  0.00    -0.112 A  
HETATM   14  N   UNL     1      -8.944  10.694  69.653  1.00  0.00     0.041 NA 
HETATM   15  S   UNL     1      -7.771  11.240  68.598  1.00  0.00    -0.140 SA 
HETATM   16  N   UNL     1      -8.702  12.104  67.520  1.00  0.00    -0.165 NA 
HETATM   17  C   UNL     1      -9.971  11.962  67.925  1.00  0.00    -0.191 A  
BRANCH  17  18
HETATM   18  N   UNL     1     -11.033  12.563  67.311  1.00  0.00    -0.252 NA 
HETATM   19  C   UNL     1     -11.687  13.767  67.830  1.00  0.00    -0.358 C  
HETATM   20  C   UNL     1     -12.020  14.686  66.643  1.00  0.00    -0.275 C  
HETATM   21  O   UNL     1     -12.845  14.011  65.675  1.00  0.00    -0.545 OA 
HETATM   22  C   UNL     1     -12.190  12.825  65.186  1.00  0.00    -0.477 C  
HETATM   23  C   UNL     1     -11.851  11.846  66.326  1.00  0.00    -0.028 C  
ENDBRANCH  17  18
ENDBRANCH  12  13
ENDBRANCH  11  12
ENDBRANCH   1  11
TORSDOF 6
ENDMDL
MODEL      162
REMARK 921   NORMALIZED FREE ENERGY PREDICTED BY IDOCK:   -3.86 KCAL/MOL
REMARK 922        TOTAL FREE ENERGY PREDICTED BY IDOCK:   -5.99 KCAL/MOL
REMARK 923 INTER-LIGAND FREE ENERGY PREDICTED BY IDOCK:   -5.54 KCAL/MOL
REMARK 924 INTRA-LIGAND FREE ENERGY PREDICTED BY IDOCK:   -0.45 KCAL/MOL
REMARK 927      BINDING AFFINITY PREDICTED BY RF-SCORE:    0.00 PKD
ROOT
HETATM    1  C   UNL     1      -9.614  10.327  66.200  1.00  0.00    -0.197 C  
HETATM    2  H   UNL     1      -8.110   9.775  65.082  1.00  0.00     0.000 HD 
HETATM    3  O   UNL     1      -8.789  10.435  65.027  1.00  0.00    -0.174 OA 
ENDROOT
BRANCH   1   4
HETATM    4  C   UNL     1     -10.720  11.401  66.111  1.00  0.00    -0.267 C  
BRANCH   4   5
HETATM    5  N   UNL     1     -10.223  12.706  65.668  1.00  0.00    -0.271 NA 
HETATM    6  C   UNL     1     -10.451  15.084  65.271  1.00  0.00    -0.428 C  
HETATM    7  C   UNL     1     -11.445  14.103  67.336  1.00  0.00    -0.369 C  
HETATM    8  C   UNL     1     -11.154  13.838  65.849  1.00  0.00    -0.286 C  
HETATM    9  H   UNL     1      -9.924  12.653  64.694  1.00  0.00     0.000 HD 
HETATM   10  C   UNL     1     -12.470  13.629  65.081  1.00  0.00    -0.488 C  
ENDBRANCH   4   5
ENDBRANCH   1   4
BRANCH   1  11
HETATM   11  C   UNL     1     -10.149   8.894  66.319  1.00  0.00    -0.214 C  
BRANCH  11  12
HETATM   12  O   UNL     1     -10.117   8.514  67.698  1.00  0.00    -0.184 OA 
BRANCH  12  13
HETATM   13  C   UNL     1      -9.932   7.186  67.929  1.00  0.00    -0.154 A  
HETATM   14  N   UNL     1      -9.519   6.394  66.938  1.00  0.00    -0.139 NA 
HETATM   15  S   UNL     1      -9.525   4.865  67.609  1.00  0.00    -0.148 SA 
HETATM   16  N   UNL     1     -10.069   5.204  69.147  1.00  0.00    -0.207 NA 
HETATM   17  C   UNL     1     -10.227   6.533  69.203  1.00  0.00    -0.180 A  
BRANCH  17  18
HETATM   18  N   UNL     1     -10.702   7.193  70.301  1.00  0.00    -0.231 NA 
HETATM   19  C   UNL     1      -9.948   8.235  71.002  1.00  0.00    -0.187 C  
HETATM   20  C   UNL     1     -10.924   9.356  71.395  1.00  0.00    -0.373 C  
HETATM   21  O   UNL     1     -12.004   8.850  72.201  1.00  0.00    -0.357 OA 
HETATM   22  C   UNL     1     -12.726   7.820  71.499  1.00  0.00    -0.332 C  
HETATM   23  C   UNL     1     -11.807   6.650  71.099  1.00  0.00    -0.360 C  
ENDBRANCH  17  18
ENDBRANCH  12  13
ENDBRANCH  11  12
ENDBRANCH   1  11
TORSDOF 6
ENDMDL
MODEL      163
REMARK 921   NORMALIZED FREE ENERGY PREDICTED BY IDOCK:   -3.85 KCAL/MOL
REMARK 922        TOTAL FREE ENERGY PREDICTED BY IDOCK:   -5.99 KCAL/MOL
REMARK 923 INTER-LIGAND FREE ENERGY PREDICTED BY IDOCK:   -5.35 KCAL/MOL
REMARK 924 INTRA-LIGAND FREE ENERGY PREDICTED BY IDOCK:   -0.64 KCAL/MOL
REMARK 927      BINDING AFFINITY PREDICTED BY RF-SCORE:    0.00 PKD
ROOT
HETATM    1  C   UNL     1      -8.090  10.916  69.071  1.00  0.00    -0.126 C  
HETATM    2  H   UNL     1      -7.171   9.196  68.937  1.00  0.00     0.000 HD 
HETATM    3  O   UNL     1      -7.320   9.932  68.357  1.00  0.00    -0.076 OA 
ENDROOT
BRANCH   1   4
HETATM    4  C   UNL     1      -8.333  12.113  68.127  1.00  0.00    -0.170 C  
BRANCH   4   5
HETATM    5  N   UNL     1      -9.603  12.800  68.380  1.00  0.00    -0.320 NA 
HETATM    6  C   UNL     1     -11.423  14.272  67.763  1.00  0.00    -0.354 C  
HETATM    7  C   UNL     1     -10.480  12.732  66.045  1.00  0.00    -0.291 C  
HETATM    8  C   UNL     1     -10.126  13.607  67.259  1.00  0.00    -0.239 C  
HETATM    9  H   UNL     1      -9.526  13.375  69.219  1.00  0.00     0.000 HD 
HETATM   10  C   UNL     1      -9.146  14.717  66.844  1.00  0.00    -0.268 C  
ENDBRANCH   4   5
ENDBRANCH   1   4
BRANCH   1  11
HETATM   11  C   UNL     1      -9.377  10.272  69.600  1.00  0.00    -0.139 C  
BRANCH  11  12
HETATM   12  O   UNL     1      -9.096   8.908  69.929  1.00  0.00    -0.149 OA 
BRANCH  12  13
HETATM   13  C   UNL     1      -8.960   8.647  71.258  1.00  0.00    -0.210 A  
HETATM   14  N   UNL     1      -7.741   8.536  71.787  1.00  0.00    -0.138 NA 
HETATM   15  S   UNL     1      -8.025   8.121  73.380  1.00  0.00    -0.169 SA 
HETATM   16  N   UNL     1      -9.690   8.065  73.392  1.00  0.00    -0.247 NA 
HETATM   17  C   UNL     1     -10.084   8.408  72.159  1.00  0.00    -0.306 A  
BRANCH  17  18
HETATM   18  N   UNL     1     -11.393   8.439  71.764  1.00  0.00    -0.280 NA 
HETATM   19  C   UNL     1     -12.008   7.398  70.937  1.00  0.00    -0.277 C  
HETATM   20  C   UNL     1     -13.425   7.133  71.470  1.00  0.00    -0.332 C  
HETATM   21  O   UNL     1     -14.214   8.337  71.479  1.00  0.00    -0.412 OA 
HETATM   22  C   UNL     1     -13.587   9.351  72.287  1.00  0.00    -0.462 C  
HETATM   23  C   UNL     1     -12.168   9.684  71.789  1.00  0.00    -0.384 C  
ENDBRANCH  17  18
ENDBRANCH  12  13
ENDBRANCH  11  12
ENDBRANCH   1  11
TORSDOF 6
ENDMDL
MODEL      164
REMARK 921   NORMALIZED FREE ENERGY PREDICTED BY IDOCK:   -3.85 KCAL/MOL
REMARK 922        TOTAL FREE ENERGY PREDICTED BY IDOCK:   -5.99 KCAL/MOL
REMARK 923 INTER-LIGAND FREE ENERGY PREDICTED BY IDOCK:   -5.33 KCAL/MOL
REMARK 924 INTRA-LIGAND FREE ENERGY PREDICTED BY IDOCK:   -0.65 KCAL/MOL
REMARK 927      BINDING AFFINITY PREDICTED BY RF-SCORE:    0.00 PKD
ROOT
HETATM    1  C   UNL     1      -8.018  11.525  67.940  1.00  0.00    -0.126 C  
HETATM    2  H   UNL     1      -6.405  12.306  68.719  1.00  0.00     0.000 HD 
HETATM    3  O   UNL     1      -7.155  11.828  69.050  1.00  0.00    -0.107 OA 
ENDROOT
BRANCH   1   4
HETATM    4  C   UNL     1      -9.239  10.748  68.479  1.00  0.00    -0.174 C  
BRANCH   4   5
HETATM    5  N   UNL     1      -8.967  10.047  69.737  1.00  0.00    -0.303 NA 
HETATM    6  C   UNL     1      -9.528   8.498  71.511  1.00  0.00    -0.290 C  
HETATM    7  C   UNL     1     -10.091   7.894  69.159  1.00  0.00    -0.197 C  
HETATM    8  C   UNL     1      -9.989   9.064  70.152  1.00  0.00    -0.189 C  
HETATM    9  H   UNL     1      -8.808  10.723  70.485  1.00  0.00     0.000 HD 
HETATM   10  C   UNL     1     -11.368   9.716  70.346  1.00  0.00    -0.337 C  
ENDBRANCH   4   5
ENDBRANCH   1   4
BRANCH   1  11
HETATM   11  C   UNL     1      -8.383  12.823  67.208  1.00  0.00    -0.187 C  
BRANCH  11  12
HETATM   12  O   UNL     1      -8.908  13.748  68.165  1.00  0.00    -0.172 OA 
BRANCH  12  13
HETATM   13  C   UNL     1      -9.349  14.928  67.650  1.00  0.00    -0.191 A  
HETATM   14  N   UNL     1      -8.668  15.514  66.664  1.00  0.00    -0.269 NA 
HETATM   15  S   UNL     1      -9.476  16.953  66.409  1.00  0.00    -0.283 SA 
HETATM   16  N   UNL     1     -10.676  16.841  67.560  1.00  0.00    -0.310 NA 
HETATM   17  C   UNL     1     -10.510  15.654  68.158  1.00  0.00    -0.259 A  
BRANCH  17  18
HETATM   18  N   UNL     1     -11.286  15.214  69.193  1.00  0.00    -0.279 NA 
HETATM   19  C   UNL     1     -12.264  14.131  69.063  1.00  0.00    -0.239 C  
HETATM   20  C   UNL     1     -12.190  13.259  70.327  1.00  0.00    -0.321 C  
HETATM   21  O   UNL     1     -12.420  14.040  71.514  1.00  0.00    -0.341 OA 
HETATM   22  C   UNL     1     -11.457  15.106  71.618  1.00  0.00    -0.380 C  
HETATM   23  C   UNL     1     -11.497  16.035  70.391  1.00  0.00    -0.377 C  
ENDBRANCH  17  18
ENDBRANCH  12  13
ENDBRANCH  11  12
ENDBRANCH   1  11
TORSDOF 6
ENDMDL
MODEL      165
REMARK 921   NORMALIZED FREE ENERGY PREDICTED BY IDOCK:   -3.84 KCAL/MOL
REMARK 922        TOTAL FREE ENERGY PREDICTED BY IDOCK:   -5.97 KCAL/MOL
REMARK 923 INTER-LIGAND FREE ENERGY PREDICTED BY IDOCK:   -5.82 KCAL/MOL
REMARK 924 INTRA-LIGAND FREE ENERGY PREDICTED BY IDOCK:   -0.15 KCAL/MOL
REMARK 927      BINDING AFFINITY PREDICTED BY RF-SCORE:    0.00 PKD
ROOT
HETATM    1  C   UNL     1     -11.144  12.012  67.480  1.00  0.00    -0.275 C  
HETATM    2  H   UNL     1     -11.980  11.113  65.959  1.00  0.00     0.000 HD 
HETATM    3  O   UNL     1     -11.979  11.995  66.309  1.00  0.00    -0.596 OA 
ENDROOT
BRANCH   1   4
HETATM    4  C   UNL     1     -11.142  13.447  68.049  1.00  0.00    -0.255 C  
BRANCH   4   5
HETATM    5  N   UNL     1     -11.106  14.480  67.010  1.00  0.00    -0.313 NA 
HETATM    6  C   UNL     1     -10.388  16.606  66.100  1.00  0.00    -0.340 C  
HETATM    7  C   UNL     1      -8.749  15.218  67.366  1.00  0.00    -0.194 C  
HETATM    8  C   UNL     1     -10.228  15.634  67.288  1.00  0.00    -0.266 C  
HETATM    9  H   UNL     1     -12.052  14.802  66.806  1.00  0.00     0.000 HD 
HETATM   10  C   UNL     1     -10.639  16.373  68.573  1.00  0.00    -0.304 C  
ENDBRANCH   4   5
ENDBRANCH   1   4
BRANCH   1  11
HETATM   11  C   UNL     1     -11.636  10.951  68.474  1.00  0.00    -0.290 C  
BRANCH  11  12
HETATM   12  O   UNL     1     -10.525  10.128  68.840  1.00  0.00    -0.189 OA 
BRANCH  12  13
HETATM   13  C   UNL     1     -10.554   8.861  68.345  1.00  0.00    -0.143 A  
HETATM   14  N   UNL     1     -10.438   8.663  67.030  1.00  0.00    -0.300 NA 
HETATM   15  S   UNL     1     -10.625   7.013  66.849  1.00  0.00    -0.260 SA 
HETATM   16  N   UNL     1     -10.872   6.554  68.432  1.00  0.00    -0.277 NA 
HETATM   17  C   UNL     1     -10.775   7.671  69.164  1.00  0.00    -0.141 A  
BRANCH  17  18
HETATM   18  N   UNL     1     -10.959   7.707  70.518  1.00  0.00    -0.246 NA 
HETATM   19  C   UNL     1     -12.148   7.169  71.183  1.00  0.00    -0.358 C  
HETATM   20  C   UNL     1     -11.700   6.457  72.470  1.00  0.00    -0.184 C  
HETATM   21  O   UNL     1     -10.969   7.349  73.333  1.00  0.00    -0.378 OA 
HETATM   22  C   UNL     1      -9.812   7.877  72.657  1.00  0.00    -0.252 C  
HETATM   23  C   UNL     1     -10.194   8.627  71.367  1.00  0.00    -0.254 C  
ENDBRANCH  17  18
ENDBRANCH  12  13
ENDBRANCH  11  12
ENDBRANCH   1  11
TORSDOF 6
ENDMDL
MODEL      166
REMARK 921   NORMALIZED FREE ENERGY PREDICTED BY IDOCK:   -3.84 KCAL/MOL
REMARK 922        TOTAL FREE ENERGY PREDICTED BY IDOCK:   -5.97 KCAL/MOL
REMARK 923 INTER-LIGAND FREE ENERGY PREDICTED BY IDOCK:   -4.99 KCAL/MOL
REMARK 924 INTRA-LIGAND FREE ENERGY PREDICTED BY IDOCK:   -0.97 KCAL/MOL
REMARK 927      BINDING AFFINITY PREDICTED BY RF-SCORE:    0.00 PKD
ROOT
HETATM    1  C   UNL     1      -8.411   9.940  67.359  1.00  0.00    -0.118 C  
HETATM    2  H   UNL     1      -6.611  10.527  67.846  1.00  0.00     0.000 HD 
HETATM    3  O   UNL     1      -7.003   9.715  67.550  1.00  0.00    -0.082 OA 
ENDROOT
BRANCH   1   4
HETATM    4  C   UNL     1      -9.048   8.619  66.878  1.00  0.00    -0.144 C  
BRANCH   4   5
HETATM    5  N   UNL     1      -8.868   7.513  67.823  1.00  0.00    -0.132 NA 
HETATM    6  C   UNL     1      -9.228   5.244  68.587  1.00  0.00    -0.143 C  
HETATM    7  C   UNL     1      -8.873   5.656  66.154  1.00  0.00    -0.142 C  
HETATM    8  C   UNL     1      -9.498   6.234  67.436  1.00  0.00    -0.115 C  
HETATM    9  H   UNL     1      -9.186   7.792  68.751  1.00  0.00     0.000 HD 
HETATM   10  C   UNL     1     -11.020   6.372  67.266  1.00  0.00    -0.474 C  
ENDBRANCH   4   5
ENDBRANCH   1   4
BRANCH   1  11
HETATM   11  C   UNL     1      -9.021  10.487  68.656  1.00  0.00    -0.162 C  
BRANCH  11  12
HETATM   12  O   UNL     1     -10.214   9.749  68.939  1.00  0.00    -0.183 OA 
BRANCH  12  13
HETATM   13  C   UNL     1     -11.118  10.388  69.731  1.00  0.00    -0.295 A  
HETATM   14  N   UNL     1     -11.527  11.615  69.407  1.00  0.00    -0.283 NA 
HETATM   15  S   UNL     1     -12.528  12.057  70.670  1.00  0.00    -0.172 SA 
HETATM   16  N   UNL     1     -12.426  10.701  71.633  1.00  0.00    -0.357 NA 
HETATM   17  C   UNL     1     -11.637   9.838  70.980  1.00  0.00    -0.376 A  
BRANCH  17  18
HETATM   18  N   UNL     1     -11.281   8.614  71.476  1.00  0.00    -0.268 NA 
HETATM   19  C   UNL     1     -10.149   8.411  72.382  1.00  0.00    -0.316 C  
HETATM   20  C   UNL     1     -10.563   7.387  73.451  1.00  0.00    -0.377 C  
HETATM   21  O   UNL     1     -10.989   6.149  72.851  1.00  0.00    -0.246 OA 
HETATM   22  C   UNL     1     -12.095   6.371  71.955  1.00  0.00    -0.310 C  
HETATM   23  C   UNL     1     -11.736   7.372  70.840  1.00  0.00    -0.296 C  
ENDBRANCH  17  18
ENDBRANCH  12  13
ENDBRANCH  11  12
ENDBRANCH   1  11
TORSDOF 6
ENDMDL
MODEL      167
REMARK 921   NORMALIZED FREE ENERGY PREDICTED BY IDOCK:   -3.83 KCAL/MOL
REMARK 922        TOTAL FREE ENERGY PREDICTED BY IDOCK:   -5.96 KCAL/MOL
REMARK 923 INTER-LIGAND FREE ENERGY PREDICTED BY IDOCK:   -5.45 KCAL/MOL
REMARK 924 INTRA-LIGAND FREE ENERGY PREDICTED BY IDOCK:   -0.51 KCAL/MOL
REMARK 927      BINDING AFFINITY PREDICTED BY RF-SCORE:    0.00 PKD
ROOT
HETATM    1  C   UNL     1     -12.013  11.118  68.746  1.00  0.00    -0.268 C  
HETATM    2  H   UNL     1     -12.042  10.727  66.831  1.00  0.00     0.000 HD 
HETATM    3  O   UNL     1     -11.650  10.329  67.599  1.00  0.00    -0.299 OA 
ENDROOT
BRANCH   1   4
HETATM    4  C   UNL     1     -11.376  10.471  69.994  1.00  0.00    -0.318 C  
BRANCH   4   5
HETATM    5  N   UNL     1     -11.970   9.177  70.342  1.00  0.00    -0.469 NA 
HETATM    6  C   UNL     1     -11.850   6.824  70.896  1.00  0.00    -0.438 C  
HETATM    7  C   UNL     1     -10.150   8.378  71.851  1.00  0.00    -0.337 C  
HETATM    8  C   UNL     1     -11.011   8.086  70.610  1.00  0.00    -0.245 C  
HETATM    9  H   UNL     1     -12.630   8.892  69.618  1.00  0.00     0.000 HD 
HETATM   10  C   UNL     1     -10.111   7.801  69.396  1.00  0.00    -0.195 C  
ENDBRANCH   4   5
ENDBRANCH   1   4
BRANCH   1  11
HETATM   11  C   UNL     1     -11.592  12.575  68.518  1.00  0.00    -0.321 C  
BRANCH  11  12
HETATM   12  O   UNL     1     -11.415  12.779  67.113  1.00  0.00    -0.299 OA 
BRANCH  12  13
HETATM   13  C   UNL     1     -10.775  13.930  66.770  1.00  0.00    -0.281 A  
HETATM   14  N   UNL     1     -11.487  14.998  66.406  1.00  0.00    -0.281 NA 
HETATM   15  S   UNL     1     -10.335  16.129  65.979  1.00  0.00    -0.366 SA 
HETATM   16  N   UNL     1      -8.937  15.258  66.236  1.00  0.00    -0.302 NA 
HETATM   17  C   UNL     1      -9.322  14.065  66.705  1.00  0.00    -0.277 A  
BRANCH  17  18
HETATM   18  N   UNL     1      -8.453  13.052  67.000  1.00  0.00    -0.174 NA 
HETATM   19  C   UNL     1      -7.090  13.277  67.488  1.00  0.00    -0.149 C  
HETATM   20  C   UNL     1      -6.790  12.237  68.580  1.00  0.00    -0.087 C  
HETATM   21  O   UNL     1      -6.961  10.896  68.086  1.00  0.00    -0.067 OA 
HETATM   22  C   UNL     1      -8.302  10.698  67.600  1.00  0.00    -0.114 C  
HETATM   23  C   UNL     1      -8.659  11.695  66.481  1.00  0.00    -0.164 C  
ENDBRANCH  17  18
ENDBRANCH  12  13
ENDBRANCH  11  12
ENDBRANCH   1  11
TORSDOF 6
ENDMDL
MODEL      168
REMARK 921   NORMALIZED FREE ENERGY PREDICTED BY IDOCK:   -3.83 KCAL/MOL
REMARK 922        TOTAL FREE ENERGY PREDICTED BY IDOCK:   -5.96 KCAL/MOL
REMARK 923 INTER-LIGAND FREE ENERGY PREDICTED BY IDOCK:   -5.15 KCAL/MOL
REMARK 924 INTRA-LIGAND FREE ENERGY PREDICTED BY IDOCK:   -0.81 KCAL/MOL
REMARK 927      BINDING AFFINITY PREDICTED BY RF-SCORE:    0.00 PKD
ROOT
HETATM    1  C   UNL     1     -10.080   7.547  67.247  1.00  0.00    -0.231 C  
HETATM    2  H   UNL     1     -10.866   5.767  67.430  1.00  0.00     0.000 HD 
HETATM    3  O   UNL     1     -11.201   6.650  67.330  1.00  0.00    -0.366 OA 
ENDROOT
BRANCH   1   4
HETATM    4  C   UNL     1     -10.624   8.982  67.084  1.00  0.00    -0.220 C  
BRANCH   4   5
HETATM    5  N   UNL     1      -9.568   9.996  67.009  1.00  0.00    -0.166 NA 
HETATM    6  C   UNL     1      -8.621  12.074  66.205  1.00  0.00     0.030 C  
HETATM    7  C   UNL     1     -11.048  11.991  66.770  1.00  0.00    -0.353 C  
HETATM    8  C   UNL     1      -9.879  11.181  66.184  1.00  0.00    -0.225 C  
HETATM    9  H   UNL     1      -8.697   9.569  66.693  1.00  0.00     0.000 HD 
HETATM   10  C   UNL     1     -10.176  10.802  64.723  1.00  0.00    -0.403 C  
ENDBRANCH   4   5
ENDBRANCH   1   4
BRANCH   1  11
HETATM   11  C   UNL     1      -9.183   7.360  68.478  1.00  0.00    -0.142 C  
BRANCH  11  12
HETATM   12  O   UNL     1      -9.235   8.557  69.259  1.00  0.00    -0.152 OA 
BRANCH  12  13
HETATM   13  C   UNL     1      -8.935   8.402  70.578  1.00  0.00    -0.150 A  
HETATM   14  N   UNL     1      -7.664   8.241  70.951  1.00  0.00    -0.076 NA 
HETATM   15  S   UNL     1      -7.753   7.989  72.600  1.00  0.00    -0.130 SA 
HETATM   16  N   UNL     1      -9.401   8.065  72.836  1.00  0.00    -0.244 NA 
HETATM   17  C   UNL     1      -9.937   8.331  71.638  1.00  0.00    -0.212 A  
BRANCH  17  18
HETATM   18  N   UNL     1     -11.283   8.431  71.417  1.00  0.00    -0.249 NA 
HETATM   19  C   UNL     1     -12.125   7.289  71.054  1.00  0.00    -0.324 C  
HETATM   20  C   UNL     1     -13.457   7.410  71.813  1.00  0.00    -0.313 C  
HETATM   21  O   UNL     1     -14.109   8.662  71.526  1.00  0.00    -0.394 OA 
HETATM   22  C   UNL     1     -13.261   9.771  71.879  1.00  0.00    -0.449 C  
HETATM   23  C   UNL     1     -11.915   9.724  71.131  1.00  0.00    -0.376 C  
ENDBRANCH  17  18
ENDBRANCH  12  13
ENDBRANCH  11  12
ENDBRANCH   1  11
TORSDOF 6
ENDMDL
MODEL      169
REMARK 921   NORMALIZED FREE ENERGY PREDICTED BY IDOCK:   -3.81 KCAL/MOL
REMARK 922        TOTAL FREE ENERGY PREDICTED BY IDOCK:   -5.93 KCAL/MOL
REMARK 923 INTER-LIGAND FREE ENERGY PREDICTED BY IDOCK:   -5.36 KCAL/MOL
REMARK 924 INTRA-LIGAND FREE ENERGY PREDICTED BY IDOCK:   -0.57 KCAL/MOL
REMARK 927      BINDING AFFINITY PREDICTED BY RF-SCORE:    0.00 PKD
ROOT
HETATM    1  C   UNL     1     -10.596  10.722  67.946  1.00  0.00    -0.221 C  
HETATM    2  H   UNL     1      -8.722  10.559  67.414  1.00  0.00     0.000 HD 
HETATM    3  O   UNL     1      -9.299  10.104  68.015  1.00  0.00    -0.140 OA 
ENDROOT
BRANCH   1   4
HETATM    4  C   UNL     1     -11.534   9.981  68.923  1.00  0.00     0.002 C  
BRANCH   4   5
HETATM    5  N   UNL     1     -12.011  10.829  70.019  1.00  0.00    -0.319 NA 
HETATM    6  C   UNL     1     -13.042  11.188  72.180  1.00  0.00    -0.288 C  
HETATM    7  C   UNL     1     -11.480   9.266  71.892  1.00  0.00    -0.382 C  
HETATM    8  C   UNL     1     -12.557  10.111  71.189  1.00  0.00    -0.386 C  
HETATM    9  H   UNL     1     -12.697  11.498  69.669  1.00  0.00     0.000 HD 
HETATM   10  C   UNL     1     -13.759   9.228  70.812  1.00  0.00     0.194 C  
ENDBRANCH   4   5
ENDBRANCH   1   4
BRANCH   1  11
HETATM   11  C   UNL     1     -10.463  12.223  68.231  1.00  0.00    -0.226 C  
BRANCH  11  12
HETATM   12  O   UNL     1      -9.803  12.836  67.119  1.00  0.00    -0.210 OA 
BRANCH  12  13
HETATM   13  C   UNL     1     -10.627  13.331  66.156  1.00  0.00    -0.287 A  
HETATM   14  N   UNL     1     -11.105  12.517  65.213  1.00  0.00    -0.289 NA 
HETATM   15  S   UNL     1     -11.966  13.528  64.200  1.00  0.00    -0.433 SA 
HETATM   16  N   UNL     1     -11.717  14.998  64.946  1.00  0.00    -0.364 NA 
HETATM   17  C   UNL     1     -10.985  14.743  66.038  1.00  0.00    -0.328 A  
BRANCH  17  18
HETATM   18  N   UNL     1     -10.541  15.711  66.895  1.00  0.00    -0.309 NA 
HETATM   19  C   UNL     1     -11.138  15.957  68.210  1.00  0.00    -0.345 C  
HETATM   20  C   UNL     1     -10.004  16.243  69.208  1.00  0.00    -0.259 C  
HETATM   21  O   UNL     1      -9.197  17.355  68.777  1.00  0.00    -0.279 OA 
HETATM   22  C   UNL     1      -8.629  17.099  67.478  1.00  0.00    -0.203 C  
HETATM   23  C   UNL     1      -9.717  16.829  66.421  1.00  0.00    -0.290 C  
ENDBRANCH  17  18
ENDBRANCH  12  13
ENDBRANCH  11  12
ENDBRANCH   1  11
TORSDOF 6
ENDMDL
MODEL      170
REMARK 921   NORMALIZED FREE ENERGY PREDICTED BY IDOCK:   -3.80 KCAL/MOL
REMARK 922        TOTAL FREE ENERGY PREDICTED BY IDOCK:   -5.92 KCAL/MOL
REMARK 923 INTER-LIGAND FREE ENERGY PREDICTED BY IDOCK:   -4.86 KCAL/MOL
REMARK 924 INTRA-LIGAND FREE ENERGY PREDICTED BY IDOCK:   -1.06 KCAL/MOL
REMARK 927      BINDING AFFINITY PREDICTED BY RF-SCORE:    0.00 PKD
ROOT
HETATM    1  C   UNL     1      -9.736   9.023  71.467  1.00  0.00    -0.295 C  
HETATM    2  H   UNL     1     -11.361  10.103  71.362  1.00  0.00     0.000 HD 
HETATM    3  O   UNL     1     -11.165   9.178  71.448  1.00  0.00    -0.292 OA 
ENDROOT
BRANCH   1   4
HETATM    4  C   UNL     1      -9.418   7.518  71.607  1.00  0.00    -0.149 C  
BRANCH   4   5
HETATM    5  N   UNL     1      -8.806   6.943  70.405  1.00  0.00    -0.151 NA 
HETATM    6  C   UNL     1      -8.588   5.244  68.694  1.00  0.00    -0.087 C  
HETATM    7  C   UNL     1     -10.868   5.904  69.457  1.00  0.00    -0.442 C  
HETATM    8  C   UNL     1      -9.416   5.689  69.917  1.00  0.00    -0.156 C  
HETATM    9  H   UNL     1      -7.806   6.811  70.553  1.00  0.00     0.000 HD 
HETATM   10  C   UNL     1      -9.354   4.572  70.972  1.00  0.00    -0.214 C  
ENDBRANCH   4   5
ENDBRANCH   1   4
BRANCH   1  11
HETATM   11  C   UNL     1      -9.134   9.670  70.213  1.00  0.00    -0.225 C  
BRANCH  11  12
HETATM   12  O   UNL     1     -10.199   9.973  69.307  1.00  0.00    -0.188 OA 
BRANCH  12  13
HETATM   13  C   UNL     1      -9.928   9.739  67.994  1.00  0.00    -0.158 A  
HETATM   14  N   UNL     1      -9.533   8.525  67.607  1.00  0.00    -0.143 NA 
HETATM   15  S   UNL     1      -9.215   8.700  65.977  1.00  0.00    -0.205 SA 
HETATM   16  N   UNL     1      -9.559  10.317  65.768  1.00  0.00    -0.207 NA 
HETATM   17  C   UNL     1      -9.974  10.768  66.958  1.00  0.00    -0.197 A  
BRANCH  17  18
HETATM   18  N   UNL     1     -10.313  12.070  67.198  1.00  0.00    -0.212 NA 
HETATM   19  C   UNL     1      -9.350  13.086  67.630  1.00  0.00    -0.202 C  
HETATM   20  C   UNL     1      -9.665  14.396  66.890  1.00  0.00    -0.262 C  
HETATM   21  O   UNL     1     -11.021  14.818  67.127  1.00  0.00    -0.303 OA 
HETATM   22  C   UNL     1     -11.951  13.802  66.707  1.00  0.00    -0.426 C  
HETATM   23  C   UNL     1     -11.707  12.465  67.432  1.00  0.00    -0.347 C  
ENDBRANCH  17  18
ENDBRANCH  12  13
ENDBRANCH  11  12
ENDBRANCH   1  11
TORSDOF 6
ENDMDL
MODEL      171
REMARK 921   NORMALIZED FREE ENERGY PREDICTED BY IDOCK:   -3.79 KCAL/MOL
REMARK 922        TOTAL FREE ENERGY PREDICTED BY IDOCK:   -5.90 KCAL/MOL
REMARK 923 INTER-LIGAND FREE ENERGY PREDICTED BY IDOCK:   -5.15 KCAL/MOL
REMARK 924 INTRA-LIGAND FREE ENERGY PREDICTED BY IDOCK:   -0.75 KCAL/MOL
REMARK 927      BINDING AFFINITY PREDICTED BY RF-SCORE:    0.00 PKD
ROOT
HETATM    1  C   UNL     1     -11.929  13.752  69.199  1.00  0.00    -0.361 C  
HETATM    2  H   UNL     1     -13.528  14.255  70.204  1.00  0.00     0.000 HD 
HETATM    3  O   UNL     1     -12.652  14.606  70.104  1.00  0.00    -0.335 OA 
ENDROOT
BRANCH   1   4
HETATM    4  C   UNL     1     -10.503  14.322  69.037  1.00  0.00    -0.204 C  
BRANCH   4   5
HETATM    5  N   UNL     1     -10.412  15.749  69.357  1.00  0.00    -0.236 NA 
HETATM    6  C   UNL     1      -9.896  18.054  68.824  1.00  0.00    -0.360 C  
HETATM    7  C   UNL     1     -10.981  16.628  67.091  1.00  0.00    -0.023 C  
HETATM    8  C   UNL     1      -9.971  16.624  68.252  1.00  0.00    -0.261 C  
HETATM    9  H   UNL     1      -9.812  15.886  70.171  1.00  0.00     0.000 HD 
HETATM   10  C   UNL     1      -8.574  16.238  67.736  1.00  0.00    -0.175 C  
ENDBRANCH   4   5
ENDBRANCH   1   4
BRANCH   1  11
HETATM   11  C   UNL     1     -11.965  12.309  69.718  1.00  0.00    -0.295 C  
BRANCH  11  12
HETATM   12  O   UNL     1     -11.743  11.428  68.613  1.00  0.00    -0.295 OA 
BRANCH  12  13
HETATM   13  C   UNL     1     -10.558  10.757  68.636  1.00  0.00    -0.199 A  
HETATM   14  N   UNL     1     -10.186  10.112  69.743  1.00  0.00    -0.246 NA 
HETATM   15  S   UNL     1      -8.663   9.529  69.382  1.00  0.00    -0.179 SA 
HETATM   16  N   UNL     1      -8.470  10.110  67.832  1.00  0.00    -0.117 NA 
HETATM   17  C   UNL     1      -9.607  10.747  67.527  1.00  0.00    -0.158 A  
BRANCH  17  18
HETATM   18  N   UNL     1      -9.817  11.397  66.343  1.00  0.00    -0.206 NA 
HETATM   19  C   UNL     1      -9.851  10.717  65.047  1.00  0.00    -0.293 C  
HETATM   20  C   UNL     1     -10.979  11.338  64.205  1.00  0.00    -0.288 C  
HETATM   21  O   UNL     1     -10.796  12.758  64.053  1.00  0.00    -0.376 OA 
HETATM   22  C   UNL     1     -10.752  13.407  65.338  1.00  0.00    -0.300 C  
HETATM   23  C   UNL     1      -9.623  12.847  66.225  1.00  0.00    -0.243 C  
ENDBRANCH  17  18
ENDBRANCH  12  13
ENDBRANCH  11  12
ENDBRANCH   1  11
TORSDOF 6
ENDMDL
MODEL      172
REMARK 921   NORMALIZED FREE ENERGY PREDICTED BY IDOCK:   -3.78 KCAL/MOL
REMARK 922        TOTAL FREE ENERGY PREDICTED BY IDOCK:   -5.89 KCAL/MOL
REMARK 923 INTER-LIGAND FREE ENERGY PREDICTED BY IDOCK:   -5.46 KCAL/MOL
REMARK 924 INTRA-LIGAND FREE ENERGY PREDICTED BY IDOCK:   -0.43 KCAL/MOL
REMARK 927      BINDING AFFINITY PREDICTED BY RF-SCORE:    0.00 PKD
ROOT
HETATM    1  C   UNL     1     -10.751   9.480  70.852  1.00  0.00    -0.333 C  
HETATM    2  H   UNL     1     -12.642   9.925  70.635  1.00  0.00     0.000 HD 
HETATM    3  O   UNL     1     -12.140   9.125  70.732  1.00  0.00    -0.254 OA 
ENDROOT
BRANCH   1   4
HETATM    4  C   UNL     1      -9.935   8.180  71.010  1.00  0.00    -0.187 C  
BRANCH   4   5
HETATM    5  N   UNL     1      -8.508   8.355  70.722  1.00  0.00    -0.129 NA 
HETATM    6  C   UNL     1      -6.156   7.978  71.150  1.00  0.00    -0.034 C  
HETATM    7  C   UNL     1      -7.753   6.084  71.431  1.00  0.00    -0.104 C  
HETATM    8  C   UNL     1      -7.584   7.604  71.596  1.00  0.00    -0.085 C  
HETATM    9  H   UNL     1      -8.270   9.346  70.731  1.00  0.00     0.000 HD 
HETATM   10  C   UNL     1      -7.745   7.997  73.074  1.00  0.00    -0.189 C  
ENDBRANCH   4   5
ENDBRANCH   1   4
BRANCH   1  11
HETATM   11  C   UNL     1     -10.335  10.331  69.645  1.00  0.00    -0.248 C  
BRANCH  11  12
HETATM   12  O   UNL     1     -11.520  10.821  69.010  1.00  0.00    -0.262 OA 
BRANCH  12  13
HETATM   13  C   UNL     1     -11.802  12.132  69.242  1.00  0.00    -0.313 A  
HETATM   14  N   UNL     1     -12.189  12.519  70.458  1.00  0.00    -0.352 NA 
HETATM   15  S   UNL     1     -12.525  14.145  70.281  1.00  0.00    -0.322 SA 
HETATM   16  N   UNL     1     -12.200  14.353  68.660  1.00  0.00    -0.219 NA 
HETATM   17  C   UNL     1     -11.777  13.165  68.209  1.00  0.00    -0.349 A  
BRANCH  17  18
HETATM   18  N   UNL     1     -11.448  12.925  66.904  1.00  0.00    -0.323 NA 
HETATM   19  C   UNL     1     -10.145  12.404  66.485  1.00  0.00    -0.232 C  
HETATM   20  C   UNL     1     -10.373  11.377  65.364  1.00  0.00    -0.279 C  
HETATM   21  O   UNL     1     -11.089  11.960  64.260  1.00  0.00    -0.316 OA 
HETATM   22  C   UNL     1     -12.362  12.477  64.694  1.00  0.00    -0.474 C  
HETATM   23  C   UNL     1     -12.203  13.534  65.803  1.00  0.00    -0.461 C  
ENDBRANCH  17  18
ENDBRANCH  12  13
ENDBRANCH  11  12
ENDBRANCH   1  11
TORSDOF 6
ENDMDL
MODEL      173
REMARK 921   NORMALIZED FREE ENERGY PREDICTED BY IDOCK:   -3.75 KCAL/MOL
REMARK 922        TOTAL FREE ENERGY PREDICTED BY IDOCK:   -5.85 KCAL/MOL
REMARK 923 INTER-LIGAND FREE ENERGY PREDICTED BY IDOCK:   -5.08 KCAL/MOL
REMARK 924 INTRA-LIGAND FREE ENERGY PREDICTED BY IDOCK:   -0.77 KCAL/MOL
REMARK 927      BINDING AFFINITY PREDICTED BY RF-SCORE:    0.00 PKD
ROOT
HETATM    1  C   UNL     1     -10.406  15.724  69.689  1.00  0.00    -0.290 C  
HETATM    2  H   UNL     1      -9.102  14.323  70.085  1.00  0.00     0.000 HD 
HETATM    3  O   UNL     1      -9.207  14.980  69.408  1.00  0.00    -0.188 OA 
ENDROOT
BRANCH   1   4
HETATM    4  C   UNL     1     -10.579  16.791  68.587  1.00  0.00    -0.353 C  
BRANCH   4   5
HETATM    5  N   UNL     1      -9.308  17.363  68.132  1.00  0.00    -0.269 NA 
HETATM    6  C   UNL     1      -7.712  17.999  66.426  1.00  0.00    -0.304 C  
HETATM    7  C   UNL     1     -10.143  18.358  66.001  1.00  0.00    -0.293 C  
HETATM    8  C   UNL     1      -9.122  17.420  66.668  1.00  0.00    -0.258 C  
HETATM    9  H   UNL     1      -8.528  16.866  68.564  1.00  0.00     0.000 HD 
HETATM   10  C   UNL     1      -9.185  16.024  66.026  1.00  0.00    -0.375 C  
ENDBRANCH   4   5
ENDBRANCH   1   4
BRANCH   1  11
HETATM   11  C   UNL     1     -11.592  14.757  69.808  1.00  0.00    -0.297 C  
BRANCH  11  12
HETATM   12  O   UNL     1     -11.359  13.650  68.931  1.00  0.00    -0.256 OA 
BRANCH  12  13
HETATM   13  C   UNL     1     -11.749  12.438  69.413  1.00  0.00    -0.322 A  
HETATM   14  N   UNL     1     -12.632  12.377  70.412  1.00  0.00    -0.097 NA 
HETATM   15  S   UNL     1     -12.748  10.747  70.754  1.00  0.00    -0.343 SA 
HETATM   16  N   UNL     1     -11.666  10.122  69.651  1.00  0.00    -0.153 NA 
HETATM   17  C   UNL     1     -11.206  11.164  68.947  1.00  0.00    -0.256 A  
BRANCH  17  18
HETATM   18  N   UNL     1     -10.261  11.057  67.965  1.00  0.00    -0.174 NA 
HETATM   19  C   UNL     1     -10.562  10.602  66.606  1.00  0.00    -0.214 C  
HETATM   20  C   UNL     1      -9.758  11.465  65.619  1.00  0.00    -0.231 C  
HETATM   21  O   UNL     1      -8.347  11.401  65.899  1.00  0.00    -0.094 OA 
HETATM   22  C   UNL     1      -8.073  11.841  67.244  1.00  0.00    -0.164 C  
HETATM   23  C   UNL     1      -8.831  10.998  68.287  1.00  0.00    -0.144 C  
ENDBRANCH  17  18
ENDBRANCH  12  13
ENDBRANCH  11  12
ENDBRANCH   1  11
TORSDOF 6
ENDMDL
MODEL      174
REMARK 921   NORMALIZED FREE ENERGY PREDICTED BY IDOCK:   -3.75 KCAL/MOL
REMARK 922        TOTAL FREE ENERGY PREDICTED BY IDOCK:   -5.85 KCAL/MOL
REMARK 923 INTER-LIGAND FREE ENERGY PREDICTED BY IDOCK:   -5.33 KCAL/MOL
REMARK 924 INTRA-LIGAND FREE ENERGY PREDICTED BY IDOCK:   -0.52 KCAL/MOL
REMARK 927      BINDING AFFINITY PREDICTED BY RF-SCORE:    0.00 PKD
ROOT
HETATM    1  C   UNL     1      -9.874  11.383  68.075  1.00  0.00    -0.184 C  
HETATM    2  H   UNL     1      -8.625   9.978  67.543  1.00  0.00     0.000 HD 
HETATM    3  O   UNL     1      -9.328  10.456  67.121  1.00  0.00    -0.155 OA 
ENDROOT
BRANCH   1   4
HETATM    4  C   UNL     1     -11.018  12.161  67.389  1.00  0.00    -0.260 C  
BRANCH   4   5
HETATM    5  N   UNL     1     -10.595  13.457  66.852  1.00  0.00    -0.271 NA 
HETATM    6  C   UNL     1     -10.523  15.165  65.138  1.00  0.00    -0.437 C  
HETATM    7  C   UNL     1     -12.668  13.965  65.558  1.00  0.00    -0.536 C  
HETATM    8  C   UNL     1     -11.138  13.804  65.523  1.00  0.00    -0.298 C  
HETATM    9  H   UNL     1      -9.576  13.512  66.838  1.00  0.00     0.000 HD 
HETATM   10  C   UNL     1     -10.738  12.775  64.452  1.00  0.00    -0.398 C  
ENDBRANCH   4   5
ENDBRANCH   1   4
BRANCH   1  11
HETATM   11  C   UNL     1     -10.309  10.624  69.336  1.00  0.00    -0.208 C  
BRANCH  11  12
HETATM   12  O   UNL     1     -10.610   9.275  68.967  1.00  0.00    -0.218 OA 
BRANCH  12  13
HETATM   13  C   UNL     1     -11.190   8.523  69.942  1.00  0.00    -0.032 A  
HETATM   14  N   UNL     1     -11.780   9.124  70.976  1.00  0.00    -0.289 NA 
HETATM   15  S   UNL     1     -12.256   7.863  71.963  1.00  0.00    -0.314 SA 
HETATM   16  N   UNL     1     -11.698   6.559  71.088  1.00  0.00    -0.332 NA 
HETATM   17  C   UNL     1     -11.155   7.063  69.972  1.00  0.00    -0.278 A  
BRANCH  17  18
HETATM   18  N   UNL     1     -10.550   6.299  69.014  1.00  0.00    -0.235 NA 
HETATM   19  C   UNL     1     -11.007   6.242  67.623  1.00  0.00    -0.342 C  
HETATM   20  C   UNL     1      -9.771   6.227  66.709  1.00  0.00    -0.156 C  
HETATM   21  O   UNL     1      -8.900   5.124  67.026  1.00  0.00    -0.111 OA 
HETATM   22  C   UNL     1      -8.472   5.191  68.400  1.00  0.00    -0.095 C  
HETATM   23  C   UNL     1      -9.666   5.184  69.373  1.00  0.00    -0.177 C  
ENDBRANCH  17  18
ENDBRANCH  12  13
ENDBRANCH  11  12
ENDBRANCH   1  11
TORSDOF 6
ENDMDL
MODEL      175
REMARK 921   NORMALIZED FREE ENERGY PREDICTED BY IDOCK:   -3.74 KCAL/MOL
REMARK 922        TOTAL FREE ENERGY PREDICTED BY IDOCK:   -5.84 KCAL/MOL
REMARK 923 INTER-LIGAND FREE ENERGY PREDICTED BY IDOCK:   -4.81 KCAL/MOL
REMARK 924 INTRA-LIGAND FREE ENERGY PREDICTED BY IDOCK:   -1.03 KCAL/MOL
REMARK 927      BINDING AFFINITY PREDICTED BY RF-SCORE:    0.00 PKD
ROOT
HETATM    1  C   UNL     1     -10.642   7.674  67.098  1.00  0.00    -0.340 C  
HETATM    2  H   UNL     1     -11.075   6.059  66.086  1.00  0.00     0.000 HD 
HETATM    3  O   UNL     1     -11.138   6.328  66.994  1.00  0.00    -0.362 OA 
ENDROOT
BRANCH   1   4
HETATM    4  C   UNL     1     -10.744   8.111  68.575  1.00  0.00    -0.014 C  
BRANCH   4   5
HETATM    5  N   UNL     1      -9.542   8.797  69.058  1.00  0.00    -0.160 NA 
HETATM    6  C   UNL     1      -7.878   9.311  70.740  1.00  0.00    -0.174 C  
HETATM    7  C   UNL     1      -8.692   6.964  70.525  1.00  0.00    -0.150 C  
HETATM    8  C   UNL     1      -9.113   8.441  70.426  1.00  0.00    -0.149 C  
HETATM    9  H   UNL     1      -9.662   9.807  68.982  1.00  0.00     0.000 HD 
HETATM   10  C   UNL     1     -10.199   8.753  71.469  1.00  0.00    -0.371 C  
ENDBRANCH   4   5
ENDBRANCH   1   4
BRANCH   1  11
HETATM   11  C   UNL     1      -9.219   7.740  66.528  1.00  0.00    -0.184 C  
BRANCH  11  12
HETATM   12  O   UNL     1      -9.121   8.902  65.698  1.00  0.00    -0.204 OA 
BRANCH  12  13
HETATM   13  C   UNL     1      -8.416   9.937  66.231  1.00  0.00    -0.128 A  
HETATM   14  N   UNL     1      -7.243   9.703  66.821  1.00  0.00    -0.089 NA 
HETATM   15  S   UNL     1      -6.780  11.195  67.413  1.00  0.00    -0.091 SA 
HETATM   16  N   UNL     1      -8.075  12.131  66.939  1.00  0.00    -0.149 NA 
HETATM   17  C   UNL     1      -8.896  11.317  66.264  1.00  0.00    -0.191 A  
BRANCH  17  18
HETATM   18  N   UNL     1     -10.097  11.714  65.746  1.00  0.00    -0.231 NA 
HETATM   19  C   UNL     1     -11.339  11.742  66.523  1.00  0.00    -0.305 C  
HETATM   20  C   UNL     1     -12.117  13.013  66.144  1.00  0.00    -0.409 C  
HETATM   21  O   UNL     1     -12.377  13.063  64.729  1.00  0.00    -0.403 OA 
HETATM   22  C   UNL     1     -11.146  13.023  63.982  1.00  0.00    -0.395 C  
HETATM   23  C   UNL     1     -10.327  11.757  64.298  1.00  0.00    -0.314 C  
ENDBRANCH  17  18
ENDBRANCH  12  13
ENDBRANCH  11  12
ENDBRANCH   1  11
TORSDOF 6
ENDMDL
MODEL      176
REMARK 921   NORMALIZED FREE ENERGY PREDICTED BY IDOCK:   -3.72 KCAL/MOL
REMARK 922        TOTAL FREE ENERGY PREDICTED BY IDOCK:   -5.81 KCAL/MOL
REMARK 923 INTER-LIGAND FREE ENERGY PREDICTED BY IDOCK:   -4.61 KCAL/MOL
REMARK 924 INTRA-LIGAND FREE ENERGY PREDICTED BY IDOCK:   -1.20 KCAL/MOL
REMARK 927      BINDING AFFINITY PREDICTED BY RF-SCORE:    0.00 PKD
ROOT
HETATM    1  C   UNL     1     -10.163   7.868  67.574  1.00  0.00    -0.242 C  
HETATM    2  H   UNL     1     -10.824   9.068  66.180  1.00  0.00     0.000 HD 
HETATM    3  O   UNL     1     -10.760   9.098  67.127  1.00  0.00    -0.255 OA 
ENDROOT
BRANCH   1   4
HETATM    4  C   UNL     1     -10.058   7.918  69.114  1.00  0.00    -0.197 C  
BRANCH   4   5
HETATM    5  N   UNL     1     -11.363   7.953  69.780  1.00  0.00    -0.454 NA 
HETATM    6  C   UNL     1     -12.910   8.762  71.458  1.00  0.00    -0.366 C  
HETATM    7  C   UNL     1     -11.366  10.382  70.358  1.00  0.00    -0.417 C  
HETATM    8  C   UNL     1     -11.493   8.938  70.874  1.00  0.00    -0.288 C  
HETATM    9  H   UNL     1     -11.607   7.022  70.118  1.00  0.00     0.000 HD 
HETATM   10  C   UNL     1     -10.475   8.686  71.999  1.00  0.00    -0.422 C  
ENDBRANCH   4   5
ENDBRANCH   1   4
BRANCH   1  11
HETATM   11  C   UNL     1     -10.979   6.682  67.045  1.00  0.00    -0.393 C  
BRANCH  11  12
HETATM   12  O   UNL     1     -10.812   5.583  67.946  1.00  0.00    -0.162 OA 
BRANCH  12  13
HETATM   13  C   UNL     1      -9.914   4.640  67.550  1.00  0.00    -0.121 A  
HETATM   14  N   UNL     1      -9.949   4.180  66.299  1.00  0.00    -0.202 NA 
HETATM   15  S   UNL     1      -8.773   2.993  66.268  1.00  0.00    -0.139 SA 
HETATM   16  N   UNL     1      -8.235   3.052  67.844  1.00  0.00    -0.077 NA 
HETATM   17  C   UNL     1      -8.928   4.030  68.440  1.00  0.00    -0.118 A  
BRANCH  17  18
HETATM   18  N   UNL     1      -8.795   4.356  69.760  1.00  0.00    -0.080 NA 
HETATM   19  C   UNL     1      -7.542   4.837  70.347  1.00  0.00    -0.054 C  
HETATM   20  C   UNL     1      -7.875   5.962  71.342  1.00  0.00    -0.112 C  
HETATM   21  O   UNL     1      -8.794   5.509  72.353  1.00  0.00    -0.134 OA 
HETATM   22  C   UNL     1     -10.014   5.029  71.756  1.00  0.00    -0.191 C  
HETATM   23  C   UNL     1      -9.753   3.880  70.764  1.00  0.00    -0.185 C  
ENDBRANCH  17  18
ENDBRANCH  12  13
ENDBRANCH  11  12
ENDBRANCH   1  11
TORSDOF 6
ENDMDL
MODEL      177
REMARK 921   NORMALIZED FREE ENERGY PREDICTED BY IDOCK:   -3.71 KCAL/MOL
REMARK 922        TOTAL FREE ENERGY PREDICTED BY IDOCK:   -5.80 KCAL/MOL
REMARK 923 INTER-LIGAND FREE ENERGY PREDICTED BY IDOCK:   -4.87 KCAL/MOL
REMARK 924 INTRA-LIGAND FREE ENERGY PREDICTED BY IDOCK:   -0.92 KCAL/MOL
REMARK 927      BINDING AFFINITY PREDICTED BY RF-SCORE:    0.00 PKD
ROOT
HETATM    1  C   UNL     1      -7.697  14.967  67.056  1.00  0.00    -0.043 C  
HETATM    2  H   UNL     1      -6.918  16.759  67.103  1.00  0.00     0.000 HD 
HETATM    3  O   UNL     1      -6.647  15.893  67.384  1.00  0.00    -0.165 OA 
ENDROOT
BRANCH   1   4
HETATM    4  C   UNL     1      -7.257  13.559  67.513  1.00  0.00    -0.154 C  
BRANCH   4   5
HETATM    5  N   UNL     1      -7.731  12.491  66.629  1.00  0.00    -0.366 NA 
HETATM    6  C   UNL     1      -7.633  10.261  65.692  1.00  0.00    -0.148 C  
HETATM    7  C   UNL     1      -7.188  10.568  68.126  1.00  0.00    -0.087 C  
HETATM    8  C   UNL     1      -7.008  11.207  66.738  1.00  0.00    -0.137 C  
HETATM    9  H   UNL     1      -7.728  12.812  65.661  1.00  0.00     0.000 HD 
HETATM   10  C   UNL     1      -5.513  11.360  66.415  1.00  0.00    -0.129 C  
ENDBRANCH   4   5
ENDBRANCH   1   4
BRANCH   1  11
HETATM   11  C   UNL     1      -9.013  15.441  67.687  1.00  0.00    -0.181 C  
BRANCH  11  12
HETATM   12  O   UNL     1      -9.256  14.660  68.861  1.00  0.00    -0.194 OA 
BRANCH  12  13
HETATM   13  C   UNL     1     -10.437  14.911  69.490  1.00  0.00    -0.201 A  
HETATM   14  N   UNL     1     -10.473  15.775  70.505  1.00  0.00    -0.170 NA 
HETATM   15  S   UNL     1     -12.054  15.708  71.040  1.00  0.00    -0.433 SA 
HETATM   16  N   UNL     1     -12.685  14.571  69.998  1.00  0.00    -0.231 NA 
HETATM   17  C   UNL     1     -11.690  14.233  69.168  1.00  0.00    -0.320 A  
BRANCH  17  18
HETATM   18  N   UNL     1     -11.811  13.288  68.188  1.00  0.00    -0.353 NA 
HETATM   19  C   UNL     1     -12.252  13.593  66.825  1.00  0.00    -0.369 C  
HETATM   20  C   UNL     1     -11.400  12.770  65.845  1.00  0.00    -0.324 C  
HETATM   21  O   UNL     1     -11.493  11.362  66.128  1.00  0.00    -0.270 OA 
HETATM   22  C   UNL     1     -11.066  11.083  67.476  1.00  0.00    -0.302 C  
HETATM   23  C   UNL     1     -11.899  11.860  68.513  1.00  0.00    -0.297 C  
ENDBRANCH  17  18
ENDBRANCH  12  13
ENDBRANCH  11  12
ENDBRANCH   1  11
TORSDOF 6
ENDMDL
MODEL      178
REMARK 921   NORMALIZED FREE ENERGY PREDICTED BY IDOCK:   -3.71 KCAL/MOL
REMARK 922        TOTAL FREE ENERGY PREDICTED BY IDOCK:   -5.79 KCAL/MOL
REMARK 923 INTER-LIGAND FREE ENERGY PREDICTED BY IDOCK:   -4.83 KCAL/MOL
REMARK 924 INTRA-LIGAND FREE ENERGY PREDICTED BY IDOCK:   -0.96 KCAL/MOL
REMARK 927      BINDING AFFINITY PREDICTED BY RF-SCORE:    0.00 PKD
ROOT
HETATM    1  C   UNL     1      -9.126   9.712  68.161  1.00  0.00    -0.122 C  
HETATM    2  H   UNL     1      -8.606  10.521  69.863  1.00  0.00     0.000 HD 
HETATM    3  O   UNL     1      -9.098   9.753  69.599  1.00  0.00    -0.189 OA 
ENDROOT
BRANCH   1   4
HETATM    4  C   UNL     1      -9.926   8.463  67.732  1.00  0.00    -0.186 C  
BRANCH   4   5
HETATM    5  N   UNL     1      -9.406   7.835  66.514  1.00  0.00    -0.182 NA 
HETATM    6  C   UNL     1      -8.620   5.941  65.227  1.00  0.00    -0.119 C  
HETATM    7  C   UNL     1     -10.554   5.633  66.769  1.00  0.00    -0.372 C  
HETATM    8  C   UNL     1      -9.217   6.371  66.582  1.00  0.00    -0.151 C  
HETATM    9  H   UNL     1      -8.536   8.286  66.233  1.00  0.00     0.000 HD 
HETATM   10  C   UNL     1      -8.231   5.971  67.692  1.00  0.00    -0.109 C  
ENDBRANCH   4   5
ENDBRANCH   1   4
BRANCH   1  11
HETATM   11  C   UNL     1      -9.697  11.030  67.623  1.00  0.00    -0.168 C  
BRANCH  11  12
HETATM   12  O   UNL     1      -8.767  11.570  66.679  1.00  0.00    -0.172 OA 
BRANCH  12  13
HETATM   13  C   UNL     1      -9.052  11.315  65.373  1.00  0.00    -0.147 A  
HETATM   14  N   UNL     1      -8.381  10.362  64.724  1.00  0.00    -0.168 NA 
HETATM   15  S   UNL     1      -8.959  10.449  63.160  1.00  0.00    -0.270 SA 
HETATM   16  N   UNL     1     -10.044  11.705  63.301  1.00  0.00    -0.417 NA 
HETATM   17  C   UNL     1     -10.023  12.074  64.588  1.00  0.00    -0.214 A  
BRANCH  17  18
HETATM   18  N   UNL     1     -10.758  13.111  65.090  1.00  0.00    -0.304 NA 
HETATM   19  C   UNL     1     -12.153  12.977  65.515  1.00  0.00    -0.452 C  
HETATM   20  C   UNL     1     -12.347  13.793  66.804  1.00  0.00    -0.321 C  
HETATM   21  O   UNL     1     -11.984  15.172  66.608  1.00  0.00    -0.081 OA 
HETATM   22  C   UNL     1     -10.613  15.283  66.179  1.00  0.00    -0.313 C  
HETATM   23  C   UNL     1     -10.357  14.506  64.874  1.00  0.00    -0.371 C  
ENDBRANCH  17  18
ENDBRANCH  12  13
ENDBRANCH  11  12
ENDBRANCH   1  11
TORSDOF 6
ENDMDL
MODEL      179
REMARK 921   NORMALIZED FREE ENERGY PREDICTED BY IDOCK:   -3.69 KCAL/MOL
REMARK 922        TOTAL FREE ENERGY PREDICTED BY IDOCK:   -5.77 KCAL/MOL
REMARK 923 INTER-LIGAND FREE ENERGY PREDICTED BY IDOCK:   -4.79 KCAL/MOL
REMARK 924 INTRA-LIGAND FREE ENERGY PREDICTED BY IDOCK:   -0.98 KCAL/MOL
REMARK 927      BINDING AFFINITY PREDICTED BY RF-SCORE:    0.00 PKD
ROOT
HETATM    1  C   UNL     1      -7.614   7.806  68.891  1.00  0.00    -0.101 C  
HETATM    2  H   UNL     1      -6.257   7.409  70.240  1.00  0.00     0.000 HD 
HETATM    3  O   UNL     1      -6.639   6.945  69.505  1.00  0.00    -0.045 OA 
ENDROOT
BRANCH   1   4
HETATM    4  C   UNL     1      -8.235   7.052  67.695  1.00  0.00    -0.117 C  
BRANCH   4   5
HETATM    5  N   UNL     1      -8.431   5.623  67.953  1.00  0.00    -0.103 NA 
HETATM    6  C   UNL     1      -9.301   3.430  67.409  1.00  0.00    -0.243 C  
HETATM    7  C   UNL     1      -8.394   4.857  65.577  1.00  0.00    -0.123 C  
HETATM    8  C   UNL     1      -9.167   4.882  66.907  1.00  0.00    -0.122 C  
HETATM    9  H   UNL     1      -8.883   5.491  68.857  1.00  0.00     0.000 HD 
HETATM   10  C   UNL     1     -10.580   5.448  66.688  1.00  0.00    -0.359 C  
ENDBRANCH   4   5
ENDBRANCH   1   4
BRANCH   1  11
HETATM   11  C   UNL     1      -8.637   8.251  69.943  1.00  0.00    -0.125 C  
BRANCH  11  12
HETATM   12  O   UNL     1      -9.274   7.085  70.473  1.00  0.00    -0.158 OA 
BRANCH  12  13
HETATM   13  C   UNL     1      -9.348   7.032  71.831  1.00  0.00    -0.140 A  
HETATM   14  N   UNL     1      -8.307   6.581  72.532  1.00  0.00    -0.114 NA 
HETATM   15  S   UNL     1      -8.847   6.585  74.113  1.00  0.00    -0.165 SA 
HETATM   16  N   UNL     1     -10.404   7.140  73.905  1.00  0.00    -0.349 NA 
HETATM   17  C   UNL     1     -10.544   7.380  72.595  1.00  0.00    -0.275 A  
BRANCH  17  18
HETATM   18  N   UNL     1     -11.708   7.813  72.025  1.00  0.00    -0.290 NA 
HETATM   19  C   UNL     1     -12.621   6.932  71.293  1.00  0.00    -0.345 C  
HETATM   20  C   UNL     1     -14.064   7.317  71.662  1.00  0.00    -0.384 C  
HETATM   21  O   UNL     1     -14.323   8.705  71.376  1.00  0.00    -0.386 OA 
HETATM   22  C   UNL     1     -13.408   9.553  72.096  1.00  0.00    -0.461 C  
HETATM   23  C   UNL     1     -11.941   9.235  71.751  1.00  0.00    -0.385 C  
ENDBRANCH  17  18
ENDBRANCH  12  13
ENDBRANCH  11  12
ENDBRANCH   1  11
TORSDOF 6
ENDMDL
MODEL      180
REMARK 921   NORMALIZED FREE ENERGY PREDICTED BY IDOCK:   -3.68 KCAL/MOL
REMARK 922        TOTAL FREE ENERGY PREDICTED BY IDOCK:   -5.75 KCAL/MOL
REMARK 923 INTER-LIGAND FREE ENERGY PREDICTED BY IDOCK:   -5.01 KCAL/MOL
REMARK 924 INTRA-LIGAND FREE ENERGY PREDICTED BY IDOCK:   -0.74 KCAL/MOL
REMARK 927      BINDING AFFINITY PREDICTED BY RF-SCORE:    0.00 PKD
ROOT
HETATM    1  C   UNL     1      -7.078  11.315  67.404  1.00  0.00    -0.109 C  
HETATM    2  H   UNL     1      -5.550  11.396  68.619  1.00  0.00     0.000 HD 
HETATM    3  O   UNL     1      -6.168  10.728  68.350  1.00  0.00    -0.049 OA 
ENDROOT
BRANCH   1   4
HETATM    4  C   UNL     1      -8.085  10.229  66.967  1.00  0.00    -0.121 C  
BRANCH   4   5
HETATM    5  N   UNL     1      -9.195  10.058  67.909  1.00  0.00    -0.137 NA 
HETATM    6  C   UNL     1     -10.764   8.721  69.178  1.00  0.00    -0.150 C  
HETATM    7  C   UNL     1      -8.411   7.930  68.951  1.00  0.00    -0.127 C  
HETATM    8  C   UNL     1      -9.553   8.660  68.224  1.00  0.00    -0.147 C  
HETATM    9  H   UNL     1     -10.016  10.562  67.574  1.00  0.00     0.000 HD 
HETATM   10  C   UNL     1      -9.969   7.876  66.968  1.00  0.00    -0.322 C  
ENDBRANCH   4   5
ENDBRANCH   1   4
BRANCH   1  11
HETATM   11  C   UNL     1      -7.734  12.554  68.026  1.00  0.00    -0.140 C  
BRANCH  11  12
HETATM   12  O   UNL     1      -8.764  13.010  67.143  1.00  0.00    -0.196 OA 
BRANCH  12  13
HETATM   13  C   UNL     1      -9.538  14.019  67.627  1.00  0.00    -0.221 A  
HETATM   14  N   UNL     1      -9.252  14.561  68.812  1.00  0.00    -0.186 NA 
HETATM   15  S   UNL     1     -10.482  15.663  69.064  1.00  0.00    -0.245 SA 
HETATM   16  N   UNL     1     -11.385  15.438  67.682  1.00  0.00    -0.321 NA 
HETATM   17  C   UNL     1     -10.734  14.522  66.955  1.00  0.00    -0.288 A  
BRANCH  17  18
HETATM   18  N   UNL     1     -11.189  14.041  65.759  1.00  0.00    -0.300 NA 
HETATM   19  C   UNL     1     -10.324  13.819  64.599  1.00  0.00    -0.368 C  
HETATM   20  C   UNL     1     -10.751  12.507  63.921  1.00  0.00    -0.437 C  
HETATM   21  O   UNL     1     -12.141  12.542  63.546  1.00  0.00    -0.493 OA 
HETATM   22  C   UNL     1     -12.975  12.772  64.698  1.00  0.00    -0.146 C  
HETATM   23  C   UNL     1     -12.614  14.089  65.411  1.00  0.00    -0.505 C  
ENDBRANCH  17  18
ENDBRANCH  12  13
ENDBRANCH  11  12
ENDBRANCH   1  11
TORSDOF 6
ENDMDL
MODEL      181
REMARK 921   NORMALIZED FREE ENERGY PREDICTED BY IDOCK:   -3.67 KCAL/MOL
REMARK 922        TOTAL FREE ENERGY PREDICTED BY IDOCK:   -5.75 KCAL/MOL
REMARK 923 INTER-LIGAND FREE ENERGY PREDICTED BY IDOCK:   -5.16 KCAL/MOL
REMARK 924 INTRA-LIGAND FREE ENERGY PREDICTED BY IDOCK:   -0.59 KCAL/MOL
REMARK 927      BINDING AFFINITY PREDICTED BY RF-SCORE:    0.00 PKD
ROOT
HETATM    1  C   UNL     1     -11.194  11.733  66.262  1.00  0.00    -0.312 C  
HETATM    2  H   UNL     1     -12.725  12.897  66.611  1.00  0.00     0.000 HD 
HETATM    3  O   UNL     1     -12.380  12.437  65.855  1.00  0.00    -0.638 OA 
ENDROOT
BRANCH   1   4
HETATM    4  C   UNL     1     -10.633  10.986  65.033  1.00  0.00    -0.244 C  
BRANCH   4   5
HETATM    5  N   UNL     1     -10.092   9.663  65.360  1.00  0.00    -0.345 NA 
HETATM    6  C   UNL     1      -8.389   7.944  65.272  1.00  0.00    -0.140 C  
HETATM    7  C   UNL     1      -7.690  10.325  65.517  1.00  0.00    -0.149 C  
HETATM    8  C   UNL     1      -8.726   9.393  64.865  1.00  0.00    -0.190 C  
HETATM    9  H   UNL     1     -10.730   8.936  65.036  1.00  0.00     0.000 HD 
HETATM   10  C   UNL     1      -8.639   9.495  63.333  1.00  0.00    -0.215 C  
ENDBRANCH   4   5
ENDBRANCH   1   4
BRANCH   1  11
HETATM   11  C   UNL     1     -10.203  12.721  66.892  1.00  0.00    -0.236 C  
BRANCH  11  12
HETATM   12  O   UNL     1      -9.983  12.332  68.252  1.00  0.00    -0.208 OA 
BRANCH  12  13
HETATM   13  C   UNL     1     -10.820  12.902  69.161  1.00  0.00    -0.079 A  
HETATM   14  N   UNL     1     -11.652  12.132  69.866  1.00  0.00    -0.263 NA 
HETATM   15  S   UNL     1     -12.549  13.218  70.764  1.00  0.00    -0.228 SA 
HETATM   16  N   UNL     1     -11.897  14.661  70.245  1.00  0.00    -0.285 NA 
HETATM   17  C   UNL     1     -10.925  14.342  69.380  1.00  0.00    -0.231 A  
BRANCH  17  18
HETATM   18  N   UNL     1     -10.179  15.268  68.706  1.00  0.00    -0.220 NA 
HETATM   19  C   UNL     1      -8.763  15.519  68.987  1.00  0.00    -0.235 C  
HETATM   20  C   UNL     1      -8.034  15.723  67.648  1.00  0.00    -0.146 C  
HETATM   21  O   UNL     1      -8.623  16.798  66.892  1.00  0.00    -0.188 OA 
HETATM   22  C   UNL     1     -10.016  16.538  66.637  1.00  0.00    -0.276 C  
HETATM   23  C   UNL     1     -10.812  16.349  67.942  1.00  0.00    -0.328 C  
ENDBRANCH  17  18
ENDBRANCH  12  13
ENDBRANCH  11  12
ENDBRANCH   1  11
TORSDOF 6
ENDMDL
MODEL      182
REMARK 921   NORMALIZED FREE ENERGY PREDICTED BY IDOCK:   -3.66 KCAL/MOL
REMARK 922        TOTAL FREE ENERGY PREDICTED BY IDOCK:   -5.74 KCAL/MOL
REMARK 923 INTER-LIGAND FREE ENERGY PREDICTED BY IDOCK:   -4.98 KCAL/MOL
REMARK 924 INTRA-LIGAND FREE ENERGY PREDICTED BY IDOCK:   -0.75 KCAL/MOL
REMARK 927      BINDING AFFINITY PREDICTED BY RF-SCORE:    0.00 PKD
ROOT
HETATM    1  C   UNL     1      -7.589   7.966  70.657  1.00  0.00    -0.077 C  
HETATM    2  H   UNL     1      -6.156   8.810  71.684  1.00  0.00     0.000 HD 
HETATM    3  O   UNL     1      -6.542   7.943  71.643  1.00  0.00    -0.041 OA 
ENDROOT
BRANCH   1   4
HETATM    4  C   UNL     1      -8.217   6.557  70.591  1.00  0.00    -0.125 C  
BRANCH   4   5
HETATM    5  N   UNL     1      -8.645   6.179  69.241  1.00  0.00    -0.119 NA 
HETATM    6  C   UNL     1     -10.063   4.994  67.678  1.00  0.00    -0.192 C  
HETATM    7  C   UNL     1     -11.090   6.003  69.713  1.00  0.00    -0.476 C  
HETATM    8  C   UNL     1      -9.832   5.302  69.171  1.00  0.00    -0.187 C  
HETATM    9  H   UNL     1      -7.867   5.755  68.735  1.00  0.00     0.000 HD 
HETATM   10  C   UNL     1      -9.607   3.971  69.908  1.00  0.00    -0.281 C  
ENDBRANCH   4   5
ENDBRANCH   1   4
BRANCH   1  11
HETATM   11  C   UNL     1      -8.590   9.077  71.000  1.00  0.00    -0.210 C  
BRANCH  11  12
HETATM   12  O   UNL     1      -9.598   9.103  69.984  1.00  0.00    -0.174 OA 
BRANCH  12  13
HETATM   13  C   UNL     1     -10.755   9.730  70.332  1.00  0.00    -0.308 A  
HETATM   14  N   UNL     1     -11.452   9.294  71.383  1.00  0.00    -0.339 NA 
HETATM   15  S   UNL     1     -12.818  10.254  71.392  1.00  0.00    -0.476 SA 
HETATM   16  N   UNL     1     -12.535  11.207  70.054  1.00  0.00    -0.260 NA 
HETATM   17  C   UNL     1     -11.341  10.834  69.577  1.00  0.00    -0.289 A  
BRANCH  17  18
HETATM   18  N   UNL     1     -10.777  11.366  68.451  1.00  0.00    -0.192 NA 
HETATM   19  C   UNL     1      -9.338  11.595  68.302  1.00  0.00    -0.191 C  
HETATM   20  C   UNL     1      -8.932  11.208  66.871  1.00  0.00    -0.161 C  
HETATM   21  O   UNL     1      -9.689  11.948  65.895  1.00  0.00    -0.231 OA 
HETATM   22  C   UNL     1     -11.101  11.719  66.065  1.00  0.00    -0.312 C  
HETATM   23  C   UNL     1     -11.580  12.112  67.475  1.00  0.00    -0.343 C  
ENDBRANCH  17  18
ENDBRANCH  12  13
ENDBRANCH  11  12
ENDBRANCH   1  11
TORSDOF 6
ENDMDL
MODEL      183
REMARK 921   NORMALIZED FREE ENERGY PREDICTED BY IDOCK:   -3.66 KCAL/MOL
REMARK 922        TOTAL FREE ENERGY PREDICTED BY IDOCK:   -5.73 KCAL/MOL
REMARK 923 INTER-LIGAND FREE ENERGY PREDICTED BY IDOCK:   -4.78 KCAL/MOL
REMARK 924 INTRA-LIGAND FREE ENERGY PREDICTED BY IDOCK:   -0.95 KCAL/MOL
REMARK 927      BINDING AFFINITY PREDICTED BY RF-SCORE:    0.00 PKD
ROOT
HETATM    1  C   UNL     1     -11.775  14.590  68.026  1.00  0.00    -0.342 C  
HETATM    2  H   UNL     1     -11.614  14.832  66.094  1.00  0.00     0.000 HD 
HETATM    3  O   UNL     1     -11.864  14.120  66.670  1.00  0.00    -0.386 OA 
ENDROOT
BRANCH   1   4
HETATM    4  C   UNL     1     -12.181  13.432  68.964  1.00  0.00    -0.148 C  
BRANCH   4   5
HETATM    5  N   UNL     1     -11.049  12.596  69.373  1.00  0.00    -0.447 NA 
HETATM    6  C   UNL     1      -9.963  10.466  69.751  1.00  0.00    -0.167 C  
HETATM    7  C   UNL     1     -11.404  10.745  67.736  1.00  0.00    -0.354 C  
HETATM    8  C   UNL     1     -11.242  11.140  69.214  1.00  0.00    -0.267 C  
HETATM    9  H   UNL     1     -10.788  12.811  70.335  1.00  0.00     0.000 HD 
HETATM   10  C   UNL     1     -12.437  10.626  70.034  1.00  0.00    -0.294 C  
ENDBRANCH   4   5
ENDBRANCH   1   4
BRANCH   1  11
HETATM   11  C   UNL     1     -10.365  15.134  68.288  1.00  0.00    -0.231 C  
BRANCH  11  12
HETATM   12  O   UNL     1      -9.595  14.983  67.091  1.00  0.00    -0.210 OA 
BRANCH  12  13
HETATM   13  C   UNL     1      -8.530  14.141  67.189  1.00  0.00    -0.195 A  
HETATM   14  N   UNL     1      -8.695  12.838  66.957  1.00  0.00    -0.207 NA 
HETATM   15  S   UNL     1      -7.197  12.174  67.280  1.00  0.00    -0.124 SA 
HETATM   16  N   UNL     1      -6.347  13.534  67.731  1.00  0.00    -0.153 NA 
HETATM   17  C   UNL     1      -7.195  14.563  67.605  1.00  0.00    -0.187 A  
BRANCH  17  18
HETATM   18  N   UNL     1      -6.872  15.853  67.923  1.00  0.00    -0.131 NA 
HETATM   19  C   UNL     1      -7.198  16.998  67.070  1.00  0.00    -0.189 C  
HETATM   20  C   UNL     1      -7.653  18.158  67.971  1.00  0.00    -0.242 C  
HETATM   21  O   UNL     1      -6.644  18.491  68.942  1.00  0.00    -0.244 OA 
HETATM   22  C   UNL     1      -6.329  17.350  69.763  1.00  0.00    -0.142 C  
HETATM   23  C   UNL     1      -5.840  16.157  68.921  1.00  0.00    -0.118 C  
ENDBRANCH  17  18
ENDBRANCH  12  13
ENDBRANCH  11  12
ENDBRANCH   1  11
TORSDOF 6
ENDMDL
MODEL      184
REMARK 921   NORMALIZED FREE ENERGY PREDICTED BY IDOCK:   -3.66 KCAL/MOL
REMARK 922        TOTAL FREE ENERGY PREDICTED BY IDOCK:   -5.73 KCAL/MOL
REMARK 923 INTER-LIGAND FREE ENERGY PREDICTED BY IDOCK:   -5.06 KCAL/MOL
REMARK 924 INTRA-LIGAND FREE ENERGY PREDICTED BY IDOCK:   -0.67 KCAL/MOL
REMARK 927      BINDING AFFINITY PREDICTED BY RF-SCORE:    0.00 PKD
ROOT
HETATM    1  C   UNL     1      -7.813   8.662  67.495  1.00  0.00    -0.102 C  
HETATM    2  H   UNL     1      -6.197   9.716  67.186  1.00  0.00     0.000 HD 
HETATM    3  O   UNL     1      -6.385   8.814  67.413  1.00  0.00    -0.055 OA 
ENDROOT
BRANCH   1   4
HETATM    4  C   UNL     1      -8.121   7.195  67.865  1.00  0.00    -0.119 C  
BRANCH   4   5
HETATM    5  N   UNL     1      -8.843   6.474  66.813  1.00  0.00    -0.125 NA 
HETATM    6  C   UNL     1     -10.531   4.929  66.022  1.00  0.00    -0.327 C  
HETATM    7  C   UNL     1     -11.085   6.460  67.910  1.00  0.00    -0.370 C  
HETATM    8  C   UNL     1      -9.960   5.625  67.275  1.00  0.00    -0.159 C  
HETATM    9  H   UNL     1      -8.189   5.920  66.259  1.00  0.00     0.000 HD 
HETATM   10  C   UNL     1      -9.489   4.538  68.256  1.00  0.00    -0.205 C  
ENDBRANCH   4   5
ENDBRANCH   1   4
BRANCH   1  11
HETATM   11  C   UNL     1      -8.380   9.685  68.489  1.00  0.00    -0.117 C  
BRANCH  11  12
HETATM   12  O   UNL     1      -9.554  10.267  67.915  1.00  0.00    -0.144 OA 
BRANCH  12  13
HETATM   13  C   UNL     1     -10.507  10.651  68.808  1.00  0.00    -0.194 A  
HETATM   14  N   UNL     1     -10.753   9.893  69.877  1.00  0.00    -0.259 NA 
HETATM   15  S   UNL     1     -12.032  10.656  70.632  1.00  0.00    -0.390 SA 
HETATM   16  N   UNL     1     -12.284  11.935  69.594  1.00  0.00    -0.203 NA 
HETATM   17  C   UNL     1     -11.350  11.833  68.641  1.00  0.00    -0.270 A  
BRANCH  17  18
HETATM   18  N   UNL     1     -11.256  12.686  67.578  1.00  0.00    -0.272 NA 
HETATM   19  C   UNL     1     -11.872  12.420  66.275  1.00  0.00    -0.364 C  
HETATM   20  C   UNL     1     -12.462  13.736  65.742  1.00  0.00    -0.485 C  
HETATM   21  O   UNL     1     -11.455  14.761  65.652  1.00  0.00    -0.348 OA 
HETATM   22  C   UNL     1     -10.853  15.000  66.939  1.00  0.00    -0.315 C  
HETATM   23  C   UNL     1     -10.219  13.722  67.520  1.00  0.00    -0.241 C  
ENDBRANCH  17  18
ENDBRANCH  12  13
ENDBRANCH  11  12
ENDBRANCH   1  11
TORSDOF 6
ENDMDL
MODEL      185
REMARK 921   NORMALIZED FREE ENERGY PREDICTED BY IDOCK:   -3.65 KCAL/MOL
REMARK 922        TOTAL FREE ENERGY PREDICTED BY IDOCK:   -5.71 KCAL/MOL
REMARK 923 INTER-LIGAND FREE ENERGY PREDICTED BY IDOCK:   -5.07 KCAL/MOL
REMARK 924 INTRA-LIGAND FREE ENERGY PREDICTED BY IDOCK:   -0.64 KCAL/MOL
REMARK 927      BINDING AFFINITY PREDICTED BY RF-SCORE:    0.00 PKD
ROOT
HETATM    1  C   UNL     1     -12.113  12.307  68.837  1.00  0.00    -0.126 C  
HETATM    2  H   UNL     1     -12.333  12.895  70.688  1.00  0.00     0.000 HD 
HETATM    3  O   UNL     1     -11.870  13.217  69.924  1.00  0.00    -0.312 OA 
ENDROOT
BRANCH   1   4
HETATM    4  C   UNL     1     -11.359  12.831  67.595  1.00  0.00    -0.310 C  
BRANCH   4   5
HETATM    5  N   UNL     1     -10.200  13.663  67.931  1.00  0.00    -0.244 NA 
HETATM    6  C   UNL     1      -8.791  15.613  67.662  1.00  0.00    -0.181 C  
HETATM    7  C   UNL     1     -11.265  15.883  67.519  1.00  0.00    -0.171 C  
HETATM    8  C   UNL     1     -10.096  14.938  67.192  1.00  0.00    -0.240 C  
HETATM    9  H   UNL     1      -9.341  13.125  67.821  1.00  0.00     0.000 HD 
HETATM   10  C   UNL     1     -10.003  14.716  65.673  1.00  0.00    -0.381 C  
ENDBRANCH   4   5
ENDBRANCH   1   4
BRANCH   1  11
HETATM   11  C   UNL     1     -11.707  10.889  69.257  1.00  0.00    -0.324 C  
BRANCH  11  12
HETATM   12  O   UNL     1     -10.569  10.498  68.482  1.00  0.00    -0.182 OA 
BRANCH  12  13
HETATM   13  C   UNL     1      -9.408  10.368  69.181  1.00  0.00    -0.199 A  
HETATM   14  N   UNL     1      -8.357  11.126  68.863  1.00  0.00    -0.133 NA 
HETATM   15  S   UNL     1      -7.144  10.585  69.875  1.00  0.00    -0.111 SA 
HETATM   16  N   UNL     1      -7.945   9.379  70.700  1.00  0.00    -0.193 NA 
HETATM   17  C   UNL     1      -9.203   9.385  70.242  1.00  0.00    -0.245 A  
BRANCH  17  18
HETATM   18  N   UNL     1     -10.163   8.504  70.654  1.00  0.00    -0.192 NA 
HETATM   19  C   UNL     1     -10.703   7.444  69.799  1.00  0.00    -0.241 C  
HETATM   20  C   UNL     1     -10.877   6.177  70.652  1.00  0.00    -0.292 C  
HETATM   21  O   UNL     1     -11.725   6.424  71.789  1.00  0.00    -0.304 OA 
HETATM   22  C   UNL     1     -11.184   7.476  72.610  1.00  0.00    -0.348 C  
HETATM   23  C   UNL     1     -11.008   8.787  71.820  1.00  0.00    -0.345 C  
ENDBRANCH  17  18
ENDBRANCH  12  13
ENDBRANCH  11  12
ENDBRANCH   1  11
TORSDOF 6
ENDMDL
MODEL      186
REMARK 921   NORMALIZED FREE ENERGY PREDICTED BY IDOCK:   -3.64 KCAL/MOL
REMARK 922        TOTAL FREE ENERGY PREDICTED BY IDOCK:   -5.70 KCAL/MOL
REMARK 923 INTER-LIGAND FREE ENERGY PREDICTED BY IDOCK:   -4.86 KCAL/MOL
REMARK 924 INTRA-LIGAND FREE ENERGY PREDICTED BY IDOCK:   -0.84 KCAL/MOL
REMARK 927      BINDING AFFINITY PREDICTED BY RF-SCORE:    0.00 PKD
ROOT
HETATM    1  C   UNL     1     -10.453   8.036  72.206  1.00  0.00    -0.279 C  
HETATM    2  H   UNL     1     -11.851   7.945  70.844  1.00  0.00     0.000 HD 
HETATM    3  O   UNL     1     -11.552   7.382  71.547  1.00  0.00    -0.259 OA 
ENDROOT
BRANCH   1   4
HETATM    4  C   UNL     1      -9.966   7.121  73.351  1.00  0.00    -0.278 C  
BRANCH   4   5
HETATM    5  N   UNL     1      -8.623   6.579  73.125  1.00  0.00    -0.121 NA 
HETATM    6  C   UNL     1      -7.038   4.765  72.886  1.00  0.00    -0.078 C  
HETATM    7  C   UNL     1      -9.307   4.526  71.881  1.00  0.00    -0.189 C  
HETATM    8  C   UNL     1      -8.530   5.106  73.076  1.00  0.00    -0.111 C  
HETATM    9  H   UNL     1      -7.977   6.946  73.823  1.00  0.00     0.000 HD 
HETATM   10  C   UNL     1      -9.010   4.456  74.385  1.00  0.00    -0.106 C  
ENDBRANCH   4   5
ENDBRANCH   1   4
BRANCH   1  11
HETATM   11  C   UNL     1      -9.367   8.374  71.177  1.00  0.00    -0.177 C  
BRANCH  11  12
HETATM   12  O   UNL     1      -9.599   9.702  70.698  1.00  0.00    -0.252 OA 
BRANCH  12  13
HETATM   13  C   UNL     1      -9.961   9.791  69.389  1.00  0.00    -0.205 A  
HETATM   14  N   UNL     1      -9.197   9.226  68.452  1.00  0.00    -0.132 NA 
HETATM   15  S   UNL     1      -9.931   9.653  67.015  1.00  0.00    -0.220 SA 
HETATM   16  N   UNL     1     -11.205  10.568  67.578  1.00  0.00    -0.375 NA 
HETATM   17  C   UNL     1     -11.123  10.538  68.914  1.00  0.00    -0.261 A  
BRANCH  17  18
HETATM   18  N   UNL     1     -11.980  11.212  69.740  1.00  0.00    -0.329 NA 
HETATM   19  C   UNL     1     -12.962  10.545  70.597  1.00  0.00    -0.285 C  
HETATM   20  C   UNL     1     -12.995  11.272  71.952  1.00  0.00    -0.365 C  
HETATM   21  O   UNL     1     -13.298  12.670  71.786  1.00  0.00    -0.418 OA 
HETATM   22  C   UNL     1     -12.328  13.305  70.932  1.00  0.00    -0.329 C  
HETATM   23  C   UNL     1     -12.264  12.638  69.545  1.00  0.00    -0.090 C  
ENDBRANCH  17  18
ENDBRANCH  12  13
ENDBRANCH  11  12
ENDBRANCH   1  11
TORSDOF 6
ENDMDL
MODEL      187
REMARK 921   NORMALIZED FREE ENERGY PREDICTED BY IDOCK:   -3.63 KCAL/MOL
REMARK 922        TOTAL FREE ENERGY PREDICTED BY IDOCK:   -5.69 KCAL/MOL
REMARK 923 INTER-LIGAND FREE ENERGY PREDICTED BY IDOCK:   -5.34 KCAL/MOL
REMARK 924 INTRA-LIGAND FREE ENERGY PREDICTED BY IDOCK:   -0.35 KCAL/MOL
REMARK 927      BINDING AFFINITY PREDICTED BY RF-SCORE:    0.00 PKD
ROOT
HETATM    1  C   UNL     1     -10.487   7.517  67.441  1.00  0.00    -0.297 C  
HETATM    2  H   UNL     1     -10.580   6.189  66.010  1.00  0.00     0.000 HD 
HETATM    3  O   UNL     1     -10.557   6.164  66.958  1.00  0.00    -0.239 OA 
ENDROOT
BRANCH   1   4
HETATM    4  C   UNL     1     -10.450   7.476  68.983  1.00  0.00    -0.208 C  
BRANCH   4   5
HETATM    5  N   UNL     1     -10.499   6.116  69.526  1.00  0.00    -0.226 NA 
HETATM    6  C   UNL     1     -10.641   4.517  71.339  1.00  0.00     0.081 C  
HETATM    7  C   UNL     1     -12.031   6.584  71.440  1.00  0.00    -0.371 C  
HETATM    8  C   UNL     1     -10.672   6.019  70.990  1.00  0.00    -0.265 C  
HETATM    9  H   UNL     1      -9.670   5.596  69.238  1.00  0.00     0.000 HD 
HETATM   10  C   UNL     1      -9.531   6.714  71.751  1.00  0.00    -0.151 C  
ENDBRANCH   4   5
ENDBRANCH   1   4
BRANCH   1  11
HETATM   11  C   UNL     1      -9.280   8.223  66.809  1.00  0.00    -0.169 C  
BRANCH  11  12
HETATM   12  O   UNL     1      -9.747   9.391  66.128  1.00  0.00    -0.224 OA 
BRANCH  12  13
HETATM   13  C   UNL     1      -9.290   9.542  64.855  1.00  0.00    -0.198 A  
HETATM   14  N   UNL     1      -8.350   8.718  64.389  1.00  0.00    -0.168 NA 
HETATM   15  S   UNL     1      -8.013   9.306  62.863  1.00  0.00    -0.149 SA 
HETATM   16  N   UNL     1      -9.044  10.614  62.801  1.00  0.00    -0.259 NA 
HETATM   17  C   UNL     1      -9.718  10.613  63.958  1.00  0.00    -0.315 A  
BRANCH  17  18
HETATM   18  N   UNL     1     -10.636  11.566  64.300  1.00  0.00    -0.321 NA 
HETATM   19  C   UNL     1     -11.635  12.092  63.366  1.00  0.00    -0.403 C  
HETATM   20  C   UNL     1     -12.964  12.256  64.123  1.00  0.00    -0.169 C  
HETATM   21  O   UNL     1     -12.808  13.113  65.270  1.00  0.00    -0.617 OA 
HETATM   22  C   UNL     1     -11.814  12.585  66.169  1.00  0.00    -0.397 C  
HETATM   23  C   UNL     1     -10.448  12.419  65.478  1.00  0.00    -0.275 C  
ENDBRANCH  17  18
ENDBRANCH  12  13
ENDBRANCH  11  12
ENDBRANCH   1  11
TORSDOF 6
ENDMDL
MODEL      188
REMARK 921   NORMALIZED FREE ENERGY PREDICTED BY IDOCK:   -3.62 KCAL/MOL
REMARK 922        TOTAL FREE ENERGY PREDICTED BY IDOCK:   -5.68 KCAL/MOL
REMARK 923 INTER-LIGAND FREE ENERGY PREDICTED BY IDOCK:   -5.67 KCAL/MOL
REMARK 924 INTRA-LIGAND FREE ENERGY PREDICTED BY IDOCK:   -0.01 KCAL/MOL
REMARK 927      BINDING AFFINITY PREDICTED BY RF-SCORE:    0.00 PKD
ROOT
HETATM    1  C   UNL     1     -10.740  10.478  69.157  1.00  0.00    -0.231 C  
HETATM    2  H   UNL     1     -11.582  12.203  69.521  1.00  0.00     0.000 HD 
HETATM    3  O   UNL     1     -11.567  11.353  69.943  1.00  0.00    -0.293 OA 
ENDROOT
BRANCH   1   4
HETATM    4  C   UNL     1     -10.714   9.095  69.844  1.00  0.00    -0.231 C  
BRANCH   4   5
HETATM    5  N   UNL     1     -12.008   8.712  70.417  1.00  0.00    -0.472 NA 
HETATM    6  C   UNL     1     -13.437   7.304  71.773  1.00  0.00    -0.373 C  
HETATM    7  C   UNL     1     -11.154   7.862  72.604  1.00  0.00    -0.447 C  
HETATM    8  C   UNL     1     -11.979   7.559  71.341  1.00  0.00    -0.309 C  
HETATM    9  H   UNL     1     -12.683   8.545  69.672  1.00  0.00     0.000 HD 
HETATM   10  C   UNL     1     -11.451   6.287  70.656  1.00  0.00    -0.397 C  
ENDBRANCH   4   5
ENDBRANCH   1   4
BRANCH   1  11
HETATM   11  C   UNL     1     -11.258  10.444  67.714  1.00  0.00    -0.237 C  
BRANCH  11  12
HETATM   12  O   UNL     1     -10.176  10.068  66.856  1.00  0.00    -0.216 OA 
BRANCH  12  13
HETATM   13  C   UNL     1      -9.008  10.732  67.071  1.00  0.00    -0.141 A  
HETATM   14  N   UNL     1      -7.948  10.069  67.538  1.00  0.00    -0.106 NA 
HETATM   15  S   UNL     1      -6.789  11.252  67.751  1.00  0.00    -0.078 SA 
HETATM   16  N   UNL     1      -7.636  12.604  67.270  1.00  0.00    -0.146 NA 
HETATM   17  C   UNL     1      -8.844  12.172  66.887  1.00  0.00    -0.202 A  
BRANCH  17  18
HETATM   18  N   UNL     1      -9.844  13.000  66.461  1.00  0.00    -0.258 NA 
HETATM   19  C   UNL     1     -10.750  13.704  67.372  1.00  0.00    -0.267 C  
HETATM   20  C   UNL     1     -10.977  15.123  66.827  1.00  0.00    -0.321 C  
HETATM   21  O   UNL     1     -11.497  15.090  65.485  1.00  0.00    -0.336 OA 
HETATM   22  C   UNL     1     -10.600  14.384  64.607  1.00  0.00    -0.306 C  
HETATM   23  C   UNL     1     -10.349  12.941  65.084  1.00  0.00    -0.303 C  
ENDBRANCH  17  18
ENDBRANCH  12  13
ENDBRANCH  11  12
ENDBRANCH   1  11
TORSDOF 6
ENDMDL
MODEL      189
REMARK 921   NORMALIZED FREE ENERGY PREDICTED BY IDOCK:   -3.62 KCAL/MOL
REMARK 922        TOTAL FREE ENERGY PREDICTED BY IDOCK:   -5.67 KCAL/MOL
REMARK 923 INTER-LIGAND FREE ENERGY PREDICTED BY IDOCK:   -5.32 KCAL/MOL
REMARK 924 INTRA-LIGAND FREE ENERGY PREDICTED BY IDOCK:   -0.35 KCAL/MOL
REMARK 927      BINDING AFFINITY PREDICTED BY RF-SCORE:    0.00 PKD
ROOT
HETATM    1  C   UNL     1      -9.930   9.265  69.202  1.00  0.00    -0.179 C  
HETATM    2  H   UNL     1     -10.834  10.950  69.608  1.00  0.00     0.000 HD 
HETATM    3  O   UNL     1     -10.784  10.092  70.012  1.00  0.00    -0.268 OA 
ENDROOT
BRANCH   1   4
HETATM    4  C   UNL     1      -9.850   7.870  69.859  1.00  0.00    -0.182 C  
BRANCH   4   5
HETATM    5  N   UNL     1      -8.759   7.751  70.830  1.00  0.00    -0.135 NA 
HETATM    6  C   UNL     1      -7.854   7.187  73.004  1.00  0.00    -0.109 C  
HETATM    7  C   UNL     1      -9.581   5.701  71.992  1.00  0.00    -0.173 C  
HETATM    8  C   UNL     1      -9.128   7.164  72.134  1.00  0.00    -0.129 C  
HETATM    9  H   UNL     1      -8.316   8.660  70.969  1.00  0.00     0.000 HD 
HETATM   10  C   UNL     1     -10.213   7.987  72.849  1.00  0.00    -0.384 C  
ENDBRANCH   4   5
ENDBRANCH   1   4
BRANCH   1  11
HETATM   11  C   UNL     1     -10.456   9.244  67.761  1.00  0.00    -0.255 C  
BRANCH  11  12
HETATM   12  O   UNL     1      -9.773  10.257  67.018  1.00  0.00    -0.166 OA 
BRANCH  12  13
HETATM   13  C   UNL     1      -9.329   9.875  65.789  1.00  0.00    -0.204 A  
HETATM   14  N   UNL     1      -8.435   8.890  65.687  1.00  0.00    -0.147 NA 
HETATM   15  S   UNL     1      -8.095   8.816  64.054  1.00  0.00    -0.162 SA 
HETATM   16  N   UNL     1      -9.064  10.044  63.481  1.00  0.00    -0.257 NA 
HETATM   17  C   UNL     1      -9.720  10.529  64.543  1.00  0.00    -0.314 A  
BRANCH  17  18
HETATM   18  N   UNL     1     -10.589  11.582  64.480  1.00  0.00    -0.309 NA 
HETATM   19  C   UNL     1     -11.472  11.830  63.338  1.00  0.00    -0.327 C  
HETATM   20  C   UNL     1     -12.838  12.288  63.874  1.00  0.00    -0.298 C  
HETATM   21  O   UNL     1     -12.707  13.457  64.705  1.00  0.00    -0.641 OA 
HETATM   22  C   UNL     1     -11.826  13.197  65.815  1.00  0.00    -0.397 C  
HETATM   23  C   UNL     1     -10.427  12.757  65.344  1.00  0.00    -0.286 C  
ENDBRANCH  17  18
ENDBRANCH  12  13
ENDBRANCH  11  12
ENDBRANCH   1  11
TORSDOF 6
ENDMDL
MODEL      190
REMARK 921   NORMALIZED FREE ENERGY PREDICTED BY IDOCK:   -3.60 KCAL/MOL
REMARK 922        TOTAL FREE ENERGY PREDICTED BY IDOCK:   -5.65 KCAL/MOL
REMARK 923 INTER-LIGAND FREE ENERGY PREDICTED BY IDOCK:   -5.01 KCAL/MOL
REMARK 924 INTRA-LIGAND FREE ENERGY PREDICTED BY IDOCK:   -0.65 KCAL/MOL
REMARK 927      BINDING AFFINITY PREDICTED BY RF-SCORE:    0.00 PKD
ROOT
HETATM    1  C   UNL     1     -12.082  12.759  69.830  1.00  0.00    -0.259 C  
HETATM    2  H   UNL     1     -12.728  13.690  71.423  1.00  0.00     0.000 HD 
HETATM    3  O   UNL     1     -11.912  13.660  70.938  1.00  0.00    -0.297 OA 
ENDROOT
BRANCH   1   4
HETATM    4  C   UNL     1     -10.755  12.710  69.043  1.00  0.00    -0.094 C  
BRANCH   4   5
HETATM    5  N   UNL     1     -10.745  13.593  67.873  1.00  0.00    -0.243 NA 
HETATM    6  C   UNL     1     -10.313  14.086  65.542  1.00  0.00    -0.354 C  
HETATM    7  C   UNL     1     -11.248  11.856  66.151  1.00  0.00    -0.387 C  
HETATM    8  C   UNL     1     -10.294  12.973  66.610  1.00  0.00    -0.260 C  
HETATM    9  H   UNL     1     -10.191  14.426  68.070  1.00  0.00     0.000 HD 
HETATM   10  C   UNL     1      -8.858  12.432  66.716  1.00  0.00    -0.189 C  
ENDBRANCH   4   5
ENDBRANCH   1   4
BRANCH   1  11
HETATM   11  C   UNL     1     -12.546  11.392  70.350  1.00  0.00    -0.185 C  
BRANCH  11  12
HETATM   12  O   UNL     1     -11.389  10.582  70.581  1.00  0.00    -0.322 OA 
BRANCH  12  13
HETATM   13  C   UNL     1     -11.625   9.244  70.660  1.00  0.00    -0.252 A  
HETATM   14  N   UNL     1     -12.487   8.777  71.564  1.00  0.00    -0.316 NA 
HETATM   15  S   UNL     1     -12.400   7.118  71.392  1.00  0.00    -0.392 SA 
HETATM   16  N   UNL     1     -11.256   6.993  70.187  1.00  0.00    -0.284 NA 
HETATM   17  C   UNL     1     -10.932   8.247  69.848  1.00  0.00    -0.166 A  
BRANCH  17  18
HETATM   18  N   UNL     1      -9.986   8.556  68.911  1.00  0.00    -0.185 NA 
HETATM   19  C   UNL     1      -8.583   8.817  69.239  1.00  0.00    -0.130 C  
HETATM   20  C   UNL     1      -7.704   8.159  68.163  1.00  0.00    -0.110 C  
HETATM   21  O   UNL     1      -8.039   8.642  66.848  1.00  0.00    -0.098 OA 
HETATM   22  C   UNL     1      -9.424   8.388  66.549  1.00  0.00    -0.220 C  
HETATM   23  C   UNL     1     -10.363   9.044  67.579  1.00  0.00    -0.264 C  
ENDBRANCH  17  18
ENDBRANCH  12  13
ENDBRANCH  11  12
ENDBRANCH   1  11
TORSDOF 6
ENDMDL
MODEL      191
REMARK 921   NORMALIZED FREE ENERGY PREDICTED BY IDOCK:   -3.60 KCAL/MOL
REMARK 922        TOTAL FREE ENERGY PREDICTED BY IDOCK:   -5.65 KCAL/MOL
REMARK 923 INTER-LIGAND FREE ENERGY PREDICTED BY IDOCK:   -5.20 KCAL/MOL
REMARK 924 INTRA-LIGAND FREE ENERGY PREDICTED BY IDOCK:   -0.45 KCAL/MOL
REMARK 927      BINDING AFFINITY PREDICTED BY RF-SCORE:    0.00 PKD
ROOT
HETATM    1  C   UNL     1     -11.455  12.744  67.028  1.00  0.00    -0.341 C  
HETATM    2  H   UNL     1     -12.309  12.049  65.413  1.00  0.00     0.000 HD 
HETATM    3  O   UNL     1     -12.457  12.783  65.996  1.00  0.00    -0.540 OA 
ENDROOT
BRANCH   1   4
HETATM    4  C   UNL     1     -11.696  13.938  67.977  1.00  0.00    -0.352 C  
BRANCH   4   5
HETATM    5  N   UNL     1     -11.354  15.231  67.376  1.00  0.00    -0.318 NA 
HETATM    6  C   UNL     1     -10.252  17.387  67.372  1.00  0.00    -0.326 C  
HETATM    7  C   UNL     1      -9.039  15.412  68.292  1.00  0.00    -0.187 C  
HETATM    8  C   UNL     1     -10.424  16.071  68.158  1.00  0.00    -0.269 C  
HETATM    9  H   UNL     1     -12.205  15.754  67.168  1.00  0.00     0.000 HD 
HETATM   10  C   UNL     1     -10.986  16.410  69.548  1.00  0.00    -0.317 C  
ENDBRANCH   4   5
ENDBRANCH   1   4
BRANCH   1  11
HETATM   11  C   UNL     1     -11.493  11.379  67.726  1.00  0.00    -0.281 C  
BRANCH  11  12
HETATM   12  O   UNL     1     -10.470  11.357  68.726  1.00  0.00    -0.195 OA 
BRANCH  12  13
HETATM   13  C   UNL     1      -9.253  10.920  68.301  1.00  0.00    -0.161 A  
HETATM   14  N   UNL     1      -8.277  11.801  68.074  1.00  0.00    -0.143 NA 
HETATM   15  S   UNL     1      -7.021  10.874  67.482  1.00  0.00    -0.088 SA 
HETATM   16  N   UNL     1      -7.720   9.362  67.495  1.00  0.00    -0.091 NA 
HETATM   17  C   UNL     1      -8.949   9.523  68.002  1.00  0.00    -0.123 A  
BRANCH  17  18
HETATM   18  N   UNL     1      -9.852   8.505  68.136  1.00  0.00    -0.160 NA 
HETATM   19  C   UNL     1     -10.730   8.061  67.052  1.00  0.00    -0.193 C  
HETATM   20  C   UNL     1     -10.806   6.525  67.090  1.00  0.00    -0.401 C  
HETATM   21  O   UNL     1     -11.267   6.057  68.370  1.00  0.00    -0.287 OA 
HETATM   22  C   UNL     1     -10.398   6.514  69.424  1.00  0.00    -0.205 C  
HETATM   23  C   UNL     1     -10.298   8.050  69.458  1.00  0.00    -0.221 C  
ENDBRANCH  17  18
ENDBRANCH  12  13
ENDBRANCH  11  12
ENDBRANCH   1  11
TORSDOF 6
ENDMDL
MODEL      192
REMARK 921   NORMALIZED FREE ENERGY PREDICTED BY IDOCK:   -3.60 KCAL/MOL
REMARK 922        TOTAL FREE ENERGY PREDICTED BY IDOCK:   -5.64 KCAL/MOL
REMARK 923 INTER-LIGAND FREE ENERGY PREDICTED BY IDOCK:   -5.16 KCAL/MOL
REMARK 924 INTRA-LIGAND FREE ENERGY PREDICTED BY IDOCK:   -0.49 KCAL/MOL
REMARK 927      BINDING AFFINITY PREDICTED BY RF-SCORE:    0.00 PKD
ROOT
HETATM    1  C   UNL     1     -10.180  11.237  67.026  1.00  0.00    -0.215 C  
HETATM    2  H   UNL     1      -9.711  13.117  67.279  1.00  0.00     0.000 HD 
HETATM    3  O   UNL     1      -9.235  12.296  67.259  1.00  0.00    -0.174 OA 
ENDROOT
BRANCH   1   4
HETATM    4  C   UNL     1      -9.407   9.901  66.993  1.00  0.00    -0.147 C  
BRANCH   4   5
HETATM    5  N   UNL     1     -10.277   8.733  66.832  1.00  0.00    -0.275 NA 
HETATM    6  C   UNL     1     -10.738   6.357  66.894  1.00  0.00    -0.408 C  
HETATM    7  C   UNL     1      -9.325   7.361  68.687  1.00  0.00    -0.139 C  
HETATM    8  C   UNL     1      -9.673   7.433  67.190  1.00  0.00    -0.171 C  
HETATM    9  H   UNL     1     -10.642   8.698  65.880  1.00  0.00     0.000 HD 
HETATM   10  C   UNL     1      -8.429   7.125  66.341  1.00  0.00    -0.130 C  
ENDBRANCH   4   5
ENDBRANCH   1   4
BRANCH   1  11
HETATM   11  C   UNL     1     -11.281  11.290  68.094  1.00  0.00    -0.286 C  
BRANCH  11  12
HETATM   12  O   UNL     1     -10.742  11.911  69.265  1.00  0.00    -0.167 OA 
BRANCH  12  13
HETATM   13  C   UNL     1     -11.665  12.396  70.140  1.00  0.00    -0.185 A  
HETATM   14  N   UNL     1     -11.967  13.695  70.129  1.00  0.00    -0.335 NA 
HETATM   15  S   UNL     1     -13.036  13.876  71.399  1.00  0.00    -0.324 SA 
HETATM   16  N   UNL     1     -13.101  12.313  71.973  1.00  0.00    -0.412 NA 
HETATM   17  C   UNL     1     -12.318  11.586  71.166  1.00  0.00    -0.277 A  
BRANCH  17  18
HETATM   18  N   UNL     1     -12.084  10.251  71.341  1.00  0.00    -0.377 NA 
HETATM   19  C   UNL     1     -10.740   9.671  71.397  1.00  0.00    -0.176 C  
HETATM   20  C   UNL     1     -10.725   8.592  72.493  1.00  0.00    -0.232 C  
HETATM   21  O   UNL     1     -11.726   7.586  72.248  1.00  0.00    -0.292 OA 
HETATM   22  C   UNL     1     -13.038   8.177  72.184  1.00  0.00    -0.243 C  
HETATM   23  C   UNL     1     -13.128   9.253  71.085  1.00  0.00    -0.190 C  
ENDBRANCH  17  18
ENDBRANCH  12  13
ENDBRANCH  11  12
ENDBRANCH   1  11
TORSDOF 6
ENDMDL
MODEL      193
REMARK 921   NORMALIZED FREE ENERGY PREDICTED BY IDOCK:   -3.59 KCAL/MOL
REMARK 922        TOTAL FREE ENERGY PREDICTED BY IDOCK:   -5.63 KCAL/MOL
REMARK 923 INTER-LIGAND FREE ENERGY PREDICTED BY IDOCK:   -4.98 KCAL/MOL
REMARK 924 INTRA-LIGAND FREE ENERGY PREDICTED BY IDOCK:   -0.65 KCAL/MOL
REMARK 927      BINDING AFFINITY PREDICTED BY RF-SCORE:    0.00 PKD
ROOT
HETATM    1  C   UNL     1     -11.070  15.562  67.827  1.00  0.00    -0.315 C  
HETATM    2  H   UNL     1     -12.733  15.365  68.835  1.00  0.00     0.000 HD 
HETATM    3  O   UNL     1     -12.022  15.994  68.815  1.00  0.00    -0.340 OA 
ENDROOT
BRANCH   1   4
HETATM    4  C   UNL     1      -9.914  16.585  67.794  1.00  0.00    -0.253 C  
BRANCH   4   5
HETATM    5  N   UNL     1     -10.147  17.748  68.654  1.00  0.00    -0.369 NA 
HETATM    6  C   UNL     1     -10.110  20.120  69.137  1.00  0.00    -0.187 C  
HETATM    7  C   UNL     1     -10.772  19.362  66.856  1.00  0.00    -0.570 C  
HETATM    8  C   UNL     1      -9.846  19.060  68.047  1.00  0.00    -0.352 C  
HETATM    9  H   UNL     1      -9.634  17.642  69.529  1.00  0.00     0.000 HD 
HETATM   10  C   UNL     1      -8.374  19.170  67.615  1.00  0.00    -0.321 C  
ENDBRANCH   4   5
ENDBRANCH   1   4
BRANCH   1  11
HETATM   11  C   UNL     1     -10.622  14.129  68.141  1.00  0.00    -0.246 C  
BRANCH  11  12
HETATM   12  O   UNL     1      -9.534  13.797  67.272  1.00  0.00    -0.221 OA 
BRANCH  12  13
HETATM   13  C   UNL     1      -8.458  13.229  67.882  1.00  0.00    -0.177 A  
HETATM   14  N   UNL     1      -7.530  14.006  68.443  1.00  0.00    -0.110 NA 
HETATM   15  S   UNL     1      -6.365  12.932  68.971  1.00  0.00    -0.105 SA 
HETATM   16  N   UNL     1      -7.027  11.487  68.472  1.00  0.00    -0.076 NA 
HETATM   17  C   UNL     1      -8.204  11.790  67.910  1.00  0.00    -0.147 A  
BRANCH  17  18
HETATM   18  N   UNL     1      -9.032  10.863  67.340  1.00  0.00    -0.136 NA 
HETATM   19  C   UNL     1      -9.027  10.552  65.909  1.00  0.00    -0.166 C  
HETATM   20  C   UNL     1      -9.188   9.031  65.745  1.00  0.00    -0.232 C  
HETATM   21  O   UNL     1     -10.389   8.562  66.385  1.00  0.00    -0.246 OA 
HETATM   22  C   UNL     1     -10.381   8.888  67.788  1.00  0.00    -0.242 C  
HETATM   23  C   UNL     1     -10.247  10.405  68.023  1.00  0.00    -0.169 C  
ENDBRANCH  17  18
ENDBRANCH  12  13
ENDBRANCH  11  12
ENDBRANCH   1  11
TORSDOF 6
ENDMDL
MODEL      194
REMARK 921   NORMALIZED FREE ENERGY PREDICTED BY IDOCK:   -3.58 KCAL/MOL
REMARK 922        TOTAL FREE ENERGY PREDICTED BY IDOCK:   -5.63 KCAL/MOL
REMARK 923 INTER-LIGAND FREE ENERGY PREDICTED BY IDOCK:   -4.51 KCAL/MOL
REMARK 924 INTRA-LIGAND FREE ENERGY PREDICTED BY IDOCK:   -1.11 KCAL/MOL
REMARK 927      BINDING AFFINITY PREDICTED BY RF-SCORE:    0.00 PKD
ROOT
HETATM    1  C   UNL     1     -10.358   5.066  68.189  1.00  0.00    -0.021 C  
HETATM    2  H   UNL     1     -11.418   5.808  66.723  1.00  0.00     0.000 HD 
HETATM    3  O   UNL     1     -10.573   5.382  66.802  1.00  0.00    -0.270 OA 
ENDROOT
BRANCH   1   4
HETATM    4  C   UNL     1      -8.984   4.374  68.317  1.00  0.00    -0.119 C  
BRANCH   4   5
HETATM    5  N   UNL     1      -8.471   4.360  69.690  1.00  0.00    -0.068 NA 
HETATM    6  C   UNL     1      -7.627   3.249  71.669  1.00  0.00    -0.052 C  
HETATM    7  C   UNL     1      -6.894   2.443  69.427  1.00  0.00    -0.033 C  
HETATM    8  C   UNL     1      -8.079   3.034  70.210  1.00  0.00    -0.041 C  
HETATM    9  H   UNL     1      -9.145   4.796  70.319  1.00  0.00     0.000 HD 
HETATM   10  C   UNL     1      -9.258   2.046  70.212  1.00  0.00    -0.174 C  
ENDBRANCH   4   5
ENDBRANCH   1   4
BRANCH   1  11
HETATM   11  C   UNL     1     -10.493   6.340  69.031  1.00  0.00    -0.237 C  
BRANCH  11  12
HETATM   12  O   UNL     1     -11.516   6.127  70.009  1.00  0.00    -0.406 OA 
BRANCH  12  13
HETATM   13  C   UNL     1     -11.090   6.118  71.302  1.00  0.00    -0.291 A  
HETATM   14  N   UNL     1     -10.662   4.979  71.848  1.00  0.00    -0.161 NA 
HETATM   15  S   UNL     1     -10.341   5.384  73.436  1.00  0.00    -0.237 SA 
HETATM   16  N   UNL     1     -10.763   6.996  73.435  1.00  0.00    -0.343 NA 
HETATM   17  C   UNL     1     -11.131   7.285  72.180  1.00  0.00    -0.246 A  
BRANCH  17  18
HETATM   18  N   UNL     1     -11.586   8.513  71.789  1.00  0.00    -0.290 NA 
HETATM   19  C   UNL     1     -10.728   9.532  71.180  1.00  0.00    -0.338 C  
HETATM   20  C   UNL     1     -11.514  10.212  70.047  1.00  0.00    -0.277 C  
HETATM   21  O   UNL     1     -12.746  10.778  70.533  1.00  0.00    -0.336 OA 
HETATM   22  C   UNL     1     -13.570   9.763  71.138  1.00  0.00    -0.168 C  
HETATM   23  C   UNL     1     -12.848   9.058  72.302  1.00  0.00    -0.406 C  
ENDBRANCH  17  18
ENDBRANCH  12  13
ENDBRANCH  11  12
ENDBRANCH   1  11
TORSDOF 6
ENDMDL
MODEL      195
REMARK 921   NORMALIZED FREE ENERGY PREDICTED BY IDOCK:   -3.58 KCAL/MOL
REMARK 922        TOTAL FREE ENERGY PREDICTED BY IDOCK:   -5.62 KCAL/MOL
REMARK 923 INTER-LIGAND FREE ENERGY PREDICTED BY IDOCK:   -4.52 KCAL/MOL
REMARK 924 INTRA-LIGAND FREE ENERGY PREDICTED BY IDOCK:   -1.11 KCAL/MOL
REMARK 927      BINDING AFFINITY PREDICTED BY RF-SCORE:    0.00 PKD
ROOT
HETATM    1  C   UNL     1      -9.796   8.342  72.436  1.00  0.00    -0.308 C  
HETATM    2  H   UNL     1     -11.626   8.983  72.680  1.00  0.00     0.000 HD 
HETATM    3  O   UNL     1     -11.181   8.149  72.772  1.00  0.00    -0.389 OA 
ENDROOT
BRANCH   1   4
HETATM    4  C   UNL     1      -9.071   6.987  72.586  1.00  0.00    -0.134 C  
BRANCH   4   5
HETATM    5  N   UNL     1      -9.723   5.899  71.851  1.00  0.00    -0.151 NA 
HETATM    6  C   UNL     1      -9.725   3.774  70.692  1.00  0.00    -0.235 C  
HETATM    7  C   UNL     1      -8.338   4.026  72.748  1.00  0.00    -0.096 C  
HETATM    8  C   UNL     1      -8.853   4.759  71.497  1.00  0.00    -0.129 C  
HETATM    9  H   UNL     1     -10.175   6.266  71.013  1.00  0.00     0.000 HD 
HETATM   10  C   UNL     1      -7.672   5.190  70.612  1.00  0.00    -0.079 C  
ENDBRANCH   4   5
ENDBRANCH   1   4
BRANCH   1  11
HETATM   11  C   UNL     1      -9.691   8.949  71.031  1.00  0.00    -0.252 C  
BRANCH  11  12
HETATM   12  O   UNL     1     -10.896   8.650  70.320  1.00  0.00    -0.230 OA 
BRANCH  12  13
HETATM   13  C   UNL     1     -10.726   7.982  69.146  1.00  0.00    -0.106 A  
HETATM   14  N   UNL     1     -10.779   6.649  69.132  1.00  0.00    -0.241 NA 
HETATM   15  S   UNL     1     -10.425   6.244  67.551  1.00  0.00    -0.276 SA 
HETATM   16  N   UNL     1     -10.186   7.756  66.891  1.00  0.00    -0.287 NA 
HETATM   17  C   UNL     1     -10.416   8.633  67.876  1.00  0.00    -0.209 A  
BRANCH  17  18
HETATM   18  N   UNL     1     -10.281   9.986  67.732  1.00  0.00    -0.180 NA 
HETATM   19  C   UNL     1      -8.986  10.671  67.738  1.00  0.00    -0.140 C  
HETATM   20  C   UNL     1      -9.014  11.768  66.661  1.00  0.00    -0.195 C  
HETATM   21  O   UNL     1     -10.101  12.687  66.880  1.00  0.00    -0.225 OA 
HETATM   22  C   UNL     1     -11.363  11.993  66.883  1.00  0.00    -0.341 C  
HETATM   23  C   UNL     1     -11.411  10.894  67.960  1.00  0.00    -0.312 C  
ENDBRANCH  17  18
ENDBRANCH  12  13
ENDBRANCH  11  12
ENDBRANCH   1  11
TORSDOF 6
ENDMDL
MODEL      196
REMARK 921   NORMALIZED FREE ENERGY PREDICTED BY IDOCK:   -3.58 KCAL/MOL
REMARK 922        TOTAL FREE ENERGY PREDICTED BY IDOCK:   -5.61 KCAL/MOL
REMARK 923 INTER-LIGAND FREE ENERGY PREDICTED BY IDOCK:   -5.19 KCAL/MOL
REMARK 924 INTRA-LIGAND FREE ENERGY PREDICTED BY IDOCK:   -0.42 KCAL/MOL
REMARK 927      BINDING AFFINITY PREDICTED BY RF-SCORE:    0.00 PKD
ROOT
HETATM    1  C   UNL     1      -8.347  16.222  65.837  1.00  0.00     0.171 C  
HETATM    2  H   UNL     1      -9.469  17.546  64.937  1.00  0.00     0.000 HD 
HETATM    3  O   UNL     1      -8.878  17.550  65.680  1.00  0.00    -0.416 OA 
ENDROOT
BRANCH   1   4
HETATM    4  C   UNL     1      -7.387  16.229  67.046  1.00  0.00    -0.229 C  
BRANCH   4   5
HETATM    5  N   UNL     1      -6.610  17.467  67.160  1.00  0.00    -0.151 NA 
HETATM    6  C   UNL     1      -5.904  19.475  68.313  1.00  0.00    -0.237 C  
HETATM    7  C   UNL     1      -6.217  17.377  69.624  1.00  0.00    -0.233 C  
HETATM    8  C   UNL     1      -6.756  18.195  68.437  1.00  0.00    -0.219 C  
HETATM    9  H   UNL     1      -6.825  18.086  66.379  1.00  0.00     0.000 HD 
HETATM   10  C   UNL     1      -8.214  18.610  68.699  1.00  0.00    -0.348 C  
ENDBRANCH   4   5
ENDBRANCH   1   4
BRANCH   1  11
HETATM   11  C   UNL     1      -9.502  15.221  65.967  1.00  0.00    -0.337 C  
BRANCH  11  12
HETATM   12  O   UNL     1      -9.187  14.306  67.021  1.00  0.00    -0.218 OA 
BRANCH  12  13
HETATM   13  C   UNL     1      -9.821  13.104  66.954  1.00  0.00    -0.249 A  
HETATM   14  N   UNL     1      -9.371  12.166  66.118  1.00  0.00    -0.222 NA 
HETATM   15  S   UNL     1     -10.473  10.920  66.273  1.00  0.00    -0.220 SA 
HETATM   16  N   UNL     1     -11.528  11.577  67.382  1.00  0.00    -0.481 NA 
HETATM   17  C   UNL     1     -11.033  12.779  67.702  1.00  0.00    -0.244 A  
BRANCH  17  18
HETATM   18  N   UNL     1     -11.647  13.645  68.563  1.00  0.00    -0.312 NA 
HETATM   19  C   UNL     1     -12.208  13.236  69.853  1.00  0.00    -0.246 C  
HETATM   20  C   UNL     1     -11.883  14.324  70.889  1.00  0.00    -0.255 C  
HETATM   21  O   UNL     1     -12.389  15.607  70.474  1.00  0.00    -0.397 OA 
HETATM   22  C   UNL     1     -11.835  15.987  69.200  1.00  0.00    -0.261 C  
HETATM   23  C   UNL     1     -12.148  14.947  68.107  1.00  0.00    -0.085 C  
ENDBRANCH  17  18
ENDBRANCH  12  13
ENDBRANCH  11  12
ENDBRANCH   1  11
TORSDOF 6
ENDMDL
MODEL      197
REMARK 921   NORMALIZED FREE ENERGY PREDICTED BY IDOCK:   -3.57 KCAL/MOL
REMARK 922        TOTAL FREE ENERGY PREDICTED BY IDOCK:   -5.60 KCAL/MOL
REMARK 923 INTER-LIGAND FREE ENERGY PREDICTED BY IDOCK:   -5.67 KCAL/MOL
REMARK 924 INTRA-LIGAND FREE ENERGY PREDICTED BY IDOCK:    0.06 KCAL/MOL
REMARK 927      BINDING AFFINITY PREDICTED BY RF-SCORE:    0.00 PKD
ROOT
HETATM    1  C   UNL     1     -10.829  11.727  66.199  1.00  0.00    -0.291 C  
HETATM    2  H   UNL     1     -11.660  13.489  66.042  1.00  0.00     0.000 HD 
HETATM    3  O   UNL     1     -11.265  12.870  65.442  1.00  0.00    -0.277 OA 
ENDROOT
BRANCH   1   4
HETATM    4  C   UNL     1     -10.186  10.719  65.223  1.00  0.00    -0.285 C  
BRANCH   4   5
HETATM    5  N   UNL     1     -10.046   9.375  65.789  1.00  0.00    -0.353 NA 
HETATM    6  C   UNL     1      -8.801   7.358  66.283  1.00  0.00    -0.182 C  
HETATM    7  C   UNL     1      -7.656   9.563  66.485  1.00  0.00    -0.094 C  
HETATM    8  C   UNL     1      -8.701   8.773  65.678  1.00  0.00    -0.184 C  
HETATM    9  H   UNL     1     -10.742   8.751  65.382  1.00  0.00     0.000 HD 
HETATM   10  C   UNL     1      -8.250   8.640  64.214  1.00  0.00    -0.160 C  
ENDBRANCH   4   5
ENDBRANCH   1   4
BRANCH   1  11
HETATM   11  C   UNL     1      -9.892  12.186  67.324  1.00  0.00    -0.196 C  
BRANCH  11  12
HETATM   12  O   UNL     1     -10.693  12.644  68.418  1.00  0.00    -0.227 OA 
BRANCH  12  13
HETATM   13  C   UNL     1     -11.114  11.673  69.275  1.00  0.00    -0.233 A  
HETATM   14  N   UNL     1     -10.845  10.394  69.007  1.00  0.00    -0.220 NA 
HETATM   15  S   UNL     1     -11.612   9.553  70.229  1.00  0.00    -0.110 SA 
HETATM   16  N   UNL     1     -12.299  10.807  71.084  1.00  0.00    -0.382 NA 
HETATM   17  C   UNL     1     -11.918  11.932  70.466  1.00  0.00    -0.267 A  
BRANCH  17  18
HETATM   18  N   UNL     1     -12.318  13.181  70.854  1.00  0.00    -0.360 NA 
HETATM   19  C   UNL     1     -11.720  14.414  70.337  1.00  0.00    -0.280 C  
HETATM   20  C   UNL     1     -12.845  15.436  70.105  1.00  0.00    -0.158 C  
HETATM   21  O   UNL     1     -13.590  15.675  71.314  1.00  0.00    -0.546 OA 
HETATM   22  C   UNL     1     -14.160  14.450  71.813  1.00  0.00    -0.475 C  
HETATM   23  C   UNL     1     -13.079  13.388  72.091  1.00  0.00    -0.388 C  
ENDBRANCH  17  18
ENDBRANCH  12  13
ENDBRANCH  11  12
ENDBRANCH   1  11
TORSDOF 6
ENDMDL
MODEL      198
REMARK 921   NORMALIZED FREE ENERGY PREDICTED BY IDOCK:   -3.56 KCAL/MOL
REMARK 922        TOTAL FREE ENERGY PREDICTED BY IDOCK:   -5.60 KCAL/MOL
REMARK 923 INTER-LIGAND FREE ENERGY PREDICTED BY IDOCK:   -4.97 KCAL/MOL
REMARK 924 INTRA-LIGAND FREE ENERGY PREDICTED BY IDOCK:   -0.63 KCAL/MOL
REMARK 927      BINDING AFFINITY PREDICTED BY RF-SCORE:    0.00 PKD
ROOT
HETATM    1  C   UNL     1     -10.862  11.146  67.989  1.00  0.00    -0.225 C  
HETATM    2  H   UNL     1     -12.486  10.105  68.305  1.00  0.00     0.000 HD 
HETATM    3  O   UNL     1     -12.255  11.025  68.328  1.00  0.00    -0.582 OA 
ENDROOT
BRANCH   1   4
HETATM    4  C   UNL     1     -10.487  12.643  68.026  1.00  0.00    -0.224 C  
BRANCH   4   5
HETATM    5  N   UNL     1     -10.169  13.192  66.705  1.00  0.00    -0.254 NA 
HETATM    6  C   UNL     1     -10.561  14.673  64.830  1.00  0.00    -0.446 C  
HETATM    7  C   UNL     1     -10.900  15.538  67.144  1.00  0.00    -0.316 C  
HETATM    8  C   UNL     1     -11.038  14.295  66.247  1.00  0.00    -0.323 C  
HETATM    9  H   UNL     1     -10.159  12.445  66.010  1.00  0.00     0.000 HD 
HETATM   10  C   UNL     1     -12.513  13.867  66.160  1.00  0.00    -0.478 C  
ENDBRANCH   4   5
ENDBRANCH   1   4
BRANCH   1  11
HETATM   11  C   UNL     1     -10.028  10.273  68.935  1.00  0.00    -0.201 C  
BRANCH  11  12
HETATM   12  O   UNL     1     -10.651   8.988  69.028  1.00  0.00    -0.223 OA 
BRANCH  12  13
HETATM   13  C   UNL     1     -10.822   8.517  70.293  1.00  0.00    -0.238 A  
HETATM   14  N   UNL     1     -12.016   8.620  70.880  1.00  0.00    -0.242 NA 
HETATM   15  S   UNL     1     -11.763   8.029  72.422  1.00  0.00    -0.383 SA 
HETATM   16  N   UNL     1     -10.140   7.661  72.350  1.00  0.00    -0.196 NA 
HETATM   17  C   UNL     1      -9.746   7.950  71.103  1.00  0.00    -0.158 A  
BRANCH  17  18
HETATM   18  N   UNL     1      -8.458   7.818  70.666  1.00  0.00    -0.124 NA 
HETATM   19  C   UNL     1      -7.951   6.612  70.008  1.00  0.00    -0.116 C  
HETATM   20  C   UNL     1      -7.028   7.042  68.856  1.00  0.00    -0.079 C  
HETATM   21  O   UNL     1      -5.955   7.876  69.330  1.00  0.00    -0.032 OA 
HETATM   22  C   UNL     1      -6.473   9.051  69.984  1.00  0.00    -0.042 C  
HETATM   23  C   UNL     1      -7.389   8.689  71.169  1.00  0.00    -0.088 C  
ENDBRANCH  17  18
ENDBRANCH  12  13
ENDBRANCH  11  12
ENDBRANCH   1  11
TORSDOF 6
ENDMDL
MODEL      199
REMARK 921   NORMALIZED FREE ENERGY PREDICTED BY IDOCK:   -3.55 KCAL/MOL
REMARK 922        TOTAL FREE ENERGY PREDICTED BY IDOCK:   -5.59 KCAL/MOL
REMARK 923 INTER-LIGAND FREE ENERGY PREDICTED BY IDOCK:   -4.93 KCAL/MOL
REMARK 924 INTRA-LIGAND FREE ENERGY PREDICTED BY IDOCK:   -0.66 KCAL/MOL
REMARK 927      BINDING AFFINITY PREDICTED BY RF-SCORE:    0.00 PKD
ROOT
HETATM    1  C   UNL     1     -11.295  11.533  67.880  1.00  0.00    -0.303 C  
HETATM    2  H   UNL     1     -10.544  11.536  69.684  1.00  0.00     0.000 HD 
HETATM    3  O   UNL     1     -10.496  12.109  68.929  1.00  0.00    -0.199 OA 
ENDROOT
BRANCH   1   4
HETATM    4  C   UNL     1     -11.218  12.464  66.651  1.00  0.00    -0.315 C  
BRANCH   4   5
HETATM    5  N   UNL     1     -12.044  12.010  65.529  1.00  0.00    -0.447 NA 
HETATM    6  C   UNL     1     -12.787  12.079  63.226  1.00  0.00    -0.330 C  
HETATM    7  C   UNL     1     -10.360  12.365  63.721  1.00  0.00    -0.454 C  
HETATM    8  C   UNL     1     -11.779  12.668  64.234  1.00  0.00    -0.381 C  
HETATM    9  H   UNL     1     -13.032  12.094  65.767  1.00  0.00     0.000 HD 
HETATM   10  C   UNL     1     -12.002  14.188  64.305  1.00  0.00    -0.460 C  
ENDBRANCH   4   5
ENDBRANCH   1   4
BRANCH   1  11
HETATM   11  C   UNL     1     -10.822  10.101  67.604  1.00  0.00    -0.290 C  
BRANCH  11  12
HETATM   12  O   UNL     1     -10.077   9.646  68.738  1.00  0.00    -0.167 OA 
BRANCH  12  13
HETATM   13  C   UNL     1     -10.266   8.340  69.071  1.00  0.00    -0.217 A  
HETATM   14  N   UNL     1     -11.200   8.016  69.966  1.00  0.00    -0.158 NA 
HETATM   15  S   UNL     1     -11.029   6.365  70.153  1.00  0.00    -0.368 SA 
HETATM   16  N   UNL     1      -9.761   6.066  69.114  1.00  0.00    -0.134 NA 
HETATM   17  C   UNL     1      -9.453   7.243  68.553  1.00  0.00    -0.140 A  
BRANCH  17  18
HETATM   18  N   UNL     1      -8.427   7.412  67.666  1.00  0.00    -0.120 NA 
HETATM   19  C   UNL     1      -8.355   6.721  66.377  1.00  0.00    -0.121 C  
HETATM   20  C   UNL     1      -7.835   7.714  65.324  1.00  0.00    -0.122 C  
HETATM   21  O   UNL     1      -6.558   8.257  65.705  1.00  0.00    -0.052 OA 
HETATM   22  C   UNL     1      -6.646   8.922  66.980  1.00  0.00    -0.061 C  
HETATM   23  C   UNL     1      -7.138   7.973  68.088  1.00  0.00    -0.089 C  
ENDBRANCH  17  18
ENDBRANCH  12  13
ENDBRANCH  11  12
ENDBRANCH   1  11
TORSDOF 6
ENDMDL
MODEL      200
REMARK 921   NORMALIZED FREE ENERGY PREDICTED BY IDOCK:   -3.55 KCAL/MOL
REMARK 922        TOTAL FREE ENERGY PREDICTED BY IDOCK:   -5.58 KCAL/MOL
REMARK 923 INTER-LIGAND FREE ENERGY PREDICTED BY IDOCK:   -4.50 KCAL/MOL
REMARK 924 INTRA-LIGAND FREE ENERGY PREDICTED BY IDOCK:   -1.08 KCAL/MOL
REMARK 927      BINDING AFFINITY PREDICTED BY RF-SCORE:    0.00 PKD
ROOT
HETATM    1  C   UNL     1     -10.124   9.961  67.132  1.00  0.00    -0.215 C  
HETATM    2  H   UNL     1     -11.854  10.849  66.937  1.00  0.00     0.000 HD 
HETATM    3  O   UNL     1     -10.959  11.130  67.084  1.00  0.00    -0.265 OA 
ENDROOT
BRANCH   1   4
HETATM    4  C   UNL     1      -8.669  10.419  67.372  1.00  0.00    -0.125 C  
BRANCH   4   5
HETATM    5  N   UNL     1      -7.772   9.321  67.744  1.00  0.00    -0.089 NA 
HETATM    6  C   UNL     1      -5.747   8.423  68.720  1.00  0.00    -0.040 C  
HETATM    7  C   UNL     1      -6.900  10.318  69.860  1.00  0.00    -0.134 C  
HETATM    8  C   UNL     1      -6.557   9.714  68.486  1.00  0.00    -0.052 C  
HETATM    9  H   UNL     1      -7.516   8.784  66.915  1.00  0.00     0.000 HD 
HETATM   10  C   UNL     1      -5.683  10.691  67.682  1.00  0.00    -0.043 C  
ENDBRANCH   4   5
ENDBRANCH   1   4
BRANCH   1  11
HETATM   11  C   UNL     1     -10.655   8.996  68.200  1.00  0.00    -0.171 C  
BRANCH  11  12
HETATM   12  O   UNL     1     -10.258   9.485  69.485  1.00  0.00    -0.191 OA 
BRANCH  12  13
HETATM   13  C   UNL     1     -11.281   9.813  70.322  1.00  0.00    -0.288 A  
HETATM   14  N   UNL     1     -11.803  11.040  70.278  1.00  0.00    -0.339 NA 
HETATM   15  S   UNL     1     -12.931  11.047  71.509  1.00  0.00    -0.395 SA 
HETATM   16  N   UNL     1     -12.744   9.503  72.108  1.00  0.00    -0.377 NA 
HETATM   17  C   UNL     1     -11.820   8.914  71.339  1.00  0.00    -0.317 A  
BRANCH  17  18
HETATM   18  N   UNL     1     -11.364   7.642  71.545  1.00  0.00    -0.250 NA 
HETATM   19  C   UNL     1     -11.832   6.485  70.777  1.00  0.00    -0.332 C  
HETATM   20  C   UNL     1     -10.623   5.584  70.476  1.00  0.00    -0.269 C  
HETATM   21  O   UNL     1      -9.957   5.181  71.688  1.00  0.00    -0.170 OA 
HETATM   22  C   UNL     1      -9.516   6.332  72.434  1.00  0.00    -0.144 C  
HETATM   23  C   UNL     1     -10.687   7.267  72.791  1.00  0.00    -0.299 C  
ENDBRANCH  17  18
ENDBRANCH  12  13
ENDBRANCH  11  12
ENDBRANCH   1  11
TORSDOF 6
ENDMDL
MODEL      201
REMARK 921   NORMALIZED FREE ENERGY PREDICTED BY IDOCK:   -3.55 KCAL/MOL
REMARK 922        TOTAL FREE ENERGY PREDICTED BY IDOCK:   -5.58 KCAL/MOL
REMARK 923 INTER-LIGAND FREE ENERGY PREDICTED BY IDOCK:   -4.81 KCAL/MOL
REMARK 924 INTRA-LIGAND FREE ENERGY PREDICTED BY IDOCK:   -0.77 KCAL/MOL
REMARK 927      BINDING AFFINITY PREDICTED BY RF-SCORE:    0.00 PKD
ROOT
HETATM    1  C   UNL     1     -10.771  10.741  67.678  1.00  0.00    -0.258 C  
HETATM    2  H   UNL     1     -12.710  10.871  67.466  1.00  0.00     0.000 HD 
HETATM    3  O   UNL     1     -12.081  11.125  68.130  1.00  0.00    -0.633 OA 
ENDROOT
BRANCH   1   4
HETATM    4  C   UNL     1      -9.749  11.154  68.758  1.00  0.00    -0.185 C  
BRANCH   4   5
HETATM    5  N   UNL     1      -8.935  12.310  68.371  1.00  0.00    -0.296 NA 
HETATM    6  C   UNL     1      -6.846  13.378  67.772  1.00  0.00    -0.163 C  
HETATM    7  C   UNL     1      -7.333  11.098  66.889  1.00  0.00    -0.138 C  
HETATM    8  C   UNL     1      -7.510  12.026  68.104  1.00  0.00    -0.112 C  
HETATM    9  H   UNL     1      -9.018  13.045  69.073  1.00  0.00     0.000 HD 
HETATM   10  C   UNL     1      -6.802  11.430  69.333  1.00  0.00    -0.112 C  
ENDBRANCH   4   5
ENDBRANCH   1   4
BRANCH   1  11
HETATM   11  C   UNL     1     -10.761   9.241  67.355  1.00  0.00    -0.193 C  
BRANCH  11  12
HETATM   12  O   UNL     1      -9.655   8.642  68.037  1.00  0.00    -0.145 OA 
BRANCH  12  13
HETATM   13  C   UNL     1      -9.675   7.282  68.090  1.00  0.00    -0.145 A  
HETATM   14  N   UNL     1      -9.263   6.573  67.038  1.00  0.00    -0.130 NA 
HETATM   15  S   UNL     1      -9.546   4.987  67.479  1.00  0.00    -0.154 SA 
HETATM   16  N   UNL     1     -10.207   5.201  68.993  1.00  0.00    -0.195 NA 
HETATM   17  C   UNL     1     -10.192   6.520  69.225  1.00  0.00    -0.187 A  
BRANCH  17  18
HETATM   18  N   UNL     1     -10.694   7.095  70.358  1.00  0.00    -0.228 NA 
HETATM   19  C   UNL     1      -9.867   7.821  71.326  1.00  0.00    -0.171 C  
HETATM   20  C   UNL     1     -10.649   9.060  71.794  1.00  0.00    -0.356 C  
HETATM   21  O   UNL     1     -11.922   8.693  72.356  1.00  0.00    -0.375 OA 
HETATM   22  C   UNL     1     -12.715   7.969  71.395  1.00  0.00    -0.280 C  
HETATM   23  C   UNL     1     -11.998   6.698  70.902  1.00  0.00    -0.355 C  
ENDBRANCH  17  18
ENDBRANCH  12  13
ENDBRANCH  11  12
ENDBRANCH   1  11
TORSDOF 6
ENDMDL
MODEL      202
REMARK 921   NORMALIZED FREE ENERGY PREDICTED BY IDOCK:   -3.55 KCAL/MOL
REMARK 922        TOTAL FREE ENERGY PREDICTED BY IDOCK:   -5.58 KCAL/MOL
REMARK 923 INTER-LIGAND FREE ENERGY PREDICTED BY IDOCK:   -4.96 KCAL/MOL
REMARK 924 INTRA-LIGAND FREE ENERGY PREDICTED BY IDOCK:   -0.61 KCAL/MOL
REMARK 927      BINDING AFFINITY PREDICTED BY RF-SCORE:    0.00 PKD
ROOT
HETATM    1  C   UNL     1     -11.121  12.311  66.293  1.00  0.00    -0.302 C  
HETATM    2  H   UNL     1     -12.993  12.284  65.732  1.00  0.00     0.000 HD 
HETATM    3  O   UNL     1     -12.403  12.932  66.097  1.00  0.00    -0.495 OA 
ENDROOT
BRANCH   1   4
HETATM    4  C   UNL     1     -10.162  13.364  66.888  1.00  0.00    -0.252 C  
BRANCH   4   5
HETATM    5  N   UNL     1     -10.351  14.702  66.321  1.00  0.00    -0.285 NA 
HETATM    6  C   UNL     1     -10.290  17.120  66.424  1.00  0.00    -0.307 C  
HETATM    7  C   UNL     1      -8.446  15.820  67.485  1.00  0.00    -0.183 C  
HETATM    8  C   UNL     1      -9.957  15.826  67.195  1.00  0.00    -0.242 C  
HETATM    9  H   UNL     1     -11.317  14.819  66.017  1.00  0.00     0.000 HD 
HETATM   10  C   UNL     1     -10.750  15.834  68.513  1.00  0.00    -0.274 C  
ENDBRANCH   4   5
ENDBRANCH   1   4
BRANCH   1  11
HETATM   11  C   UNL     1     -11.286  11.059  67.165  1.00  0.00    -0.136 C  
BRANCH  11  12
HETATM   12  O   UNL     1     -10.851  11.374  68.491  1.00  0.00    -0.187 OA 
BRANCH  12  13
HETATM   13  C   UNL     1     -11.267  10.512  69.458  1.00  0.00    -0.271 A  
HETATM   14  N   UNL     1     -12.178  10.908  70.349  1.00  0.00    -0.335 NA 
HETATM   15  S   UNL     1     -12.321   9.610  71.390  1.00  0.00    -0.404 SA 
HETATM   16  N   UNL     1     -11.215   8.556  70.724  1.00  0.00    -0.255 NA 
HETATM   17  C   UNL     1     -10.725   9.167  69.638  1.00  0.00    -0.225 A  
BRANCH  17  18
HETATM   18  N   UNL     1      -9.754   8.629  68.841  1.00  0.00    -0.166 NA 
HETATM   19  C   UNL     1      -9.947   7.415  68.044  1.00  0.00    -0.164 C  
HETATM   20  C   UNL     1      -9.271   7.619  66.679  1.00  0.00    -0.170 C  
HETATM   21  O   UNL     1      -7.874   7.936  66.830  1.00  0.00    -0.100 OA 
HETATM   22  C   UNL     1      -7.704   9.125  67.626  1.00  0.00    -0.089 C  
HETATM   23  C   UNL     1      -8.339   8.976  69.021  1.00  0.00    -0.124 C  
ENDBRANCH  17  18
ENDBRANCH  12  13
ENDBRANCH  11  12
ENDBRANCH   1  11
TORSDOF 6
ENDMDL
MODEL      203
REMARK 921   NORMALIZED FREE ENERGY PREDICTED BY IDOCK:   -3.54 KCAL/MOL
REMARK 922        TOTAL FREE ENERGY PREDICTED BY IDOCK:   -5.57 KCAL/MOL
REMARK 923 INTER-LIGAND FREE ENERGY PREDICTED BY IDOCK:   -4.79 KCAL/MOL
REMARK 924 INTRA-LIGAND FREE ENERGY PREDICTED BY IDOCK:   -0.77 KCAL/MOL
REMARK 927      BINDING AFFINITY PREDICTED BY RF-SCORE:    0.00 PKD
ROOT
HETATM    1  C   UNL     1     -10.883  11.754  66.008  1.00  0.00    -0.296 C  
HETATM    2  H   UNL     1     -12.513  12.597  66.682  1.00  0.00     0.000 HD 
HETATM    3  O   UNL     1     -12.266  12.132  65.892  1.00  0.00    -0.604 OA 
ENDROOT
BRANCH   1   4
HETATM    4  C   UNL     1     -10.482  10.998  64.724  1.00  0.00    -0.316 C  
BRANCH   4   5
HETATM    5  N   UNL     1      -9.930   9.666  64.986  1.00  0.00    -0.391 NA 
HETATM    6  C   UNL     1      -8.204   7.974  64.837  1.00  0.00    -0.137 C  
HETATM    7  C   UNL     1      -7.541  10.345  65.230  1.00  0.00    -0.118 C  
HETATM    8  C   UNL     1      -8.552   9.440  64.505  1.00  0.00    -0.198 C  
HETATM    9  H   UNL     1     -10.553   8.951  64.609  1.00  0.00     0.000 HD 
HETATM   10  C   UNL     1      -8.436   9.629  62.983  1.00  0.00    -0.184 C  
ENDBRANCH   4   5
ENDBRANCH   1   4
BRANCH   1  11
HETATM   11  C   UNL     1     -10.034  13.001  66.286  1.00  0.00    -0.283 C  
BRANCH  11  12
HETATM   12  O   UNL     1      -9.933  13.170  67.703  1.00  0.00    -0.211 OA 
BRANCH  12  13
HETATM   13  C   UNL     1      -9.956  14.461  68.136  1.00  0.00    -0.223 A  
HETATM   14  N   UNL     1     -11.082  15.169  68.041  1.00  0.00    -0.295 NA 
HETATM   15  S   UNL     1     -10.651  16.692  68.575  1.00  0.00    -0.357 SA 
HETATM   16  N   UNL     1      -9.035  16.457  68.907  1.00  0.00    -0.251 NA 
HETATM   17  C   UNL     1      -8.785  15.167  68.651  1.00  0.00    -0.174 A  
BRANCH  17  18
HETATM   18  N   UNL     1      -7.547  14.598  68.767  1.00  0.00    -0.131 NA 
HETATM   19  C   UNL     1      -6.774  14.602  70.011  1.00  0.00    -0.135 C  
HETATM   20  C   UNL     1      -6.097  13.230  70.163  1.00  0.00    -0.107 C  
HETATM   21  O   UNL     1      -5.268  12.927  69.025  1.00  0.00    -0.067 OA 
HETATM   22  C   UNL     1      -6.044  12.940  67.811  1.00  0.00    -0.143 C  
HETATM   23  C   UNL     1      -6.730  14.300  67.585  1.00  0.00    -0.169 C  
ENDBRANCH  17  18
ENDBRANCH  12  13
ENDBRANCH  11  12
ENDBRANCH   1  11
TORSDOF 6
ENDMDL
MODEL      204
REMARK 921   NORMALIZED FREE ENERGY PREDICTED BY IDOCK:   -3.52 KCAL/MOL
REMARK 922        TOTAL FREE ENERGY PREDICTED BY IDOCK:   -5.55 KCAL/MOL
REMARK 923 INTER-LIGAND FREE ENERGY PREDICTED BY IDOCK:   -4.90 KCAL/MOL
REMARK 924 INTRA-LIGAND FREE ENERGY PREDICTED BY IDOCK:   -0.64 KCAL/MOL
REMARK 927      BINDING AFFINITY PREDICTED BY RF-SCORE:    0.00 PKD
ROOT
HETATM    1  C   UNL     1     -10.057   6.641  68.646  1.00  0.00    -0.161 C  
HETATM    2  H   UNL     1     -11.574   6.104  69.755  1.00  0.00     0.000 HD 
HETATM    3  O   UNL     1     -11.443   6.309  68.837  1.00  0.00    -0.331 OA 
ENDROOT
BRANCH   1   4
HETATM    4  C   UNL     1      -9.844   6.975  67.154  1.00  0.00    -0.173 C  
BRANCH   4   5
HETATM    5  N   UNL     1     -10.040   5.822  66.270  1.00  0.00    -0.357 NA 
HETATM    6  C   UNL     1      -9.266   4.139  64.711  1.00  0.00    -0.154 C  
HETATM    7  C   UNL     1      -7.825   4.738  66.656  1.00  0.00    -0.099 C  
HETATM    8  C   UNL     1      -8.819   5.299  65.624  1.00  0.00    -0.152 C  
HETATM    9  H   UNL     1     -10.743   6.040  65.564  1.00  0.00     0.000 HD 
HETATM   10  C   UNL     1      -8.131   6.362  64.750  1.00  0.00    -0.114 C  
ENDBRANCH   4   5
ENDBRANCH   1   4
BRANCH   1  11
HETATM   11  C   UNL     1      -9.667   7.779  69.598  1.00  0.00    -0.172 C  
BRANCH  11  12
HETATM   12  O   UNL     1      -9.948   9.024  68.951  1.00  0.00    -0.177 OA 
BRANCH  12  13
HETATM   13  C   UNL     1     -10.835   9.827  69.599  1.00  0.00    -0.250 A  
HETATM   14  N   UNL     1     -11.459   9.378  70.689  1.00  0.00    -0.274 NA 
HETATM   15  S   UNL     1     -12.507  10.613  71.096  1.00  0.00    -0.436 SA 
HETATM   16  N   UNL     1     -12.183  11.706  69.882  1.00  0.00    -0.267 NA 
HETATM   17  C   UNL     1     -11.213  11.161  69.137  1.00  0.00    -0.264 A  
BRANCH  17  18
HETATM   18  N   UNL     1     -10.701  11.747  68.014  1.00  0.00    -0.200 NA 
HETATM   19  C   UNL     1     -11.125  11.394  66.657  1.00  0.00    -0.271 C  
HETATM   20  C   UNL     1     -11.225  12.686  65.830  1.00  0.00    -0.314 C  
HETATM   21  O   UNL     1      -9.975  13.401  65.824  1.00  0.00    -0.285 OA 
HETATM   22  C   UNL     1      -9.569  13.728  67.167  1.00  0.00    -0.244 C  
HETATM   23  C   UNL     1      -9.424  12.470  68.045  1.00  0.00    -0.209 C  
ENDBRANCH  17  18
ENDBRANCH  12  13
ENDBRANCH  11  12
ENDBRANCH   1  11
TORSDOF 6
ENDMDL
MODEL      205
REMARK 921   NORMALIZED FREE ENERGY PREDICTED BY IDOCK:   -3.50 KCAL/MOL
REMARK 922        TOTAL FREE ENERGY PREDICTED BY IDOCK:   -5.52 KCAL/MOL
REMARK 923 INTER-LIGAND FREE ENERGY PREDICTED BY IDOCK:   -4.88 KCAL/MOL
REMARK 924 INTRA-LIGAND FREE ENERGY PREDICTED BY IDOCK:   -0.63 KCAL/MOL
REMARK 927      BINDING AFFINITY PREDICTED BY RF-SCORE:    0.00 PKD
ROOT
HETATM    1  C   UNL     1      -7.069  15.805  67.849  1.00  0.00    -0.133 C  
HETATM    2  H   UNL     1      -5.484  14.665  67.927  1.00  0.00     0.000 HD 
HETATM    3  O   UNL     1      -5.847  15.280  67.302  1.00  0.00    -0.332 OA 
ENDROOT
BRANCH   1   4
HETATM    4  C   UNL     1      -7.660  16.806  66.833  1.00  0.00    -0.217 C  
BRANCH   4   5
HETATM    5  N   UNL     1      -8.940  17.378  67.263  1.00  0.00    -0.233 NA 
HETATM    6  C   UNL     1     -10.363  19.209  67.957  1.00  0.00    -0.483 C  
HETATM    7  C   UNL     1      -8.697  19.595  66.142  1.00  0.00    -0.361 C  
HETATM    8  C   UNL     1      -8.950  18.842  67.459  1.00  0.00    -0.274 C  
HETATM    9  H   UNL     1      -9.264  16.910  68.109  1.00  0.00     0.000 HD 
HETATM   10  C   UNL     1      -7.934  19.285  68.526  1.00  0.00    -0.396 C  
ENDBRANCH   4   5
ENDBRANCH   1   4
BRANCH   1  11
HETATM   11  C   UNL     1      -8.012  14.647  68.200  1.00  0.00    -0.136 C  
BRANCH  11  12
HETATM   12  O   UNL     1      -8.236  13.875  67.016  1.00  0.00    -0.154 OA 
BRANCH  12  13
HETATM   13  C   UNL     1      -8.427  12.543  67.219  1.00  0.00    -0.185 A  
HETATM   14  N   UNL     1      -7.487  11.676  66.838  1.00  0.00    -0.147 NA 
HETATM   15  S   UNL     1      -8.154  10.181  67.170  1.00  0.00    -0.121 SA 
HETATM   16  N   UNL     1      -9.638  10.633  67.778  1.00  0.00    -0.156 NA 
HETATM   17  C   UNL     1      -9.648  11.972  67.781  1.00  0.00    -0.193 A  
BRANCH  17  18
HETATM   18  N   UNL     1     -10.722  12.719  68.176  1.00  0.00    -0.219 NA 
HETATM   19  C   UNL     1     -11.374  12.565  69.479  1.00  0.00    -0.171 C  
HETATM   20  C   UNL     1     -11.727  13.964  70.011  1.00  0.00    -0.268 C  
HETATM   21  O   UNL     1     -12.563  14.680  69.083  1.00  0.00    -0.054 OA 
HETATM   22  C   UNL     1     -11.910  14.811  67.806  1.00  0.00    -0.294 C  
HETATM   23  C   UNL     1     -11.551  13.440  67.203  1.00  0.00    -0.358 C  
ENDBRANCH  17  18
ENDBRANCH  12  13
ENDBRANCH  11  12
ENDBRANCH   1  11
TORSDOF 6
ENDMDL
MODEL      206
REMARK 921   NORMALIZED FREE ENERGY PREDICTED BY IDOCK:   -3.49 KCAL/MOL
REMARK 922        TOTAL FREE ENERGY PREDICTED BY IDOCK:   -5.50 KCAL/MOL
REMARK 923 INTER-LIGAND FREE ENERGY PREDICTED BY IDOCK:   -4.90 KCAL/MOL
REMARK 924 INTRA-LIGAND FREE ENERGY PREDICTED BY IDOCK:   -0.60 KCAL/MOL
REMARK 927      BINDING AFFINITY PREDICTED BY RF-SCORE:    0.00 PKD
ROOT
HETATM    1  C   UNL     1     -11.119  11.715  66.797  1.00  0.00    -0.309 C  
HETATM    2  H   UNL     1     -13.067  11.798  66.935  1.00  0.00     0.000 HD 
HETATM    3  O   UNL     1     -12.354  12.421  67.011  1.00  0.00    -0.399 OA 
ENDROOT
BRANCH   1   4
HETATM    4  C   UNL     1      -9.960  12.727  66.921  1.00  0.00    -0.232 C  
BRANCH   4   5
HETATM    5  N   UNL     1     -10.371  14.007  67.504  1.00  0.00    -0.244 NA 
HETATM    6  C   UNL     1     -10.618  16.416  67.472  1.00  0.00    -0.309 C  
HETATM    7  C   UNL     1     -11.047  15.130  65.380  1.00  0.00    -0.371 C  
HETATM    8  C   UNL     1     -10.173  15.192  66.645  1.00  0.00    -0.266 C  
HETATM    9  H   UNL     1      -9.906  14.146  68.402  1.00  0.00     0.000 HD 
HETATM   10  C   UNL     1      -8.696  15.383  66.259  1.00  0.00    -0.240 C  
ENDBRANCH   4   5
ENDBRANCH   1   4
BRANCH   1  11
HETATM   11  C   UNL     1     -11.025  10.540  67.779  1.00  0.00    -0.313 C  
BRANCH  11  12
HETATM   12  O   UNL     1      -9.657  10.124  67.852  1.00  0.00    -0.147 OA 
BRANCH  12  13
HETATM   13  C   UNL     1      -9.454   8.782  67.758  1.00  0.00    -0.142 A  
HETATM   14  N   UNL     1      -9.623   8.169  66.585  1.00  0.00    -0.211 NA 
HETATM   15  S   UNL     1      -9.380   6.553  66.932  1.00  0.00    -0.151 SA 
HETATM   16  N   UNL     1      -9.081   6.630  68.569  1.00  0.00    -0.129 NA 
HETATM   17  C   UNL     1      -9.120   7.928  68.895  1.00  0.00    -0.141 A  
BRANCH  17  18
HETATM   18  N   UNL     1      -8.959   8.392  70.171  1.00  0.00    -0.140 NA 
HETATM   19  C   UNL     1     -10.055   8.946  70.970  1.00  0.00    -0.255 C  
HETATM   20  C   UNL     1      -9.900   8.446  72.415  1.00  0.00    -0.308 C  
HETATM   21  O   UNL     1      -8.615   8.805  72.957  1.00  0.00    -0.382 OA 
HETATM   22  C   UNL     1      -7.552   8.261  72.152  1.00  0.00    -0.121 C  
HETATM   23  C   UNL     1      -7.634   8.746  70.692  1.00  0.00    -0.090 C  
ENDBRANCH  17  18
ENDBRANCH  12  13
ENDBRANCH  11  12
ENDBRANCH   1  11
TORSDOF 6
ENDMDL
MODEL      207
REMARK 921   NORMALIZED FREE ENERGY PREDICTED BY IDOCK:   -3.49 KCAL/MOL
REMARK 922        TOTAL FREE ENERGY PREDICTED BY IDOCK:   -5.49 KCAL/MOL
REMARK 923 INTER-LIGAND FREE ENERGY PREDICTED BY IDOCK:   -5.05 KCAL/MOL
REMARK 924 INTRA-LIGAND FREE ENERGY PREDICTED BY IDOCK:   -0.45 KCAL/MOL
REMARK 927      BINDING AFFINITY PREDICTED BY RF-SCORE:    0.00 PKD
ROOT
HETATM    1  C   UNL     1     -10.215   9.110  67.849  1.00  0.00    -0.216 C  
HETATM    2  H   UNL     1     -10.819   8.506  66.092  1.00  0.00     0.000 HD 
HETATM    3  O   UNL     1     -10.818   8.145  66.970  1.00  0.00    -0.265 OA 
ENDROOT
BRANCH   1   4
HETATM    4  C   UNL     1     -10.212   8.523  69.277  1.00  0.00    -0.208 C  
BRANCH   4   5
HETATM    5  N   UNL     1      -9.088   7.616  69.527  1.00  0.00    -0.147 NA 
HETATM    6  C   UNL     1      -7.991   5.810  70.708  1.00  0.00    -0.113 C  
HETATM    7  C   UNL     1     -10.424   5.619  70.201  1.00  0.00    -0.366 C  
HETATM    8  C   UNL     1      -9.306   6.605  70.581  1.00  0.00    -0.162 C  
HETATM    9  H   UNL     1      -8.245   8.154  69.729  1.00  0.00     0.000 HD 
HETATM   10  C   UNL     1      -9.611   7.251  71.944  1.00  0.00    -0.164 C  
ENDBRANCH   4   5
ENDBRANCH   1   4
BRANCH   1  11
HETATM   11  C   UNL     1      -8.820   9.476  67.327  1.00  0.00    -0.128 C  
BRANCH  11  12
HETATM   12  O   UNL     1      -8.818  10.866  66.984  1.00  0.00    -0.138 OA 
BRANCH  12  13
HETATM   13  C   UNL     1      -9.527  11.188  65.868  1.00  0.00    -0.215 A  
HETATM   14  N   UNL     1      -9.487  10.384  64.805  1.00  0.00    -0.246 NA 
HETATM   15  S   UNL     1     -10.389  11.187  63.652  1.00  0.00    -0.383 SA 
HETATM   16  N   UNL     1     -10.813  12.561  64.494  1.00  0.00    -0.308 NA 
HETATM   17  C   UNL     1     -10.297  12.421  65.721  1.00  0.00    -0.263 A  
BRANCH  17  18
HETATM   18  N   UNL     1     -10.400  13.371  66.699  1.00  0.00    -0.266 NA 
HETATM   19  C   UNL     1      -9.650  14.629  66.681  1.00  0.00    -0.278 C  
HETATM   20  C   UNL     1     -10.581  15.754  67.162  1.00  0.00    -0.313 C  
HETATM   21  O   UNL     1     -11.108  15.470  68.472  1.00  0.00    -0.273 OA 
HETATM   22  C   UNL     1     -11.832  14.225  68.472  1.00  0.00    -0.347 C  
HETATM   23  C   UNL     1     -10.945  13.048  68.022  1.00  0.00    -0.250 C  
ENDBRANCH  17  18
ENDBRANCH  12  13
ENDBRANCH  11  12
ENDBRANCH   1  11
TORSDOF 6
ENDMDL
MODEL      208
REMARK 921   NORMALIZED FREE ENERGY PREDICTED BY IDOCK:   -3.47 KCAL/MOL
REMARK 922        TOTAL FREE ENERGY PREDICTED BY IDOCK:   -5.48 KCAL/MOL
REMARK 923 INTER-LIGAND FREE ENERGY PREDICTED BY IDOCK:   -5.12 KCAL/MOL
REMARK 924 INTRA-LIGAND FREE ENERGY PREDICTED BY IDOCK:   -0.36 KCAL/MOL
REMARK 927      BINDING AFFINITY PREDICTED BY RF-SCORE:    0.00 PKD
ROOT
HETATM    1  C   UNL     1      -9.290  19.199  67.679  1.00  0.00    -0.303 C  
HETATM    2  H   UNL     1     -11.172  19.229  67.151  1.00  0.00     0.000 HD 
HETATM    3  O   UNL     1     -10.623  19.737  67.736  1.00  0.00    -0.421 OA 
ENDROOT
BRANCH   1   4
HETATM    4  C   UNL     1      -8.398  20.024  68.631  1.00  0.00     0.017 C  
BRANCH   4   5
HETATM    5  N   UNL     1      -7.438  19.205  69.377  1.00  0.00    -0.170 NA 
HETATM    6  C   UNL     1      -5.219  18.341  69.817  1.00  0.00    -0.201 C  
HETATM    7  C   UNL     1      -5.476  20.734  69.167  1.00  0.00    -0.402 C  
HETATM    8  C   UNL     1      -6.031  19.317  68.941  1.00  0.00    -0.228 C  
HETATM    9  H   UNL     1      -7.730  18.228  69.365  1.00  0.00     0.000 HD 
HETATM   10  C   UNL     1      -5.850  18.906  67.470  1.00  0.00    -0.175 C  
ENDBRANCH   4   5
ENDBRANCH   1   4
BRANCH   1  11
HETATM   11  C   UNL     1      -9.329  17.701  68.007  1.00  0.00    -0.274 C  
BRANCH  11  12
HETATM   12  O   UNL     1      -8.680  16.991  66.947  1.00  0.00    -0.208 OA 
BRANCH  12  13
HETATM   13  C   UNL     1      -9.478  16.142  66.245  1.00  0.00    -0.316 A  
HETATM   14  N   UNL     1     -10.374  16.634  65.387  1.00  0.00    -0.626 NA 
HETATM   15  S   UNL     1     -11.191  15.287  64.833  1.00  0.00    -0.379 SA 
HETATM   16  N   UNL     1     -10.422  14.084  65.694  1.00  0.00    -0.305 NA 
HETATM   17  C   UNL     1      -9.471  14.691  66.415  1.00  0.00    -0.299 A  
BRANCH  17  18
HETATM   18  N   UNL     1      -8.648  14.034  67.286  1.00  0.00    -0.208 NA 
HETATM   19  C   UNL     1      -8.164  12.670  67.063  1.00  0.00    -0.108 C  
HETATM   20  C   UNL     1      -6.691  12.603  67.498  1.00  0.00    -0.156 C  
HETATM   21  O   UNL     1      -6.533  13.002  68.872  1.00  0.00    -0.082 OA 
HETATM   22  C   UNL     1      -7.025  14.341  69.074  1.00  0.00    -0.112 C  
HETATM   23  C   UNL     1      -8.509  14.471  68.680  1.00  0.00    -0.161 C  
ENDBRANCH  17  18
ENDBRANCH  12  13
ENDBRANCH  11  12
ENDBRANCH   1  11
TORSDOF 6
ENDMDL
MODEL      209
REMARK 921   NORMALIZED FREE ENERGY PREDICTED BY IDOCK:   -3.47 KCAL/MOL
REMARK 922        TOTAL FREE ENERGY PREDICTED BY IDOCK:   -5.47 KCAL/MOL
REMARK 923 INTER-LIGAND FREE ENERGY PREDICTED BY IDOCK:   -4.66 KCAL/MOL
REMARK 924 INTRA-LIGAND FREE ENERGY PREDICTED BY IDOCK:   -0.81 KCAL/MOL
REMARK 927      BINDING AFFINITY PREDICTED BY RF-SCORE:    0.00 PKD
ROOT
HETATM    1  C   UNL     1      -7.708   7.895  70.631  1.00  0.00    -0.090 C  
HETATM    2  H   UNL     1      -6.150   8.584  71.588  1.00  0.00     0.000 HD 
HETATM    3  O   UNL     1      -6.649   7.776  71.596  1.00  0.00    -0.041 OA 
ENDROOT
BRANCH   1   4
HETATM    4  C   UNL     1      -8.520   6.582  70.643  1.00  0.00    -0.134 C  
BRANCH   4   5
HETATM    5  N   UNL     1      -9.740   6.665  71.451  1.00  0.00    -0.172 NA 
HETATM    6  C   UNL     1     -11.262   5.862  73.155  1.00  0.00    -0.214 C  
HETATM    7  C   UNL     1      -8.806   5.688  73.550  1.00  0.00    -0.122 C  
HETATM    8  C   UNL     1      -9.901   5.610  72.472  1.00  0.00    -0.163 C  
HETATM    9  H   UNL     1     -10.559   6.691  70.844  1.00  0.00     0.000 HD 
HETATM   10  C   UNL     1      -9.930   4.205  71.847  1.00  0.00    -0.253 C  
ENDBRANCH   4   5
ENDBRANCH   1   4
BRANCH   1  11
HETATM   11  C   UNL     1      -8.544   9.144  70.939  1.00  0.00    -0.206 C  
BRANCH  11  12
HETATM   12  O   UNL     1      -9.589   9.238  69.966  1.00  0.00    -0.181 OA 
BRANCH  12  13
HETATM   13  C   UNL     1     -10.722   9.862  70.391  1.00  0.00    -0.318 A  
HETATM   14  N   UNL     1     -11.421   9.345  71.403  1.00  0.00    -0.352 NA 
HETATM   15  S   UNL     1     -12.756  10.340  71.527  1.00  0.00    -0.483 SA 
HETATM   16  N   UNL     1     -12.458  11.412  70.287  1.00  0.00    -0.262 NA 
HETATM   17  C   UNL     1     -11.281  11.054  69.758  1.00  0.00    -0.268 A  
BRANCH  17  18
HETATM   18  N   UNL     1     -10.713  11.678  68.683  1.00  0.00    -0.204 NA 
HETATM   19  C   UNL     1     -11.408  11.879  67.409  1.00  0.00    -0.324 C  
HETATM   20  C   UNL     1     -11.062  13.282  66.886  1.00  0.00    -0.289 C  
HETATM   21  O   UNL     1      -9.639  13.450  66.744  1.00  0.00    -0.247 OA 
HETATM   22  C   UNL     1      -8.972  13.236  68.003  1.00  0.00    -0.191 C  
HETATM   23  C   UNL     1      -9.258  11.834  68.572  1.00  0.00    -0.151 C  
ENDBRANCH  17  18
ENDBRANCH  12  13
ENDBRANCH  11  12
ENDBRANCH   1  11
TORSDOF 6
ENDMDL
MODEL      210
REMARK 921   NORMALIZED FREE ENERGY PREDICTED BY IDOCK:   -3.44 KCAL/MOL
REMARK 922        TOTAL FREE ENERGY PREDICTED BY IDOCK:   -5.44 KCAL/MOL
REMARK 923 INTER-LIGAND FREE ENERGY PREDICTED BY IDOCK:   -4.87 KCAL/MOL
REMARK 924 INTRA-LIGAND FREE ENERGY PREDICTED BY IDOCK:   -0.57 KCAL/MOL
REMARK 927      BINDING AFFINITY PREDICTED BY RF-SCORE:    0.00 PKD
ROOT
HETATM    1  C   UNL     1     -10.512   7.023  68.511  1.00  0.00    -0.200 C  
HETATM    2  H   UNL     1     -11.545   6.027  69.838  1.00  0.00     0.000 HD 
HETATM    3  O   UNL     1     -11.657   6.256  68.923  1.00  0.00    -0.227 OA 
ENDROOT
BRANCH   1   4
HETATM    4  C   UNL     1     -10.693   7.396  67.024  1.00  0.00    -0.319 C  
BRANCH   4   5
HETATM    5  N   UNL     1      -9.870   6.586  66.122  1.00  0.00    -0.399 NA 
HETATM    6  C   UNL     1      -7.881   6.164  64.807  1.00  0.00    -0.109 C  
HETATM    7  C   UNL     1      -7.643   7.232  67.048  1.00  0.00    -0.106 C  
HETATM    8  C   UNL     1      -8.540   7.143  65.801  1.00  0.00    -0.133 C  
HETATM    9  H   UNL     1     -10.383   6.390  65.262  1.00  0.00     0.000 HD 
HETATM   10  C   UNL     1      -8.642   8.520  65.123  1.00  0.00    -0.179 C  
ENDBRANCH   4   5
ENDBRANCH   1   4
BRANCH   1  11
HETATM   11  C   UNL     1     -10.348   8.235  69.438  1.00  0.00    -0.222 C  
BRANCH  11  12
HETATM   12  O   UNL     1     -10.569   9.422  68.671  1.00  0.00    -0.214 OA 
BRANCH  12  13
HETATM   13  C   UNL     1      -9.491  10.245  68.553  1.00  0.00    -0.158 A  
HETATM   14  N   UNL     1      -8.358   9.944  69.190  1.00  0.00    -0.133 NA 
HETATM   15  S   UNL     1      -7.353  11.238  68.867  1.00  0.00    -0.114 SA 
HETATM   16  N   UNL     1      -8.359  12.186  67.937  1.00  0.00    -0.151 NA 
HETATM   17  C   UNL     1      -9.505  11.504  67.813  1.00  0.00    -0.168 A  
BRANCH  17  18
HETATM   18  N   UNL     1     -10.599  11.978  67.145  1.00  0.00    -0.219 NA 
HETATM   19  C   UNL     1     -11.700  12.684  67.804  1.00  0.00    -0.356 C  
HETATM   20  C   UNL     1     -12.139  13.847  66.900  1.00  0.00    -0.430 C  
HETATM   21  O   UNL     1     -12.518  13.378  65.593  1.00  0.00    -0.456 OA 
HETATM   22  C   UNL     1     -11.427  12.677  64.966  1.00  0.00    -0.329 C  
HETATM   23  C   UNL     1     -10.955  11.479  65.812  1.00  0.00    -0.246 C  
ENDBRANCH  17  18
ENDBRANCH  12  13
ENDBRANCH  11  12
ENDBRANCH   1  11
TORSDOF 6
ENDMDL
MODEL      211
REMARK 921   NORMALIZED FREE ENERGY PREDICTED BY IDOCK:   -3.44 KCAL/MOL
REMARK 922        TOTAL FREE ENERGY PREDICTED BY IDOCK:   -5.44 KCAL/MOL
REMARK 923 INTER-LIGAND FREE ENERGY PREDICTED BY IDOCK:   -4.45 KCAL/MOL
REMARK 924 INTRA-LIGAND FREE ENERGY PREDICTED BY IDOCK:   -0.98 KCAL/MOL
REMARK 927      BINDING AFFINITY PREDICTED BY RF-SCORE:    0.00 PKD
ROOT
HETATM    1  C   UNL     1      -8.118  14.690  67.390  1.00  0.00    -0.196 C  
HETATM    2  H   UNL     1      -8.785  16.433  66.810  1.00  0.00     0.000 HD 
HETATM    3  O   UNL     1      -8.276  16.111  67.544  1.00  0.00    -0.143 OA 
ENDROOT
BRANCH   1   4
HETATM    4  C   UNL     1      -7.290  14.166  68.584  1.00  0.00    -0.126 C  
BRANCH   4   5
HETATM    5  N   UNL     1      -7.703  12.834  69.033  1.00  0.00    -0.326 NA 
HETATM    6  C   UNL     1      -7.269  10.546  69.695  1.00  0.00    -0.148 C  
HETATM    7  C   UNL     1      -5.713  12.339  70.457  1.00  0.00    -0.161 C  
HETATM    8  C   UNL     1      -6.606  11.879  69.291  1.00  0.00    -0.110 C  
HETATM    9  H   UNL     1      -8.366  12.432  68.370  1.00  0.00     0.000 HD 
HETATM   10  C   UNL     1      -5.752  11.632  68.036  1.00  0.00    -0.044 C  
ENDBRANCH   4   5
ENDBRANCH   1   4
BRANCH   1  11
HETATM   11  C   UNL     1      -9.498  14.033  67.257  1.00  0.00    -0.231 C  
BRANCH  11  12
HETATM   12  O   UNL     1      -9.352  12.829  66.497  1.00  0.00    -0.238 OA 
BRANCH  12  13
HETATM   13  C   UNL     1     -10.189  12.711  65.431  1.00  0.00    -0.284 A  
HETATM   14  N   UNL     1     -10.994  13.725  65.108  1.00  0.00    -0.320 NA 
HETATM   15  S   UNL     1     -11.903  13.135  63.837  1.00  0.00    -0.482 SA 
HETATM   16  N   UNL     1     -11.290  11.591  63.710  1.00  0.00    -0.386 NA 
HETATM   17  C   UNL     1     -10.324  11.495  64.632  1.00  0.00    -0.297 A  
BRANCH  17  18
HETATM   18  N   UNL     1      -9.607  10.354  64.862  1.00  0.00    -0.262 NA 
HETATM   19  C   UNL     1      -8.607   9.830  63.930  1.00  0.00    -0.199 C  
HETATM   20  C   UNL     1      -7.411   9.312  64.745  1.00  0.00    -0.103 C  
HETATM   21  O   UNL     1      -7.821   8.313  65.698  1.00  0.00    -0.094 OA 
HETATM   22  C   UNL     1      -8.813   8.844  66.598  1.00  0.00    -0.129 C  
HETATM   23  C   UNL     1     -10.054   9.359  65.844  1.00  0.00    -0.173 C  
ENDBRANCH  17  18
ENDBRANCH  12  13
ENDBRANCH  11  12
ENDBRANCH   1  11
TORSDOF 6
ENDMDL
MODEL      212
REMARK 921   NORMALIZED FREE ENERGY PREDICTED BY IDOCK:   -3.44 KCAL/MOL
REMARK 922        TOTAL FREE ENERGY PREDICTED BY IDOCK:   -5.44 KCAL/MOL
REMARK 923 INTER-LIGAND FREE ENERGY PREDICTED BY IDOCK:   -4.79 KCAL/MOL
REMARK 924 INTRA-LIGAND FREE ENERGY PREDICTED BY IDOCK:   -0.65 KCAL/MOL
REMARK 927      BINDING AFFINITY PREDICTED BY RF-SCORE:    0.00 PKD
ROOT
HETATM    1  C   UNL     1      -7.403  13.635  67.939  1.00  0.00    -0.148 C  
HETATM    2  H   UNL     1      -5.963  14.389  69.024  1.00  0.00     0.000 HD 
HETATM    3  O   UNL     1      -6.697  13.807  69.180  1.00  0.00    -0.107 OA 
ENDROOT
BRANCH   1   4
HETATM    4  C   UNL     1      -8.597  12.689  68.192  1.00  0.00    -0.188 C  
BRANCH   4   5
HETATM    5  N   UNL     1      -8.199  11.397  68.759  1.00  0.00    -0.266 NA 
HETATM    6  C   UNL     1      -7.964   8.988  68.690  1.00  0.00    -0.102 C  
HETATM    7  C   UNL     1      -7.505  10.305  66.624  1.00  0.00    -0.110 C  
HETATM    8  C   UNL     1      -8.393  10.227  67.878  1.00  0.00    -0.114 C  
HETATM    9  H   UNL     1      -8.674  11.246  69.649  1.00  0.00     0.000 HD 
HETATM   10  C   UNL     1      -9.866  10.051  67.473  1.00  0.00    -0.211 C  
ENDBRANCH   4   5
ENDBRANCH   1   4
BRANCH   1  11
HETATM   11  C   UNL     1      -7.807  15.008  67.385  1.00  0.00    -0.200 C  
BRANCH  11  12
HETATM   12  O   UNL     1      -8.686  15.632  68.327  1.00  0.00    -0.168 OA 
BRANCH  12  13
HETATM   13  C   UNL     1      -9.253  16.796  67.907  1.00  0.00    -0.225 A  
HETATM   14  N   UNL     1      -8.849  17.954  68.431  1.00  0.00    -0.285 NA 
HETATM   15  S   UNL     1      -9.851  19.091  67.730  1.00  0.00    -0.355 SA 
HETATM   16  N   UNL     1     -10.808  18.113  66.778  1.00  0.00    -0.172 NA 
HETATM   17  C   UNL     1     -10.350  16.866  66.945  1.00  0.00    -0.304 A  
BRANCH  17  18
HETATM   18  N   UNL     1     -10.910  15.769  66.352  1.00  0.00    -0.273 NA 
HETATM   19  C   UNL     1     -10.790  15.478  64.922  1.00  0.00    -0.427 C  
HETATM   20  C   UNL     1     -10.569  13.965  64.753  1.00  0.00    -0.426 C  
HETATM   21  O   UNL     1     -11.636  13.211  65.359  1.00  0.00    -0.315 OA 
HETATM   22  C   UNL     1     -11.745  13.520  66.762  1.00  0.00    -0.391 C  
HETATM   23  C   UNL     1     -11.994  15.021  67.000  1.00  0.00     0.001 C  
ENDBRANCH  17  18
ENDBRANCH  12  13
ENDBRANCH  11  12
ENDBRANCH   1  11
TORSDOF 6
ENDMDL
MODEL      213
REMARK 921   NORMALIZED FREE ENERGY PREDICTED BY IDOCK:   -3.44 KCAL/MOL
REMARK 922        TOTAL FREE ENERGY PREDICTED BY IDOCK:   -5.43 KCAL/MOL
REMARK 923 INTER-LIGAND FREE ENERGY PREDICTED BY IDOCK:   -5.58 KCAL/MOL
REMARK 924 INTRA-LIGAND FREE ENERGY PREDICTED BY IDOCK:    0.15 KCAL/MOL
REMARK 927      BINDING AFFINITY PREDICTED BY RF-SCORE:    0.00 PKD
ROOT
HETATM    1  C   UNL     1     -10.646  10.714  67.833  1.00  0.00    -0.228 C  
HETATM    2  H   UNL     1     -12.393  10.518  68.688  1.00  0.00     0.000 HD 
HETATM    3  O   UNL     1     -12.019  11.094  68.032  1.00  0.00    -0.625 OA 
ENDROOT
BRANCH   1   4
HETATM    4  C   UNL     1     -10.039  11.650  66.766  1.00  0.00    -0.213 C  
BRANCH   4   5
HETATM    5  N   UNL     1     -10.966  11.959  65.674  1.00  0.00    -0.297 NA 
HETATM    6  C   UNL     1     -12.469  13.423  64.465  1.00  0.00    -0.359 C  
HETATM    7  C   UNL     1     -10.362  14.367  65.407  1.00  0.00    -0.400 C  
HETATM    8  C   UNL     1     -11.484  13.343  65.650  1.00  0.00    -0.316 C  
HETATM    9  H   UNL     1     -11.741  11.297  65.677  1.00  0.00     0.000 HD 
HETATM   10  C   UNL     1     -12.250  13.692  66.937  1.00  0.00    -0.398 C  
ENDBRANCH   4   5
ENDBRANCH   1   4
BRANCH   1  11
HETATM   11  C   UNL     1      -9.907  10.743  69.177  1.00  0.00    -0.175 C  
BRANCH  11  12
HETATM   12  O   UNL     1      -9.782   9.399  69.651  1.00  0.00    -0.171 OA 
BRANCH  12  13
HETATM   13  C   UNL     1     -10.706   9.021  70.575  1.00  0.00    -0.239 A  
HETATM   14  N   UNL     1     -11.566   9.921  71.055  1.00  0.00    -0.359 NA 
HETATM   15  S   UNL     1     -12.433   9.082  72.210  1.00  0.00    -0.322 SA 
HETATM   16  N   UNL     1     -11.705   7.585  72.114  1.00  0.00    -0.292 NA 
HETATM   17  C   UNL     1     -10.785   7.679  71.146  1.00  0.00    -0.227 A  
BRANCH  17  18
HETATM   18  N   UNL     1      -9.948   6.656  70.796  1.00  0.00    -0.184 NA 
HETATM   19  C   UNL     1      -8.561   6.560  71.255  1.00  0.00    -0.127 C  
HETATM   20  C   UNL     1      -8.264   5.088  71.590  1.00  0.00    -0.115 C  
HETATM   21  O   UNL     1      -8.507   4.236  70.455  1.00  0.00    -0.074 OA 
HETATM   22  C   UNL     1      -9.872   4.354  70.012  1.00  0.00    -0.223 C  
HETATM   23  C   UNL     1     -10.228   5.804  69.635  1.00  0.00    -0.233 C  
ENDBRANCH  17  18
ENDBRANCH  12  13
ENDBRANCH  11  12
ENDBRANCH   1  11
TORSDOF 6
ENDMDL
MODEL      214
REMARK 921   NORMALIZED FREE ENERGY PREDICTED BY IDOCK:   -3.44 KCAL/MOL
REMARK 922        TOTAL FREE ENERGY PREDICTED BY IDOCK:   -5.43 KCAL/MOL
REMARK 923 INTER-LIGAND FREE ENERGY PREDICTED BY IDOCK:   -4.64 KCAL/MOL
REMARK 924 INTRA-LIGAND FREE ENERGY PREDICTED BY IDOCK:   -0.79 KCAL/MOL
REMARK 927      BINDING AFFINITY PREDICTED BY RF-SCORE:    0.00 PKD
ROOT
HETATM    1  C   UNL     1     -11.594  12.684  65.613  1.00  0.00    -0.377 C  
HETATM    2  H   UNL     1     -12.194  13.399  63.896  1.00  0.00     0.000 HD 
HETATM    3  O   UNL     1     -11.375  13.067  64.244  1.00  0.00    -0.341 OA 
ENDROOT
BRANCH   1   4
HETATM    4  C   UNL     1     -10.263  12.145  66.179  1.00  0.00    -0.227 C  
BRANCH   4   5
HETATM    5  N   UNL     1     -10.310  10.717  66.505  1.00  0.00    -0.240 NA 
HETATM    6  C   UNL     1      -9.475   8.719  67.589  1.00  0.00    -0.168 C  
HETATM    7  C   UNL     1      -9.409  10.882  68.827  1.00  0.00    -0.190 C  
HETATM    8  C   UNL     1      -9.267  10.240  67.436  1.00  0.00    -0.141 C  
HETATM    9  H   UNL     1     -10.292  10.163  65.648  1.00  0.00     0.000 HD 
HETATM   10  C   UNL     1      -7.852  10.479  66.884  1.00  0.00    -0.117 C  
ENDBRANCH   4   5
ENDBRANCH   1   4
BRANCH   1  11
HETATM   11  C   UNL     1     -12.163  13.876  66.393  1.00  0.00    -0.449 C  
BRANCH  11  12
HETATM   12  O   UNL     1     -11.068  14.658  66.881  1.00  0.00    -0.316 OA 
BRANCH  12  13
HETATM   13  C   UNL     1     -11.194  15.096  68.164  1.00  0.00    -0.320 A  
HETATM   14  N   UNL     1     -12.410  15.272  68.685  1.00  0.00     0.021 NA 
HETATM   15  S   UNL     1     -12.114  15.899  70.204  1.00  0.00    -0.156 SA 
HETATM   16  N   UNL     1     -10.449  15.965  70.192  1.00  0.00    -0.288 NA 
HETATM   17  C   UNL     1     -10.064  15.460  69.014  1.00  0.00    -0.234 A  
BRANCH  17  18
HETATM   18  N   UNL     1      -8.759  15.382  68.614  1.00  0.00    -0.180 NA 
HETATM   19  C   UNL     1      -7.963  14.155  68.697  1.00  0.00    -0.132 C  
HETATM   20  C   UNL     1      -7.106  14.048  67.426  1.00  0.00    -0.073 C  
HETATM   21  O   UNL     1      -6.271  15.210  67.259  1.00  0.00    -0.318 OA 
HETATM   22  C   UNL     1      -7.071  16.406  67.191  1.00  0.00    -0.200 C  
HETATM   23  C   UNL     1      -7.938  16.588  68.451  1.00  0.00    -0.194 C  
ENDBRANCH  17  18
ENDBRANCH  12  13
ENDBRANCH  11  12
ENDBRANCH   1  11
TORSDOF 6
ENDMDL
MODEL      215
REMARK 921   NORMALIZED FREE ENERGY PREDICTED BY IDOCK:   -3.43 KCAL/MOL
REMARK 922        TOTAL FREE ENERGY PREDICTED BY IDOCK:   -5.42 KCAL/MOL
REMARK 923 INTER-LIGAND FREE ENERGY PREDICTED BY IDOCK:   -4.81 KCAL/MOL
REMARK 924 INTRA-LIGAND FREE ENERGY PREDICTED BY IDOCK:   -0.61 KCAL/MOL
REMARK 927      BINDING AFFINITY PREDICTED BY RF-SCORE:    0.00 PKD
ROOT
HETATM    1  C   UNL     1     -10.916  11.323  68.449  1.00  0.00    -0.219 C  
HETATM    2  H   UNL     1     -11.914  10.159  67.237  1.00  0.00     0.000 HD 
HETATM    3  O   UNL     1     -11.977  11.065  67.512  1.00  0.00    -0.529 OA 
ENDROOT
BRANCH   1   4
HETATM    4  C   UNL     1     -11.019  12.797  68.897  1.00  0.00    -0.231 C  
BRANCH   4   5
HETATM    5  N   UNL     1      -9.745  13.517  68.810  1.00  0.00    -0.411 NA 
HETATM    6  C   UNL     1      -8.316  15.286  67.979  1.00  0.00    -0.146 C  
HETATM    7  C   UNL     1     -10.688  15.813  68.539  1.00  0.00    -0.274 C  
HETATM    8  C   UNL     1      -9.755  14.731  67.968  1.00  0.00    -0.213 C  
HETATM    9  H   UNL     1      -9.008  12.884  68.501  1.00  0.00     0.000 HD 
HETATM   10  C   UNL     1     -10.138  14.417  66.512  1.00  0.00    -0.281 C  
ENDBRANCH   4   5
ENDBRANCH   1   4
BRANCH   1  11
HETATM   11  C   UNL     1     -10.998  10.316  69.603  1.00  0.00    -0.270 C  
BRANCH  11  12
HETATM   12  O   UNL     1      -9.672  10.078  70.087  1.00  0.00    -0.233 OA 
BRANCH  12  13
HETATM   13  C   UNL     1      -9.038   9.007  69.537  1.00  0.00    -0.151 A  
HETATM   14  N   UNL     1      -8.123   9.198  68.585  1.00  0.00    -0.101 NA 
HETATM   15  S   UNL     1      -7.682   7.654  68.127  1.00  0.00    -0.122 SA 
HETATM   16  N   UNL     1      -8.665   6.745  69.120  1.00  0.00    -0.131 NA 
HETATM   17  C   UNL     1      -9.343   7.619  69.875  1.00  0.00    -0.150 A  
BRANCH  17  18
HETATM   18  N   UNL     1     -10.287   7.252  70.793  1.00  0.00    -0.202 NA 
HETATM   19  C   UNL     1     -10.012   7.140  72.228  1.00  0.00    -0.172 C  
HETATM   20  C   UNL     1     -11.218   7.707  72.996  1.00  0.00    -0.333 C  
HETATM   21  O   UNL     1     -12.434   7.025  72.635  1.00  0.00     0.132 OA 
HETATM   22  C   UNL     1     -12.680   7.137  71.220  1.00  0.00    -0.366 C  
HETATM   23  C   UNL     1     -11.517   6.562  70.389  1.00  0.00    -0.404 C  
ENDBRANCH  17  18
ENDBRANCH  12  13
ENDBRANCH  11  12
ENDBRANCH   1  11
TORSDOF 6
ENDMDL
MODEL      216
REMARK 921   NORMALIZED FREE ENERGY PREDICTED BY IDOCK:   -3.42 KCAL/MOL
REMARK 922        TOTAL FREE ENERGY PREDICTED BY IDOCK:   -5.40 KCAL/MOL
REMARK 923 INTER-LIGAND FREE ENERGY PREDICTED BY IDOCK:   -4.70 KCAL/MOL
REMARK 924 INTRA-LIGAND FREE ENERGY PREDICTED BY IDOCK:   -0.70 KCAL/MOL
REMARK 927      BINDING AFFINITY PREDICTED BY RF-SCORE:    0.00 PKD
ROOT
HETATM    1  C   UNL     1     -12.138  10.849  69.988  1.00  0.00    -0.355 C  
HETATM    2  H   UNL     1     -13.180   9.514  70.963  1.00  0.00     0.000 HD 
HETATM    3  O   UNL     1     -13.131  10.462  70.954  1.00  0.00    -0.384 OA 
ENDROOT
BRANCH   1   4
HETATM    4  C   UNL     1     -12.058  12.391  69.973  1.00  0.00    -0.263 C  
BRANCH   4   5
HETATM    5  N   UNL     1     -10.872  12.901  69.279  1.00  0.00    -0.440 NA 
HETATM    6  C   UNL     1      -9.760  14.305  67.650  1.00  0.00    -0.220 C  
HETATM    7  C   UNL     1     -11.671  15.242  68.948  1.00  0.00    -0.362 C  
HETATM    8  C   UNL     1     -11.123  13.966  68.286  1.00  0.00    -0.258 C  
HETATM    9  H   UNL     1     -10.366  12.130  68.843  1.00  0.00     0.000 HD 
HETATM   10  C   UNL     1     -12.072  13.499  67.170  1.00  0.00    -0.386 C  
ENDBRANCH   4   5
ENDBRANCH   1   4
BRANCH   1  11
HETATM   11  C   UNL     1     -10.807  10.162  70.318  1.00  0.00    -0.310 C  
BRANCH  11  12
HETATM   12  O   UNL     1     -10.577   9.136  69.348  1.00  0.00    -0.222 OA 
BRANCH  12  13
HETATM   13  C   UNL     1      -9.806   8.098  69.772  1.00  0.00    -0.187 A  
HETATM   14  N   UNL     1     -10.081   7.502  70.934  1.00  0.00    -0.192 NA 
HETATM   15  S   UNL     1      -8.857   6.380  71.116  1.00  0.00    -0.138 SA 
HETATM   16  N   UNL     1      -7.970   6.663  69.734  1.00  0.00    -0.118 NA 
HETATM   17  C   UNL     1      -8.623   7.619  69.060  1.00  0.00    -0.136 A  
BRANCH  17  18
HETATM   18  N   UNL     1      -8.180   8.152  67.883  1.00  0.00    -0.127 NA 
HETATM   19  C   UNL     1      -8.147   7.405  66.623  1.00  0.00    -0.123 C  
HETATM   20  C   UNL     1      -8.594   8.347  65.492  1.00  0.00    -0.176 C  
HETATM   21  O   UNL     1      -7.764   9.522  65.432  1.00  0.00    -0.104 OA 
HETATM   22  C   UNL     1      -7.800  10.235  66.683  1.00  0.00    -0.116 C  
HETATM   23  C   UNL     1      -7.338   9.354  67.859  1.00  0.00    -0.083 C  
ENDBRANCH  17  18
ENDBRANCH  12  13
ENDBRANCH  11  12
ENDBRANCH   1  11
TORSDOF 6
ENDMDL
MODEL      217
REMARK 921   NORMALIZED FREE ENERGY PREDICTED BY IDOCK:   -3.40 KCAL/MOL
REMARK 922        TOTAL FREE ENERGY PREDICTED BY IDOCK:   -5.38 KCAL/MOL
REMARK 923 INTER-LIGAND FREE ENERGY PREDICTED BY IDOCK:   -4.60 KCAL/MOL
REMARK 924 INTRA-LIGAND FREE ENERGY PREDICTED BY IDOCK:   -0.78 KCAL/MOL
REMARK 927      BINDING AFFINITY PREDICTED BY RF-SCORE:    0.00 PKD
ROOT
HETATM    1  C   UNL     1     -11.151  10.378  67.825  1.00  0.00    -0.299 C  
HETATM    2  H   UNL     1     -12.448  10.209  69.277  1.00  0.00     0.000 HD 
HETATM    3  O   UNL     1     -12.137  10.915  68.723  1.00  0.00    -0.496 OA 
ENDROOT
BRANCH   1   4
HETATM    4  C   UNL     1     -10.645  11.525  66.925  1.00  0.00    -0.247 C  
BRANCH   4   5
HETATM    5  N   UNL     1     -11.139  11.440  65.548  1.00  0.00    -0.194 NA 
HETATM    6  C   UNL     1     -12.001  12.399  63.499  1.00  0.00    -0.627 C  
HETATM    7  C   UNL     1     -10.198  13.602  64.729  1.00  0.00    -0.363 C  
HETATM    8  C   UNL     1     -11.454  12.730  64.902  1.00  0.00    -0.320 C  
HETATM    9  H   UNL     1     -11.950  10.822  65.506  1.00  0.00     0.000 HD 
HETATM   10  C   UNL     1     -12.537  13.508  65.669  1.00  0.00    -0.512 C  
ENDBRANCH   4   5
ENDBRANCH   1   4
BRANCH   1  11
HETATM   11  C   UNL     1     -10.044   9.689  68.634  1.00  0.00    -0.179 C  
BRANCH  11  12
HETATM   12  O   UNL     1      -8.974  10.622  68.817  1.00  0.00    -0.157 OA 
BRANCH  12  13
HETATM   13  C   UNL     1      -7.803  10.083  69.254  1.00  0.00    -0.125 A  
HETATM   14  N   UNL     1      -7.404  10.299  70.508  1.00  0.00    -0.233 NA 
HETATM   15  S   UNL     1      -5.907   9.564  70.592  1.00  0.00    -0.069 SA 
HETATM   16  N   UNL     1      -5.758   8.989  69.035  1.00  0.00    -0.039 NA 
HETATM   17  C   UNL     1      -6.893   9.317  68.406  1.00  0.00    -0.063 A  
BRANCH  17  18
HETATM   18  N   UNL     1      -7.132   9.048  67.087  1.00  0.00    -0.078 NA 
HETATM   19  C   UNL     1      -7.402   7.702  66.576  1.00  0.00    -0.087 C  
HETATM   20  C   UNL     1      -8.512   7.802  65.517  1.00  0.00    -0.133 C  
HETATM   21  O   UNL     1      -8.144   8.705  64.458  1.00  0.00    -0.145 OA 
HETATM   22  C   UNL     1      -7.870  10.019  64.981  1.00  0.00    -0.137 C  
HETATM   23  C   UNL     1      -6.746   9.994  66.033  1.00  0.00    -0.100 C  
ENDBRANCH  17  18
ENDBRANCH  12  13
ENDBRANCH  11  12
ENDBRANCH   1  11
TORSDOF 6
ENDMDL
MODEL      218
REMARK 921   NORMALIZED FREE ENERGY PREDICTED BY IDOCK:   -3.40 KCAL/MOL
REMARK 922        TOTAL FREE ENERGY PREDICTED BY IDOCK:   -5.38 KCAL/MOL
REMARK 923 INTER-LIGAND FREE ENERGY PREDICTED BY IDOCK:   -5.36 KCAL/MOL
REMARK 924 INTRA-LIGAND FREE ENERGY PREDICTED BY IDOCK:   -0.02 KCAL/MOL
REMARK 927      BINDING AFFINITY PREDICTED BY RF-SCORE:    0.00 PKD
ROOT
HETATM    1  C   UNL     1     -10.776  10.742  67.724  1.00  0.00    -0.251 C  
HETATM    2  H   UNL     1     -12.405  10.750  68.803  1.00  0.00     0.000 HD 
HETATM    3  O   UNL     1     -12.138  11.129  67.974  1.00  0.00    -0.635 OA 
ENDROOT
BRANCH   1   4
HETATM    4  C   UNL     1     -10.341  11.360  66.377  1.00  0.00    -0.242 C  
BRANCH   4   5
HETATM    5  N   UNL     1     -11.328  11.173  65.310  1.00  0.00     0.076 NA 
HETATM    6  C   UNL     1     -12.824  11.980  63.586  1.00  0.00    -0.472 C  
HETATM    7  C   UNL     1     -10.595  13.063  63.855  1.00  0.00    -0.292 C  
HETATM    8  C   UNL     1     -11.758  12.404  64.617  1.00  0.00    -0.365 C  
HETATM    9  H   UNL     1     -12.141  10.674  65.672  1.00  0.00     0.000 HD 
HETATM   10  C   UNL     1     -12.398  13.415  65.583  1.00  0.00    -0.521 C  
ENDBRANCH   4   5
ENDBRANCH   1   4
BRANCH   1  11
HETATM   11  C   UNL     1      -9.898  11.161  68.910  1.00  0.00    -0.162 C  
BRANCH  11  12
HETATM   12  O   UNL     1      -9.553  12.540  68.750  1.00  0.00    -0.070 OA 
BRANCH  12  13
HETATM   13  C   UNL     1      -8.311  12.772  68.244  1.00  0.00    -0.161 A  
HETATM   14  N   UNL     1      -7.384  11.813  68.303  1.00  0.00    -0.088 NA 
HETATM   15  S   UNL     1      -6.012  12.534  67.681  1.00  0.00    -0.148 SA 
HETATM   16  N   UNL     1      -6.588  14.064  67.356  1.00  0.00    -0.278 NA 
HETATM   17  C   UNL     1      -7.886  14.053  67.685  1.00  0.00    -0.176 A  
BRANCH  17  18
HETATM   18  N   UNL     1      -8.698  15.148  67.596  1.00  0.00    -0.165 NA 
HETATM   19  C   UNL     1      -8.482  16.235  66.638  1.00  0.00    -0.271 C  
HETATM   20  C   UNL     1      -9.848  16.669  66.083  1.00  0.00    -0.318 C  
HETATM   21  O   UNL     1     -10.740  17.066  67.141  1.00  0.00    -0.282 OA 
HETATM   22  C   UNL     1     -10.931  15.988  68.078  1.00  0.00    -0.341 C  
HETATM   23  C   UNL     1      -9.598  15.521  68.693  1.00  0.00    -0.203 C  
ENDBRANCH  17  18
ENDBRANCH  12  13
ENDBRANCH  11  12
ENDBRANCH   1  11
TORSDOF 6
ENDMDL
MODEL      219
REMARK 921   NORMALIZED FREE ENERGY PREDICTED BY IDOCK:   -3.37 KCAL/MOL
REMARK 922        TOTAL FREE ENERGY PREDICTED BY IDOCK:   -5.34 KCAL/MOL
REMARK 923 INTER-LIGAND FREE ENERGY PREDICTED BY IDOCK:   -4.59 KCAL/MOL
REMARK 924 INTRA-LIGAND FREE ENERGY PREDICTED BY IDOCK:   -0.75 KCAL/MOL
REMARK 927      BINDING AFFINITY PREDICTED BY RF-SCORE:    0.00 PKD
ROOT
HETATM    1  C   UNL     1     -10.801   5.886  69.321  1.00  0.00    -0.344 C  
HETATM    2  H   UNL     1     -12.168   6.744  68.219  1.00  0.00     0.000 HD 
HETATM    3  O   UNL     1     -11.286   6.423  68.078  1.00  0.00    -0.311 OA 
ENDROOT
BRANCH   1   4
HETATM    4  C   UNL     1      -9.366   5.364  69.092  1.00  0.00    -0.120 C  
BRANCH   4   5
HETATM    5  N   UNL     1      -8.431   5.763  70.148  1.00  0.00    -0.119 NA 
HETATM    6  C   UNL     1      -6.342   6.689  70.946  1.00  0.00    -0.047 C  
HETATM    7  C   UNL     1      -7.466   7.753  68.992  1.00  0.00    -0.095 C  
HETATM    8  C   UNL     1      -7.186   6.409  69.686  1.00  0.00    -0.078 C  
HETATM    9  H   UNL     1      -8.210   4.961  70.739  1.00  0.00     0.000 HD 
HETATM   10  C   UNL     1      -6.373   5.492  68.756  1.00  0.00    -0.038 C  
ENDBRANCH   4   5
ENDBRANCH   1   4
BRANCH   1  11
HETATM   11  C   UNL     1     -10.905   6.956  70.416  1.00  0.00    -0.261 C  
BRANCH  11  12
HETATM   12  O   UNL     1     -10.766   8.242  69.803  1.00  0.00    -0.239 OA 
BRANCH  12  13
HETATM   13  C   UNL     1     -11.459   9.248  70.403  1.00  0.00    -0.213 A  
HETATM   14  N   UNL     1     -12.248   8.977  71.443  1.00  0.00    -0.310 NA 
HETATM   15  S   UNL     1     -12.971  10.440  71.798  1.00  0.00    -0.455 SA 
HETATM   16  N   UNL     1     -12.298  11.410  70.622  1.00  0.00    -0.372 NA 
HETATM   17  C   UNL     1     -11.453  10.632  69.935  1.00  0.00    -0.317 A  
BRANCH  17  18
HETATM   18  N   UNL     1     -10.735  11.064  68.855  1.00  0.00    -0.199 NA 
HETATM   19  C   UNL     1      -9.281  10.921  68.746  1.00  0.00    -0.183 C  
HETATM   20  C   UNL     1      -8.942  10.526  67.299  1.00  0.00    -0.139 C  
HETATM   21  O   UNL     1      -9.451  11.492  66.361  1.00  0.00    -0.200 OA 
HETATM   22  C   UNL     1     -10.879  11.627  66.492  1.00  0.00    -0.284 C  
HETATM   23  C   UNL     1     -11.286  12.048  67.917  1.00  0.00    -0.264 C  
ENDBRANCH  17  18
ENDBRANCH  12  13
ENDBRANCH  11  12
ENDBRANCH   1  11
TORSDOF 6
ENDMDL
MODEL      220
REMARK 921   NORMALIZED FREE ENERGY PREDICTED BY IDOCK:   -3.37 KCAL/MOL
REMARK 922        TOTAL FREE ENERGY PREDICTED BY IDOCK:   -5.33 KCAL/MOL
REMARK 923 INTER-LIGAND FREE ENERGY PREDICTED BY IDOCK:   -4.46 KCAL/MOL
REMARK 924 INTRA-LIGAND FREE ENERGY PREDICTED BY IDOCK:   -0.88 KCAL/MOL
REMARK 927      BINDING AFFINITY PREDICTED BY RF-SCORE:    0.00 PKD
ROOT
HETATM    1  C   UNL     1      -9.642  11.360  66.119  1.00  0.00    -0.218 C  
HETATM    2  H   UNL     1      -9.059   9.495  66.100  1.00  0.00     0.000 HD 
HETATM    3  O   UNL     1      -9.494  10.076  65.488  1.00  0.00    -0.198 OA 
ENDROOT
BRANCH   1   4
HETATM    4  C   UNL     1     -10.351  12.305  65.125  1.00  0.00    -0.286 C  
BRANCH   4   5
HETATM    5  N   UNL     1     -10.027  13.718  65.341  1.00  0.00    -0.507 NA 
HETATM    6  C   UNL     1     -10.614  16.049  65.631  1.00  0.00    -0.392 C  
HETATM    7  C   UNL     1     -12.027  14.304  66.714  1.00  0.00    -0.462 C  
HETATM    8  C   UNL     1     -11.185  14.626  65.467  1.00  0.00    -0.343 C  
HETATM    9  H   UNL     1      -9.403  14.049  64.605  1.00  0.00     0.000 HD 
HETATM   10  C   UNL     1     -12.071  14.605  64.210  1.00  0.00    -0.437 C  
ENDBRANCH   4   5
ENDBRANCH   1   4
BRANCH   1  11
HETATM   11  C   UNL     1     -10.382  11.193  67.452  1.00  0.00    -0.196 C  
BRANCH  11  12
HETATM   12  O   UNL     1      -9.557  11.723  68.495  1.00  0.00    -0.200 OA 
BRANCH  12  13
HETATM   13  C   UNL     1      -8.377  11.072  68.688  1.00  0.00    -0.153 A  
HETATM   14  N   UNL     1      -8.372   9.746  68.837  1.00  0.00    -0.114 NA 
HETATM   15  S   UNL     1      -6.772   9.378  69.145  1.00  0.00    -0.050 SA 
HETATM   16  N   UNL     1      -6.093  10.899  69.109  1.00  0.00    -0.042 NA 
HETATM   17  C   UNL     1      -7.087  11.745  68.813  1.00  0.00    -0.111 A  
BRANCH  17  18
HETATM   18  N   UNL     1      -6.929  13.100  68.732  1.00  0.00    -0.101 NA 
HETATM   19  C   UNL     1      -7.050  13.851  67.481  1.00  0.00    -0.158 C  
HETATM   20  C   UNL     1      -7.796  15.163  67.775  1.00  0.00    -0.147 C  
HETATM   21  O   UNL     1      -7.123  15.931  68.790  1.00  0.00    -0.124 OA 
HETATM   22  C   UNL     1      -7.003  15.172  70.008  1.00  0.00    -0.082 C  
HETATM   23  C   UNL     1      -6.239  13.852  69.787  1.00  0.00    -0.136 C  
ENDBRANCH  17  18
ENDBRANCH  12  13
ENDBRANCH  11  12
ENDBRANCH   1  11
TORSDOF 6
ENDMDL
MODEL      221
REMARK 921   NORMALIZED FREE ENERGY PREDICTED BY IDOCK:   -3.37 KCAL/MOL
REMARK 922        TOTAL FREE ENERGY PREDICTED BY IDOCK:   -5.33 KCAL/MOL
REMARK 923 INTER-LIGAND FREE ENERGY PREDICTED BY IDOCK:   -4.42 KCAL/MOL
REMARK 924 INTRA-LIGAND FREE ENERGY PREDICTED BY IDOCK:   -0.91 KCAL/MOL
REMARK 927      BINDING AFFINITY PREDICTED BY RF-SCORE:    0.00 PKD
ROOT
HETATM    1  C   UNL     1      -7.557   7.916  70.306  1.00  0.00    -0.086 C  
HETATM    2  H   UNL     1      -5.964   9.031  70.500  1.00  0.00     0.000 HD 
HETATM    3  O   UNL     1      -6.278   8.223  70.887  1.00  0.00    -0.033 OA 
ENDROOT
BRANCH   1   4
HETATM    4  C   UNL     1      -8.068   6.602  70.935  1.00  0.00    -0.119 C  
BRANCH   4   5
HETATM    5  N   UNL     1      -8.748   6.802  72.218  1.00  0.00    -0.128 NA 
HETATM    6  C   UNL     1     -10.418   6.261  73.886  1.00  0.00    -0.292 C  
HETATM    7  C   UNL     1      -9.255   4.405  72.694  1.00  0.00    -0.146 C  
HETATM    8  C   UNL     1      -9.814   5.829  72.533  1.00  0.00    -0.162 C  
HETATM    9  H   UNL     1      -9.115   7.752  72.273  1.00  0.00     0.000 HD 
HETATM   10  C   UNL     1     -10.934   5.843  71.480  1.00  0.00    -0.323 C  
ENDBRANCH   4   5
ENDBRANCH   1   4
BRANCH   1  11
HETATM   11  C   UNL     1      -8.506   9.106  70.499  1.00  0.00    -0.205 C  
BRANCH  11  12
HETATM   12  O   UNL     1      -9.816   8.710  70.081  1.00  0.00    -0.175 OA 
BRANCH  12  13
HETATM   13  C   UNL     1     -10.680   9.733  69.836  1.00  0.00    -0.268 A  
HETATM   14  N   UNL     1     -11.385  10.258  70.839  1.00  0.00    -0.336 NA 
HETATM   15  S   UNL     1     -12.370  11.385  70.099  1.00  0.00    -0.234 SA 
HETATM   16  N   UNL     1     -11.917  11.194  68.507  1.00  0.00    -0.574 NA 
HETATM   17  C   UNL     1     -10.948  10.269  68.503  1.00  0.00    -0.247 A  
BRANCH  17  18
HETATM   18  N   UNL     1     -10.345   9.810  67.366  1.00  0.00    -0.223 NA 
HETATM   19  C   UNL     1      -9.696  10.687  66.389  1.00  0.00    -0.196 C  
HETATM   20  C   UNL     1      -8.403  10.006  65.912  1.00  0.00    -0.127 C  
HETATM   21  O   UNL     1      -8.673   8.704  65.358  1.00  0.00    -0.173 OA 
HETATM   22  C   UNL     1      -9.321   7.861  66.329  1.00  0.00    -0.164 C  
HETATM   23  C   UNL     1     -10.641   8.476  66.831  1.00  0.00    -0.209 C  
ENDBRANCH  17  18
ENDBRANCH  12  13
ENDBRANCH  11  12
ENDBRANCH   1  11
TORSDOF 6
ENDMDL
MODEL      222
REMARK 921   NORMALIZED FREE ENERGY PREDICTED BY IDOCK:   -3.36 KCAL/MOL
REMARK 922        TOTAL FREE ENERGY PREDICTED BY IDOCK:   -5.32 KCAL/MOL
REMARK 923 INTER-LIGAND FREE ENERGY PREDICTED BY IDOCK:   -4.83 KCAL/MOL
REMARK 924 INTRA-LIGAND FREE ENERGY PREDICTED BY IDOCK:   -0.49 KCAL/MOL
REMARK 927      BINDING AFFINITY PREDICTED BY RF-SCORE:    0.00 PKD
ROOT
HETATM    1  C   UNL     1     -10.801   5.886  69.321  1.00  0.00    -0.344 C  
HETATM    2  H   UNL     1     -12.168   6.741  68.216  1.00  0.00     0.000 HD 
HETATM    3  O   UNL     1     -11.284   6.424  68.078  1.00  0.00    -0.311 OA 
ENDROOT
BRANCH   1   4
HETATM    4  C   UNL     1      -9.363   5.371  69.096  1.00  0.00    -0.120 C  
BRANCH   4   5
HETATM    5  N   UNL     1      -9.111   4.950  67.715  1.00  0.00    -0.113 NA 
HETATM    6  C   UNL     1      -8.312   3.391  66.044  1.00  0.00    -0.103 C  
HETATM    7  C   UNL     1      -9.516   2.508  68.040  1.00  0.00    -0.203 C  
HETATM    8  C   UNL     1      -8.542   3.596  67.555  1.00  0.00    -0.100 C  
HETATM    9  H   UNL     1      -8.519   5.635  67.245  1.00  0.00     0.000 HD 
HETATM   10  C   UNL     1      -7.189   3.452  68.272  1.00  0.00    -0.050 C  
ENDBRANCH   4   5
ENDBRANCH   1   4
BRANCH   1  11
HETATM   11  C   UNL     1     -10.913   6.954  70.417  1.00  0.00    -0.274 C  
BRANCH  11  12
HETATM   12  O   UNL     1     -10.773   8.241  69.808  1.00  0.00    -0.239 OA 
BRANCH  12  13
HETATM   13  C   UNL     1     -11.471   9.245  70.406  1.00  0.00    -0.213 A  
HETATM   14  N   UNL     1     -12.267   8.970  71.442  1.00  0.00    -0.310 NA 
HETATM   15  S   UNL     1     -12.993  10.431  71.796  1.00  0.00    -0.455 SA 
HETATM   16  N   UNL     1     -12.315  11.405  70.627  1.00  0.00    -0.372 NA 
HETATM   17  C   UNL     1     -11.464  10.630  69.943  1.00  0.00    -0.317 A  
BRANCH  17  18
HETATM   18  N   UNL     1     -10.740  11.066  68.868  1.00  0.00    -0.199 NA 
HETATM   19  C   UNL     1      -9.286  10.925  68.767  1.00  0.00    -0.183 C  
HETATM   20  C   UNL     1      -8.938  10.535  67.321  1.00  0.00    -0.139 C  
HETATM   21  O   UNL     1      -9.442  11.503  66.383  1.00  0.00    -0.200 OA 
HETATM   22  C   UNL     1     -10.871  11.636  66.506  1.00  0.00    -0.284 C  
HETATM   23  C   UNL     1     -11.287  12.052  67.930  1.00  0.00    -0.305 C  
ENDBRANCH  17  18
ENDBRANCH  12  13
ENDBRANCH  11  12
ENDBRANCH   1  11
TORSDOF 6
ENDMDL
MODEL      223
REMARK 921   NORMALIZED FREE ENERGY PREDICTED BY IDOCK:   -3.35 KCAL/MOL
REMARK 922        TOTAL FREE ENERGY PREDICTED BY IDOCK:   -5.31 KCAL/MOL
REMARK 923 INTER-LIGAND FREE ENERGY PREDICTED BY IDOCK:   -4.62 KCAL/MOL
REMARK 924 INTRA-LIGAND FREE ENERGY PREDICTED BY IDOCK:   -0.69 KCAL/MOL
REMARK 927      BINDING AFFINITY PREDICTED BY RF-SCORE:    0.00 PKD
ROOT
HETATM    1  C   UNL     1     -11.218   9.548  69.836  1.00  0.00    -0.178 C  
HETATM    2  H   UNL     1     -12.356  10.552  71.068  1.00  0.00     0.000 HD 
HETATM    3  O   UNL     1     -12.090  10.645  70.161  1.00  0.00    -0.293 OA 
ENDROOT
BRANCH   1   4
HETATM    4  C   UNL     1     -10.785   9.699  68.362  1.00  0.00    -0.209 C  
BRANCH   4   5
HETATM    5  N   UNL     1     -11.572  10.694  67.628  1.00  0.00    -0.616 NA 
HETATM    6  C   UNL     1     -11.818  12.538  66.078  1.00  0.00    -0.478 C  
HETATM    7  C   UNL     1     -10.203  10.716  65.541  1.00  0.00    -0.329 C  
HETATM    8  C   UNL     1     -10.810  11.542  66.688  1.00  0.00    -0.287 C  
HETATM    9  H   UNL     1     -12.092  11.279  68.282  1.00  0.00     0.000 HD 
HETATM   10  C   UNL     1      -9.711  12.347  67.402  1.00  0.00    -0.193 C  
ENDBRANCH   4   5
ENDBRANCH   1   4
BRANCH   1  11
HETATM   11  C   UNL     1     -10.047   9.515  70.826  1.00  0.00    -0.282 C  
BRANCH  11  12
HETATM   12  O   UNL     1     -10.265   8.440  71.745  1.00  0.00    -0.208 OA 
BRANCH  12  13
HETATM   13  C   UNL     1      -9.143   7.949  72.340  1.00  0.00    -0.172 A  
HETATM   14  N   UNL     1      -8.721   8.477  73.490  1.00  0.00    -0.308 NA 
HETATM   15  S   UNL     1      -7.293   7.672  73.808  1.00  0.00    -0.124 SA 
HETATM   16  N   UNL     1      -7.202   6.670  72.480  1.00  0.00    -0.083 NA 
HETATM   17  C   UNL     1      -8.307   6.901  71.761  1.00  0.00    -0.108 A  
BRANCH  17  18
HETATM   18  N   UNL     1      -8.575   6.291  70.567  1.00  0.00    -0.137 NA 
HETATM   19  C   UNL     1      -8.128   6.818  69.276  1.00  0.00    -0.120 C  
HETATM   20  C   UNL     1      -7.667   5.637  68.406  1.00  0.00    -0.092 C  
HETATM   21  O   UNL     1      -8.718   4.665  68.246  1.00  0.00    -0.100 OA 
HETATM   22  C   UNL     1      -9.152   4.168  69.526  1.00  0.00    -0.121 C  
HETATM   23  C   UNL     1      -9.652   5.302  70.441  1.00  0.00    -0.179 C  
ENDBRANCH  17  18
ENDBRANCH  12  13
ENDBRANCH  11  12
ENDBRANCH   1  11
TORSDOF 6
ENDMDL
MODEL      224
REMARK 921   NORMALIZED FREE ENERGY PREDICTED BY IDOCK:   -3.34 KCAL/MOL
REMARK 922        TOTAL FREE ENERGY PREDICTED BY IDOCK:   -5.30 KCAL/MOL
REMARK 923 INTER-LIGAND FREE ENERGY PREDICTED BY IDOCK:   -4.83 KCAL/MOL
REMARK 924 INTRA-LIGAND FREE ENERGY PREDICTED BY IDOCK:   -0.47 KCAL/MOL
REMARK 927      BINDING AFFINITY PREDICTED BY RF-SCORE:    0.00 PKD
ROOT
HETATM    1  C   UNL     1     -10.026   9.636  67.238  1.00  0.00    -0.197 C  
HETATM    2  H   UNL     1     -10.905  10.530  68.738  1.00  0.00     0.000 HD 
HETATM    3  O   UNL     1     -10.949   9.668  68.341  1.00  0.00    -0.198 OA 
ENDROOT
BRANCH   1   4
HETATM    4  C   UNL     1     -10.098   8.236  66.592  1.00  0.00    -0.281 C  
BRANCH   4   5
HETATM    5  N   UNL     1      -9.560   7.176  67.450  1.00  0.00    -0.132 NA 
HETATM    6  C   UNL     1      -8.832   4.908  67.882  1.00  0.00    -0.110 C  
HETATM    7  C   UNL     1      -8.270   5.960  65.693  1.00  0.00    -0.134 C  
HETATM    8  C   UNL     1      -9.343   5.872  66.792  1.00  0.00    -0.136 C  
HETATM    9  H   UNL     1     -10.152   7.058  68.272  1.00  0.00     0.000 HD 
HETATM   10  C   UNL     1     -10.647   5.296  66.214  1.00  0.00    -0.308 C  
ENDBRANCH   4   5
ENDBRANCH   1   4
BRANCH   1  11
HETATM   11  C   UNL     1     -10.346  10.783  66.270  1.00  0.00    -0.244 C  
BRANCH  11  12
HETATM   12  O   UNL     1      -9.115  11.401  65.883  1.00  0.00    -0.207 OA 
BRANCH  12  13
HETATM   13  C   UNL     1      -8.654  12.358  66.735  1.00  0.00    -0.129 A  
HETATM   14  N   UNL     1      -7.594  12.101  67.504  1.00  0.00    -0.141 NA 
HETATM   15  S   UNL     1      -7.434  13.471  68.446  1.00  0.00    -0.131 SA 
HETATM   16  N   UNL     1      -8.717  14.379  67.892  1.00  0.00    -0.160 NA 
HETATM   17  C   UNL     1      -9.292  13.658  66.921  1.00  0.00    -0.257 A  
BRANCH  17  18
HETATM   18  N   UNL     1     -10.411  14.057  66.245  1.00  0.00    -0.282 NA 
HETATM   19  C   UNL     1     -10.401  14.455  64.835  1.00  0.00    -0.389 C  
HETATM   20  C   UNL     1     -11.660  13.883  64.163  1.00  0.00    -0.298 C  
HETATM   21  O   UNL     1     -12.856  14.327  64.829  1.00  0.00    -0.671 OA 
HETATM   22  C   UNL     1     -12.842  13.937  66.216  1.00  0.00    -0.035 C  
HETATM   23  C   UNL     1     -11.615  14.501  66.957  1.00  0.00    -0.386 C  
ENDBRANCH  17  18
ENDBRANCH  12  13
ENDBRANCH  11  12
ENDBRANCH   1  11
TORSDOF 6
ENDMDL
MODEL      225
REMARK 921   NORMALIZED FREE ENERGY PREDICTED BY IDOCK:   -3.33 KCAL/MOL
REMARK 922        TOTAL FREE ENERGY PREDICTED BY IDOCK:   -5.28 KCAL/MOL
REMARK 923 INTER-LIGAND FREE ENERGY PREDICTED BY IDOCK:   -4.52 KCAL/MOL
REMARK 924 INTRA-LIGAND FREE ENERGY PREDICTED BY IDOCK:   -0.76 KCAL/MOL
REMARK 927      BINDING AFFINITY PREDICTED BY RF-SCORE:    0.00 PKD
ROOT
HETATM    1  C   UNL     1      -7.886  10.957  68.483  1.00  0.00    -0.126 C  
HETATM    2  H   UNL     1      -6.652   9.446  68.360  1.00  0.00     0.000 HD 
HETATM    3  O   UNL     1      -7.143   9.974  67.741  1.00  0.00    -0.084 OA 
ENDROOT
BRANCH   1   4
HETATM    4  C   UNL     1      -8.684  11.815  67.477  1.00  0.00    -0.159 C  
BRANCH   4   5
HETATM    5  N   UNL     1      -8.358  11.519  66.079  1.00  0.00    -0.373 NA 
HETATM    6  C   UNL     1      -8.924  10.837  63.826  1.00  0.00    -0.171 C  
HETATM    7  C   UNL     1     -10.497  12.319  65.070  1.00  0.00    -0.322 C  
HETATM    8  C   UNL     1      -9.503  11.154  65.221  1.00  0.00    -0.226 C  
HETATM    9  H   UNL     1      -7.642  10.794  66.034  1.00  0.00     0.000 HD 
HETATM   10  C   UNL     1     -10.230   9.900  65.736  1.00  0.00    -0.251 C  
ENDBRANCH   4   5
ENDBRANCH   1   4
BRANCH   1  11
HETATM   11  C   UNL     1      -8.759  10.255  69.530  1.00  0.00    -0.139 C  
BRANCH  11  12
HETATM   12  O   UNL     1      -9.385   9.127  68.912  1.00  0.00    -0.145 OA 
BRANCH  12  13
HETATM   13  C   UNL     1     -10.366   8.533  69.646  1.00  0.00    -0.218 A  
HETATM   14  N   UNL     1     -10.939   9.203  70.647  1.00  0.00    -0.246 NA 
HETATM   15  S   UNL     1     -11.987   8.097  71.330  1.00  0.00    -0.303 SA 
HETATM   16  N   UNL     1     -11.700   6.766  70.370  1.00  0.00    -0.372 NA 
HETATM   17  C   UNL     1     -10.803   7.153  69.454  1.00  0.00    -0.206 A  
BRANCH  17  18
HETATM   18  N   UNL     1     -10.284   6.319  68.504  1.00  0.00    -0.160 NA 
HETATM   19  C   UNL     1      -9.153   5.421  68.752  1.00  0.00    -0.118 C  
HETATM   20  C   UNL     1      -9.437   4.082  68.052  1.00  0.00    -0.165 C  
HETATM   21  O   UNL     1      -9.666   4.268  66.642  1.00  0.00    -0.194 OA 
HETATM   22  C   UNL     1     -10.773   5.162  66.419  1.00  0.00    -0.210 C  
HETATM   23  C   UNL     1     -10.541   6.536  67.075  1.00  0.00    -0.332 C  
ENDBRANCH  17  18
ENDBRANCH  12  13
ENDBRANCH  11  12
ENDBRANCH   1  11
TORSDOF 6
ENDMDL
MODEL      226
REMARK 921   NORMALIZED FREE ENERGY PREDICTED BY IDOCK:   -3.32 KCAL/MOL
REMARK 922        TOTAL FREE ENERGY PREDICTED BY IDOCK:   -5.27 KCAL/MOL
REMARK 923 INTER-LIGAND FREE ENERGY PREDICTED BY IDOCK:   -4.50 KCAL/MOL
REMARK 924 INTRA-LIGAND FREE ENERGY PREDICTED BY IDOCK:   -0.77 KCAL/MOL
REMARK 927      BINDING AFFINITY PREDICTED BY RF-SCORE:    0.00 PKD
ROOT
HETATM    1  C   UNL     1     -10.008  10.250  66.420  1.00  0.00    -0.229 C  
HETATM    2  H   UNL     1      -8.860   9.498  65.028  1.00  0.00     0.000 HD 
HETATM    3  O   UNL     1      -9.519  10.181  65.069  1.00  0.00    -0.225 OA 
ENDROOT
BRANCH   1   4
HETATM    4  C   UNL     1     -11.080  11.359  66.486  1.00  0.00    -0.251 C  
BRANCH   4   5
HETATM    5  N   UNL     1     -10.570  12.679  66.103  1.00  0.00    -0.254 NA 
HETATM    6  C   UNL     1     -10.683  14.768  64.885  1.00  0.00    -0.438 C  
HETATM    7  C   UNL     1     -12.775  13.820  65.854  1.00  0.00    -0.452 C  
HETATM    8  C   UNL     1     -11.435  13.457  65.192  1.00  0.00    -0.296 C  
HETATM    9  H   UNL     1      -9.635  12.588  65.704  1.00  0.00     0.000 HD 
HETATM   10  C   UNL     1     -11.681  12.720  63.865  1.00  0.00    -0.530 C  
ENDBRANCH   4   5
ENDBRANCH   1   4
BRANCH   1  11
HETATM   11  C   UNL     1     -10.518   8.868  66.850  1.00  0.00    -0.234 C  
BRANCH  11  12
HETATM   12  O   UNL     1     -10.412   8.774  68.274  1.00  0.00    -0.215 OA 
BRANCH  12  13
HETATM   13  C   UNL     1     -10.084   7.541  68.751  1.00  0.00    -0.185 A  
HETATM   14  N   UNL     1     -11.050   6.695  69.113  1.00  0.00    -0.284 NA 
HETATM   15  S   UNL     1     -10.227   5.375  69.720  1.00  0.00    -0.298 SA 
HETATM   16  N   UNL     1      -8.650   5.885  69.542  1.00  0.00    -0.116 NA 
HETATM   17  C   UNL     1      -8.711   7.090  68.963  1.00  0.00    -0.128 A  
BRANCH  17  18
HETATM   18  N   UNL     1      -7.611   7.854  68.688  1.00  0.00    -0.099 NA 
HETATM   19  C   UNL     1      -6.905   7.815  67.405  1.00  0.00    -0.069 C  
HETATM   20  C   UNL     1      -6.510   9.253  67.027  1.00  0.00    -0.067 C  
HETATM   21  O   UNL     1      -5.707   9.861  68.056  1.00  0.00    -0.040 OA 
HETATM   22  C   UNL     1      -6.413   9.878  69.311  1.00  0.00    -0.048 C  
HETATM   23  C   UNL     1      -6.817   8.462  69.761  1.00  0.00    -0.043 C  
ENDBRANCH  17  18
ENDBRANCH  12  13
ENDBRANCH  11  12
ENDBRANCH   1  11
TORSDOF 6
ENDMDL
MODEL      227
REMARK 921   NORMALIZED FREE ENERGY PREDICTED BY IDOCK:   -3.32 KCAL/MOL
REMARK 922        TOTAL FREE ENERGY PREDICTED BY IDOCK:   -5.27 KCAL/MOL
REMARK 923 INTER-LIGAND FREE ENERGY PREDICTED BY IDOCK:   -4.59 KCAL/MOL
REMARK 924 INTRA-LIGAND FREE ENERGY PREDICTED BY IDOCK:   -0.68 KCAL/MOL
REMARK 927      BINDING AFFINITY PREDICTED BY RF-SCORE:    0.00 PKD
ROOT
HETATM    1  C   UNL     1     -11.540  14.050  67.346  1.00  0.00    -0.368 C  
HETATM    2  H   UNL     1     -10.559  12.375  67.111  1.00  0.00     0.000 HD 
HETATM    3  O   UNL     1     -11.182  12.714  67.742  1.00  0.00    -0.244 OA 
ENDROOT
BRANCH   1   4
HETATM    4  C   UNL     1     -12.552  14.601  68.373  1.00  0.00     0.492 C  
BRANCH   4   5
HETATM    5  N   UNL     1     -11.935  14.974  69.649  1.00  0.00    -0.323 NA 
HETATM    6  C   UNL     1     -11.821  15.004  72.067  1.00  0.00    -0.462 C  
HETATM    7  C   UNL     1     -12.537  12.911  70.918  1.00  0.00    -0.355 C  
HETATM    8  C   UNL     1     -12.600  14.447  70.858  1.00  0.00    -0.352 C  
HETATM    9  H   UNL     1     -11.851  15.989  69.711  1.00  0.00     0.000 HD 
HETATM   10  C   UNL     1     -14.059  14.922  70.964  1.00  0.00    -0.252 C  
ENDBRANCH   4   5
ENDBRANCH   1   4
BRANCH   1  11
HETATM   11  C   UNL     1     -10.271  14.900  67.208  1.00  0.00    -0.241 C  
BRANCH  11  12
HETATM   12  O   UNL     1      -9.425  14.633  68.331  1.00  0.00    -0.196 OA 
BRANCH  12  13
HETATM   13  C   UNL     1      -8.222  14.073  68.031  1.00  0.00    -0.155 A  
HETATM   14  N   UNL     1      -8.041  12.763  68.203  1.00  0.00    -0.150 NA 
HETATM   15  S   UNL     1      -6.433  12.520  67.823  1.00  0.00    -0.137 SA 
HETATM   16  N   UNL     1      -5.963  14.077  67.459  1.00  0.00    -0.352 NA 
HETATM   17  C   UNL     1      -7.059  14.836  67.583  1.00  0.00    -0.184 A  
BRANCH  17  18
HETATM   18  N   UNL     1      -7.065  16.191  67.403  1.00  0.00    -0.159 NA 
HETATM   19  C   UNL     1      -7.624  16.842  66.216  1.00  0.00    -0.277 C  
HETATM   20  C   UNL     1      -8.375  18.106  66.668  1.00  0.00    -0.263 C  
HETATM   21  O   UNL     1      -7.509  18.994  67.400  1.00  0.00    -0.228 OA 
HETATM   22  C   UNL     1      -6.960  18.332  68.556  1.00  0.00    -0.254 C  
HETATM   23  C   UNL     1      -6.171  17.066  68.169  1.00  0.00    -0.130 C  
ENDBRANCH  17  18
ENDBRANCH  12  13
ENDBRANCH  11  12
ENDBRANCH   1  11
TORSDOF 6
ENDMDL
MODEL      228
REMARK 921   NORMALIZED FREE ENERGY PREDICTED BY IDOCK:   -3.30 KCAL/MOL
REMARK 922        TOTAL FREE ENERGY PREDICTED BY IDOCK:   -5.24 KCAL/MOL
REMARK 923 INTER-LIGAND FREE ENERGY PREDICTED BY IDOCK:   -4.31 KCAL/MOL
REMARK 924 INTRA-LIGAND FREE ENERGY PREDICTED BY IDOCK:   -0.93 KCAL/MOL
REMARK 927      BINDING AFFINITY PREDICTED BY RF-SCORE:    0.00 PKD
ROOT
HETATM    1  C   UNL     1      -6.783  11.239  67.266  1.00  0.00    -0.104 C  
HETATM    2  H   UNL     1      -5.369  11.091  68.608  1.00  0.00     0.000 HD 
HETATM    3  O   UNL     1      -5.632  10.596  67.841  1.00  0.00    -0.043 OA 
ENDROOT
BRANCH   1   4
HETATM    4  C   UNL     1      -7.210  10.434  66.020  1.00  0.00    -0.134 C  
BRANCH   4   5
HETATM    5  N   UNL     1      -7.941   9.206  66.348  1.00  0.00    -0.099 NA 
HETATM    6  C   UNL     1      -8.499   6.873  66.024  1.00  0.00    -0.140 C  
HETATM    7  C   UNL     1      -6.122   7.588  65.795  1.00  0.00    -0.038 C  
HETATM    8  C   UNL     1      -7.579   8.017  65.550  1.00  0.00    -0.085 C  
HETATM    9  H   UNL     1      -8.945   9.373  66.291  1.00  0.00     0.000 HD 
HETATM   10  C   UNL     1      -7.821   8.238  64.047  1.00  0.00    -0.146 C  
ENDBRANCH   4   5
ENDBRANCH   1   4
BRANCH   1  11
HETATM   11  C   UNL     1      -7.882  11.367  68.329  1.00  0.00    -0.132 C  
BRANCH  11  12
HETATM   12  O   UNL     1      -9.132  11.562  67.662  1.00  0.00    -0.161 OA 
BRANCH  12  13
HETATM   13  C   UNL     1     -10.183  11.859  68.475  1.00  0.00    -0.215 A  
HETATM   14  N   UNL     1     -10.642  10.938  69.324  1.00  0.00    -0.222 NA 
HETATM   15  S   UNL     1     -11.966  11.665  70.036  1.00  0.00    -0.334 SA 
HETATM   16  N   UNL     1     -11.969  13.137  69.254  1.00  0.00    -0.311 NA 
HETATM   17  C   UNL     1     -10.908  13.127  68.437  1.00  0.00    -0.262 A  
BRANCH  17  18
HETATM   18  N   UNL     1     -10.594  14.155  67.593  1.00  0.00    -0.251 NA 
HETATM   19  C   UNL     1      -9.538  15.131  67.871  1.00  0.00    -0.203 C  
HETATM   20  C   UNL     1      -8.786  15.416  66.560  1.00  0.00    -0.312 C  
HETATM   21  O   UNL     1      -9.682  15.883  65.534  1.00  0.00    -0.376 OA 
HETATM   22  C   UNL     1     -10.719  14.915  65.284  1.00  0.00    -0.393 C  
HETATM   23  C   UNL     1     -11.531  14.603  66.556  1.00  0.00    -0.351 C  
ENDBRANCH  17  18
ENDBRANCH  12  13
ENDBRANCH  11  12
ENDBRANCH   1  11
TORSDOF 6
ENDMDL
MODEL      229
REMARK 921   NORMALIZED FREE ENERGY PREDICTED BY IDOCK:   -3.28 KCAL/MOL
REMARK 922        TOTAL FREE ENERGY PREDICTED BY IDOCK:   -5.22 KCAL/MOL
REMARK 923 INTER-LIGAND FREE ENERGY PREDICTED BY IDOCK:   -3.87 KCAL/MOL
REMARK 924 INTRA-LIGAND FREE ENERGY PREDICTED BY IDOCK:   -1.35 KCAL/MOL
REMARK 927      BINDING AFFINITY PREDICTED BY RF-SCORE:    0.00 PKD
ROOT
HETATM    1  C   UNL     1      -7.583   6.966  67.986  1.00  0.00    -0.108 C  
HETATM    2  H   UNL     1      -6.207   6.365  69.238  1.00  0.00     0.000 HD 
HETATM    3  O   UNL     1      -6.579   6.036  68.428  1.00  0.00    -0.050 OA 
ENDROOT
BRANCH   1   4
HETATM    4  C   UNL     1      -8.187   6.431  66.670  1.00  0.00    -0.111 C  
BRANCH   4   5
HETATM    5  N   UNL     1      -8.139   4.970  66.564  1.00  0.00    -0.107 NA 
HETATM    6  C   UNL     1      -8.901   2.841  65.700  1.00  0.00    -0.133 C  
HETATM    7  C   UNL     1      -8.784   4.797  64.159  1.00  0.00    -0.141 C  
HETATM    8  C   UNL     1      -9.088   4.369  65.605  1.00  0.00    -0.137 C  
HETATM    9  H   UNL     1      -8.261   4.550  67.486  1.00  0.00     0.000 HD 
HETATM   10  C   UNL     1     -10.548   4.698  65.959  1.00  0.00    -0.244 C  
ENDBRANCH   4   5
ENDBRANCH   1   4
BRANCH   1  11
HETATM   11  C   UNL     1      -8.614   7.175  69.102  1.00  0.00    -0.133 C  
BRANCH  11  12
HETATM   12  O   UNL     1      -9.662   6.215  68.932  1.00  0.00    -0.127 OA 
BRANCH  12  13
HETATM   13  C   UNL     1      -9.663   5.193  69.831  1.00  0.00    -0.199 A  
HETATM   14  N   UNL     1      -9.180   4.001  69.476  1.00  0.00    -0.135 NA 
HETATM   15  S   UNL     1      -9.462   3.034  70.809  1.00  0.00    -0.140 SA 
HETATM   16  N   UNL     1     -10.213   4.121  71.825  1.00  0.00    -0.134 NA 
HETATM   17  C   UNL     1     -10.233   5.290  71.173  1.00  0.00    -0.224 A  
BRANCH  17  18
HETATM   18  N   UNL     1     -10.808   6.425  71.671  1.00  0.00    -0.239 NA 
HETATM   19  C   UNL     1     -10.072   7.428  72.445  1.00  0.00    -0.187 C  
HETATM   20  C   UNL     1     -10.545   8.822  72.004  1.00  0.00    -0.344 C  
HETATM   21  O   UNL     1     -11.968   8.967  72.168  1.00  0.00    -0.357 OA 
HETATM   22  C   UNL     1     -12.674   7.966  71.410  1.00  0.00    -0.292 C  
HETATM   23  C   UNL     1     -12.263   6.540  71.823  1.00  0.00    -0.322 C  
ENDBRANCH  17  18
ENDBRANCH  12  13
ENDBRANCH  11  12
ENDBRANCH   1  11
TORSDOF 6
ENDMDL
MODEL      230
REMARK 921   NORMALIZED FREE ENERGY PREDICTED BY IDOCK:   -3.28 KCAL/MOL
REMARK 922        TOTAL FREE ENERGY PREDICTED BY IDOCK:   -5.21 KCAL/MOL
REMARK 923 INTER-LIGAND FREE ENERGY PREDICTED BY IDOCK:   -4.53 KCAL/MOL
REMARK 924 INTRA-LIGAND FREE ENERGY PREDICTED BY IDOCK:   -0.68 KCAL/MOL
REMARK 927      BINDING AFFINITY PREDICTED BY RF-SCORE:    0.00 PKD
ROOT
HETATM    1  C   UNL     1      -9.733  11.985  67.110  1.00  0.00    -0.197 C  
HETATM    2  H   UNL     1      -9.717  10.864  65.509  1.00  0.00     0.000 HD 
HETATM    3  O   UNL     1     -10.313  11.499  65.887  1.00  0.00    -0.232 OA 
ENDROOT
BRANCH   1   4
HETATM    4  C   UNL     1     -10.703  13.017  67.725  1.00  0.00    -0.229 C  
BRANCH   4   5
HETATM    5  N   UNL     1     -10.518  14.371  67.193  1.00  0.00    -0.262 NA 
HETATM    6  C   UNL     1     -10.166  16.754  67.429  1.00  0.00    -0.288 C  
HETATM    7  C   UNL     1      -8.951  15.198  68.951  1.00  0.00    -0.206 C  
HETATM    8  C   UNL     1     -10.275  15.423  68.201  1.00  0.00    -0.230 C  
HETATM    9  H   UNL     1     -11.313  14.626  66.607  1.00  0.00     0.000 HD 
HETATM   10  C   UNL     1     -11.437  15.541  69.202  1.00  0.00    -0.356 C  
ENDBRANCH   4   5
ENDBRANCH   1   4
BRANCH   1  11
HETATM   11  C   UNL     1      -9.420  10.801  68.034  1.00  0.00    -0.160 C  
BRANCH  11  12
HETATM   12  O   UNL     1     -10.547   9.920  68.033  1.00  0.00    -0.211 OA 
BRANCH  12  13
HETATM   13  C   UNL     1     -10.879   9.402  69.248  1.00  0.00    -0.172 A  
HETATM   14  N   UNL     1     -11.504  10.168  70.144  1.00  0.00    -0.279 NA 
HETATM   15  S   UNL     1     -11.625   9.196  71.497  1.00  0.00    -0.394 SA 
HETATM   16  N   UNL     1     -10.870   7.814  70.953  1.00  0.00    -0.233 NA 
HETATM   17  C   UNL     1     -10.532   8.050  69.679  1.00  0.00    -0.224 A  
BRANCH  17  18
HETATM   18  N   UNL     1      -9.852   7.157  68.899  1.00  0.00    -0.153 NA 
HETATM   19  C   UNL     1      -8.398   7.185  68.725  1.00  0.00    -0.126 C  
HETATM   20  C   UNL     1      -7.882   5.736  68.735  1.00  0.00    -0.097 C  
HETATM   21  O   UNL     1      -8.523   4.947  67.715  1.00  0.00    -0.104 OA 
HETATM   22  C   UNL     1      -9.952   4.942  67.896  1.00  0.00    -0.123 C  
HETATM   23  C   UNL     1     -10.537   6.366  67.870  1.00  0.00    -0.258 C  
ENDBRANCH  17  18
ENDBRANCH  12  13
ENDBRANCH  11  12
ENDBRANCH   1  11
TORSDOF 6
ENDMDL
MODEL      231
REMARK 921   NORMALIZED FREE ENERGY PREDICTED BY IDOCK:   -3.24 KCAL/MOL
REMARK 922        TOTAL FREE ENERGY PREDICTED BY IDOCK:   -5.16 KCAL/MOL
REMARK 923 INTER-LIGAND FREE ENERGY PREDICTED BY IDOCK:   -4.65 KCAL/MOL
REMARK 924 INTRA-LIGAND FREE ENERGY PREDICTED BY IDOCK:   -0.51 KCAL/MOL
REMARK 927      BINDING AFFINITY PREDICTED BY RF-SCORE:    0.00 PKD
ROOT
HETATM    1  C   UNL     1     -10.048   7.109  67.783  1.00  0.00    -0.172 C  
HETATM    2  H   UNL     1      -9.228   5.351  67.549  1.00  0.00     0.000 HD 
HETATM    3  O   UNL     1      -9.424   6.089  66.984  1.00  0.00    -0.120 OA 
ENDROOT
BRANCH   1   4
HETATM    4  C   UNL     1     -10.367   8.309  66.866  1.00  0.00    -0.320 C  
BRANCH   4   5
HETATM    5  N   UNL     1      -9.519   8.365  65.672  1.00  0.00    -0.438 NA 
HETATM    6  C   UNL     1      -8.269   9.539  63.962  1.00  0.00    -0.160 C  
HETATM    7  C   UNL     1      -8.197  10.385  66.307  1.00  0.00    -0.144 C  
HETATM    8  C   UNL     1      -9.096   9.717  65.252  1.00  0.00    -0.218 C  
HETATM    9  H   UNL     1      -9.977   7.886  64.896  1.00  0.00     0.000 HD 
HETATM   10  C   UNL     1     -10.299  10.621  64.932  1.00  0.00    -0.347 C  
ENDBRANCH   4   5
ENDBRANCH   1   4
BRANCH   1  11
HETATM   11  C   UNL     1     -11.278   6.525  68.490  1.00  0.00    -0.197 C  
BRANCH  11  12
HETATM   12  O   UNL     1     -10.871   6.037  69.772  1.00  0.00    -0.294 OA 
BRANCH  12  13
HETATM   13  C   UNL     1     -11.134   6.867  70.818  1.00  0.00    -0.275 A  
HETATM   14  N   UNL     1     -11.693   8.057  70.593  1.00  0.00    -0.211 NA 
HETATM   15  S   UNL     1     -11.743   8.776  72.099  1.00  0.00    -0.335 SA 
HETATM   16  N   UNL     1     -11.039   7.587  73.032  1.00  0.00    -0.375 NA 
HETATM   17  C   UNL     1     -10.777   6.569  72.203  1.00  0.00    -0.221 A  
BRANCH  17  18
HETATM   18  N   UNL     1     -10.156   5.416  72.594  1.00  0.00    -0.172 NA 
HETATM   19  C   UNL     1     -10.875   4.259  73.133  1.00  0.00    -0.219 C  
HETATM   20  C   UNL     1     -10.242   2.983  72.552  1.00  0.00    -0.147 C  
HETATM   21  O   UNL     1      -8.834   2.917  72.847  1.00  0.00    -0.081 OA 
HETATM   22  C   UNL     1      -8.148   4.069  72.320  1.00  0.00    -0.086 C  
HETATM   23  C   UNL     1      -8.718   5.384  72.884  1.00  0.00    -0.118 C  
ENDBRANCH  17  18
ENDBRANCH  12  13
ENDBRANCH  11  12
ENDBRANCH   1  11
TORSDOF 6
ENDMDL
MODEL      232
REMARK 921   NORMALIZED FREE ENERGY PREDICTED BY IDOCK:   -3.24 KCAL/MOL
REMARK 922        TOTAL FREE ENERGY PREDICTED BY IDOCK:   -5.16 KCAL/MOL
REMARK 923 INTER-LIGAND FREE ENERGY PREDICTED BY IDOCK:   -4.63 KCAL/MOL
REMARK 924 INTRA-LIGAND FREE ENERGY PREDICTED BY IDOCK:   -0.54 KCAL/MOL
REMARK 927      BINDING AFFINITY PREDICTED BY RF-SCORE:    0.00 PKD
ROOT
HETATM    1  C   UNL     1      -9.177  10.233  69.110  1.00  0.00    -0.194 C  
HETATM    2  H   UNL     1      -7.619   9.549  70.071  1.00  0.00     0.000 HD 
HETATM    3  O   UNL     1      -7.852  10.368  69.652  1.00  0.00    -0.156 OA 
ENDROOT
BRANCH   1   4
HETATM    4  C   UNL     1      -9.555  11.565  68.427  1.00  0.00    -0.195 C  
BRANCH   4   5
HETATM    5  N   UNL     1     -10.631  12.283  69.117  1.00  0.00    -0.429 NA 
HETATM    6  C   UNL     1     -12.187  14.120  69.369  1.00  0.00    -0.329 C  
HETATM    7  C   UNL     1     -11.759  13.205  67.090  1.00  0.00    -0.430 C  
HETATM    8  C   UNL     1     -11.108  13.511  68.451  1.00  0.00    -0.271 C  
HETATM    9  H   UNL     1     -10.352  12.492  70.076  1.00  0.00     0.000 HD 
HETATM   10  C   UNL     1      -9.983  14.546  68.278  1.00  0.00    -0.229 C  
ENDBRANCH   4   5
ENDBRANCH   1   4
BRANCH   1  11
HETATM   11  C   UNL     1      -9.225   9.020  68.172  1.00  0.00    -0.136 C  
BRANCH  11  12
HETATM   12  O   UNL     1     -10.297   8.170  68.591  1.00  0.00    -0.205 OA 
BRANCH  12  13
HETATM   13  C   UNL     1     -10.107   6.842  68.361  1.00  0.00    -0.162 A  
HETATM   14  N   UNL     1      -9.964   6.402  67.109  1.00  0.00    -0.143 NA 
HETATM   15  S   UNL     1      -9.862   4.743  67.269  1.00  0.00    -0.173 SA 
HETATM   16  N   UNL     1     -10.019   4.582  68.920  1.00  0.00    -0.114 NA 
HETATM   17  C   UNL     1     -10.115   5.825  69.409  1.00  0.00    -0.213 A  
BRANCH  17  18
HETATM   18  N   UNL     1     -10.297   6.104  70.735  1.00  0.00    -0.204 NA 
HETATM   19  C   UNL     1     -11.609   6.370  71.329  1.00  0.00    -0.311 C  
HETATM   20  C   UNL     1     -11.667   5.678  72.701  1.00  0.00    -0.197 C  
HETATM   21  O   UNL     1     -10.599   6.124  73.557  1.00  0.00    -0.242 OA 
HETATM   22  C   UNL     1      -9.318   5.864  72.950  1.00  0.00    -0.147 C  
HETATM   23  C   UNL     1      -9.183   6.553  71.579  1.00  0.00    -0.144 C  
ENDBRANCH  17  18
ENDBRANCH  12  13
ENDBRANCH  11  12
ENDBRANCH   1  11
TORSDOF 6
ENDMDL
MODEL      233
REMARK 921   NORMALIZED FREE ENERGY PREDICTED BY IDOCK:   -3.23 KCAL/MOL
REMARK 922        TOTAL FREE ENERGY PREDICTED BY IDOCK:   -5.15 KCAL/MOL
REMARK 923 INTER-LIGAND FREE ENERGY PREDICTED BY IDOCK:   -4.68 KCAL/MOL
REMARK 924 INTRA-LIGAND FREE ENERGY PREDICTED BY IDOCK:   -0.48 KCAL/MOL
REMARK 927      BINDING AFFINITY PREDICTED BY RF-SCORE:    0.00 PKD
ROOT
HETATM    1  C   UNL     1      -9.880   9.945  65.620  1.00  0.00    -0.298 C  
HETATM    2  H   UNL     1     -10.367   9.158  67.341  1.00  0.00     0.000 HD 
HETATM    3  O   UNL     1     -10.236  10.038  67.010  1.00  0.00    -0.213 OA 
ENDROOT
BRANCH   1   4
HETATM    4  C   UNL     1      -9.666  11.377  65.082  1.00  0.00    -0.244 C  
BRANCH   4   5
HETATM    5  N   UNL     1      -9.572  12.384  66.142  1.00  0.00    -0.262 NA 
HETATM    6  C   UNL     1     -10.239  14.438  67.236  1.00  0.00    -0.252 C  
HETATM    7  C   UNL     1     -11.996  12.969  66.251  1.00  0.00    -0.477 C  
HETATM    8  C   UNL     1     -10.557  13.482  66.068  1.00  0.00    -0.285 C  
HETATM    9  H   UNL     1      -8.626  12.765  66.178  1.00  0.00     0.000 HD 
HETATM   10  C   UNL     1     -10.439  14.272  64.754  1.00  0.00    -0.421 C  
ENDBRANCH   4   5
ENDBRANCH   1   4
BRANCH   1  11
HETATM   11  C   UNL     1      -8.654   9.035  65.465  1.00  0.00    -0.168 C  
BRANCH  11  12
HETATM   12  O   UNL     1      -8.628   8.125  66.569  1.00  0.00    -0.127 OA 
BRANCH  12  13
HETATM   13  C   UNL     1      -8.669   6.806  66.234  1.00  0.00    -0.146 A  
HETATM   14  N   UNL     1      -8.360   6.431  64.991  1.00  0.00    -0.122 NA 
HETATM   15  S   UNL     1      -8.634   4.783  64.983  1.00  0.00    -0.147 SA 
HETATM   16  N   UNL     1      -9.161   4.551  66.547  1.00  0.00    -0.129 NA 
HETATM   17  C   UNL     1      -9.103   5.748  67.143  1.00  0.00    -0.112 A  
BRANCH  17  18
HETATM   18  N   UNL     1      -9.497   5.972  68.433  1.00  0.00    -0.119 NA 
HETATM   19  C   UNL     1     -10.509   6.962  68.805  1.00  0.00    -0.205 C  
HETATM   20  C   UNL     1     -11.394   6.358  69.907  1.00  0.00    -0.434 C  
HETATM   21  O   UNL     1     -10.608   5.952  71.043  1.00  0.00    -0.228 OA 
HETATM   22  C   UNL     1      -9.611   4.987  70.655  1.00  0.00    -0.184 C  
HETATM   23  C   UNL     1      -8.672   5.541  69.567  1.00  0.00    -0.104 C  
ENDBRANCH  17  18
ENDBRANCH  12  13
ENDBRANCH  11  12
ENDBRANCH   1  11
TORSDOF 6
ENDMDL
MODEL      234
REMARK 921   NORMALIZED FREE ENERGY PREDICTED BY IDOCK:   -3.23 KCAL/MOL
REMARK 922        TOTAL FREE ENERGY PREDICTED BY IDOCK:   -5.15 KCAL/MOL
REMARK 923 INTER-LIGAND FREE ENERGY PREDICTED BY IDOCK:   -4.95 KCAL/MOL
REMARK 924 INTRA-LIGAND FREE ENERGY PREDICTED BY IDOCK:   -0.20 KCAL/MOL
REMARK 927      BINDING AFFINITY PREDICTED BY RF-SCORE:    0.00 PKD
ROOT
HETATM    1  C   UNL     1     -10.829  11.679  66.030  1.00  0.00    -0.289 C  
HETATM    2  H   UNL     1     -11.966  13.237  65.714  1.00  0.00     0.000 HD 
HETATM    3  O   UNL     1     -11.630  12.523  65.185  1.00  0.00    -0.325 OA 
ENDROOT
BRANCH   1   4
HETATM    4  C   UNL     1     -10.282  10.519  65.170  1.00  0.00    -0.288 C  
BRANCH   4   5
HETATM    5  N   UNL     1      -9.901   9.345  65.960  1.00  0.00    -0.288 NA 
HETATM    6  C   UNL     1      -8.426   7.511  66.531  1.00  0.00    -0.131 C  
HETATM    7  C   UNL     1      -7.432   9.715  65.922  1.00  0.00    -0.099 C  
HETATM    8  C   UNL     1      -8.592   8.749  65.625  1.00  0.00    -0.172 C  
HETATM    9  H   UNL     1     -10.632   8.636  65.905  1.00  0.00     0.000 HD 
HETATM   10  C   UNL     1      -8.530   8.284  64.160  1.00  0.00     0.021 C  
ENDBRANCH   4   5
ENDBRANCH   1   4
BRANCH   1  11
HETATM   11  C   UNL     1      -9.737  12.519  66.705  1.00  0.00    -0.234 C  
BRANCH  11  12
HETATM   12  O   UNL     1     -10.337  13.267  67.768  1.00  0.00    -0.226 OA 
BRANCH  12  13
HETATM   13  C   UNL     1     -10.064  14.600  67.764  1.00  0.00    -0.228 A  
HETATM   14  N   UNL     1      -9.255  15.107  66.832  1.00  0.00    -0.224 NA 
HETATM   15  S   UNL     1      -9.112  16.718  67.248  1.00  0.00    -0.224 SA 
HETATM   16  N   UNL     1     -10.058  16.768  68.618  1.00  0.00    -0.262 NA 
HETATM   17  C   UNL     1     -10.553  15.534  68.776  1.00  0.00    -0.242 A  
BRANCH  17  18
HETATM   18  N   UNL     1     -11.352  15.167  69.823  1.00  0.00    -0.266 NA 
HETATM   19  C   UNL     1     -12.254  14.014  69.781  1.00  0.00    -0.341 C  
HETATM   20  C   UNL     1     -12.191  13.301  71.142  1.00  0.00    -0.113 C  
HETATM   21  O   UNL     1     -12.528  14.198  72.217  1.00  0.00    -0.254 OA 
HETATM   22  C   UNL     1     -11.637  15.330  72.234  1.00  0.00    -0.435 C  
HETATM   23  C   UNL     1     -11.672  16.106  70.904  1.00  0.00    -0.334 C  
ENDBRANCH  17  18
ENDBRANCH  12  13
ENDBRANCH  11  12
ENDBRANCH   1  11
TORSDOF 6
ENDMDL
MODEL      235
REMARK 921   NORMALIZED FREE ENERGY PREDICTED BY IDOCK:   -3.22 KCAL/MOL
REMARK 922        TOTAL FREE ENERGY PREDICTED BY IDOCK:   -5.13 KCAL/MOL
REMARK 923 INTER-LIGAND FREE ENERGY PREDICTED BY IDOCK:   -4.55 KCAL/MOL
REMARK 924 INTRA-LIGAND FREE ENERGY PREDICTED BY IDOCK:   -0.59 KCAL/MOL
REMARK 927      BINDING AFFINITY PREDICTED BY RF-SCORE:    0.00 PKD
ROOT
HETATM    1  C   UNL     1     -11.271  15.016  67.641  1.00  0.00    -0.326 C  
HETATM    2  H   UNL     1     -11.141  13.447  66.483  1.00  0.00     0.000 HD 
HETATM    3  O   UNL     1     -11.754  13.758  67.138  1.00  0.00    -0.342 OA 
ENDROOT
BRANCH   1   4
HETATM    4  C   UNL     1     -12.267  15.522  68.706  1.00  0.00    -0.004 C  
BRANCH   4   5
HETATM    5  N   UNL     1     -11.715  15.513  70.064  1.00  0.00    -0.319 NA 
HETATM    6  C   UNL     1     -11.755  14.910  72.408  1.00  0.00    -0.320 C  
HETATM    7  C   UNL     1     -12.499  13.235  70.718  1.00  0.00    -0.403 C  
HETATM    8  C   UNL     1     -12.481  14.735  71.059  1.00  0.00    -0.330 C  
HETATM    9  H   UNL     1     -11.585  16.469  70.393  1.00  0.00     0.000 HD 
HETATM   10  C   UNL     1     -13.919  15.260  71.215  1.00  0.00    -0.548 C  
ENDBRANCH   4   5
ENDBRANCH   1   4
BRANCH   1  11
HETATM   11  C   UNL     1      -9.839  14.843  68.163  1.00  0.00    -0.218 C  
BRANCH  11  12
HETATM   12  O   UNL     1      -9.674  13.485  68.584  1.00  0.00    -0.196 OA 
BRANCH  12  13
HETATM   13  C   UNL     1      -8.830  12.740  67.819  1.00  0.00    -0.187 A  
HETATM   14  N   UNL     1      -9.325  11.800  67.012  1.00  0.00    -0.180 NA 
HETATM   15  S   UNL     1      -7.972  11.074  66.355  1.00  0.00    -0.144 SA 
HETATM   16  N   UNL     1      -6.762  11.937  67.107  1.00  0.00    -0.141 NA 
HETATM   17  C   UNL     1      -7.374  12.852  67.869  1.00  0.00    -0.127 A  
BRANCH  17  18
HETATM   18  N   UNL     1      -6.709  13.731  68.677  1.00  0.00    -0.092 NA 
HETATM   19  C   UNL     1      -6.433  15.120  68.301  1.00  0.00    -0.114 C  
HETATM   20  C   UNL     1      -6.650  16.008  69.538  1.00  0.00    -0.201 C  
HETATM   21  O   UNL     1      -5.823  15.583  70.637  1.00  0.00    -0.110 OA 
HETATM   22  C   UNL     1      -6.100  14.213  70.984  1.00  0.00    -0.123 C  
HETATM   23  C   UNL     1      -5.876  13.263  69.791  1.00  0.00    -0.122 C  
ENDBRANCH  17  18
ENDBRANCH  12  13
ENDBRANCH  11  12
ENDBRANCH   1  11
TORSDOF 6
ENDMDL
MODEL      236
REMARK 921   NORMALIZED FREE ENERGY PREDICTED BY IDOCK:   -3.22 KCAL/MOL
REMARK 922        TOTAL FREE ENERGY PREDICTED BY IDOCK:   -5.13 KCAL/MOL
REMARK 923 INTER-LIGAND FREE ENERGY PREDICTED BY IDOCK:   -4.41 KCAL/MOL
REMARK 924 INTRA-LIGAND FREE ENERGY PREDICTED BY IDOCK:   -0.72 KCAL/MOL
REMARK 927      BINDING AFFINITY PREDICTED BY RF-SCORE:    0.00 PKD
ROOT
HETATM    1  C   UNL     1     -10.773   5.854  68.911  1.00  0.00    -0.300 C  
HETATM    2  H   UNL     1      -9.509   4.365  68.860  1.00  0.00     0.000 HD 
HETATM    3  O   UNL     1     -10.038   4.783  69.528  1.00  0.00    -0.226 OA 
ENDROOT
BRANCH   1   4
HETATM    4  C   UNL     1     -11.633   6.535  69.997  1.00  0.00    -0.390 C  
BRANCH   4   5
HETATM    5  N   UNL     1     -11.019   6.498  71.328  1.00  0.00    -0.251 NA 
HETATM    6  C   UNL     1     -10.236   7.527  73.375  1.00  0.00    -0.399 C  
HETATM    7  C   UNL     1     -12.366   8.329  72.359  1.00  0.00    -0.385 C  
HETATM    8  C   UNL     1     -10.961   7.791  72.039  1.00  0.00    -0.257 C  
HETATM    9  H   UNL     1     -10.086   6.090  71.269  1.00  0.00     0.000 HD 
HETATM   10  C   UNL     1     -10.157   8.843  71.256  1.00  0.00    -0.365 C  
ENDBRANCH   4   5
ENDBRANCH   1   4
BRANCH   1  11
HETATM   11  C   UNL     1      -9.797   6.805  68.206  1.00  0.00    -0.142 C  
BRANCH  11  12
HETATM   12  O   UNL     1     -10.506   7.489  67.168  1.00  0.00    -0.278 OA 
BRANCH  12  13
HETATM   13  C   UNL     1     -10.102   8.768  66.936  1.00  0.00    -0.278 A  
HETATM   14  N   UNL     1     -10.872   9.785  67.327  1.00  0.00    -0.237 NA 
HETATM   15  S   UNL     1     -10.072  11.140  66.767  1.00  0.00    -0.225 SA 
HETATM   16  N   UNL     1      -8.763  10.436  66.014  1.00  0.00    -0.147 NA 
HETATM   17  C   UNL     1      -8.884   9.117  66.209  1.00  0.00    -0.148 A  
BRANCH  17  18
HETATM   18  N   UNL     1      -8.014   8.194  65.701  1.00  0.00    -0.102 NA 
HETATM   19  C   UNL     1      -6.677   7.960  66.253  1.00  0.00    -0.054 C  
HETATM   20  C   UNL     1      -6.409   6.446  66.244  1.00  0.00    -0.042 C  
HETATM   21  O   UNL     1      -6.537   5.900  64.918  1.00  0.00    -0.040 OA 
HETATM   22  C   UNL     1      -7.854   6.151  64.389  1.00  0.00    -0.114 C  
HETATM   23  C   UNL     1      -8.176   7.656  64.346  1.00  0.00    -0.028 C  
ENDBRANCH  17  18
ENDBRANCH  12  13
ENDBRANCH  11  12
ENDBRANCH   1  11
TORSDOF 6
ENDMDL
MODEL      237
REMARK 921   NORMALIZED FREE ENERGY PREDICTED BY IDOCK:   -3.20 KCAL/MOL
REMARK 922        TOTAL FREE ENERGY PREDICTED BY IDOCK:   -5.11 KCAL/MOL
REMARK 923 INTER-LIGAND FREE ENERGY PREDICTED BY IDOCK:   -4.05 KCAL/MOL
REMARK 924 INTRA-LIGAND FREE ENERGY PREDICTED BY IDOCK:   -1.07 KCAL/MOL
REMARK 927      BINDING AFFINITY PREDICTED BY RF-SCORE:    0.00 PKD
ROOT
HETATM    1  C   UNL     1      -7.084   8.473  68.739  1.00  0.00    -0.067 C  
HETATM    2  H   UNL     1      -5.757   9.756  69.380  1.00  0.00     0.000 HD 
HETATM    3  O   UNL     1      -5.860   9.216  68.606  1.00  0.00    -0.041 OA 
ENDROOT
BRANCH   1   4
HETATM    4  C   UNL     1      -7.252   7.594  67.481  1.00  0.00    -0.087 C  
BRANCH   4   5
HETATM    5  N   UNL     1      -7.940   6.328  67.749  1.00  0.00    -0.112 NA 
HETATM    6  C   UNL     1      -9.699   4.706  67.380  1.00  0.00    -0.215 C  
HETATM    7  C   UNL     1      -8.703   5.873  65.416  1.00  0.00    -0.109 C  
HETATM    8  C   UNL     1      -9.108   6.043  66.890  1.00  0.00    -0.125 C  
HETATM    9  H   UNL     1      -8.210   6.279  68.731  1.00  0.00     0.000 HD 
HETATM   10  C   UNL     1     -10.194   7.125  67.019  1.00  0.00    -0.339 C  
ENDBRANCH   4   5
ENDBRANCH   1   4
BRANCH   1  11
HETATM   11  C   UNL     1      -7.062   7.680  70.052  1.00  0.00    -0.059 C  
BRANCH  11  12
HETATM   12  O   UNL     1      -8.152   8.125  70.865  1.00  0.00    -0.090 OA 
BRANCH  12  13
HETATM   13  C   UNL     1      -9.245   7.314  70.866  1.00  0.00    -0.155 A  
HETATM   14  N   UNL     1      -9.087   5.994  70.975  1.00  0.00    -0.143 NA 
HETATM   15  S   UNL     1     -10.635   5.385  70.831  1.00  0.00    -0.170 SA 
HETATM   16  N   UNL     1     -11.501   6.792  70.611  1.00  0.00    -0.329 NA 
HETATM   17  C   UNL     1     -10.613   7.791  70.683  1.00  0.00    -0.222 A  
BRANCH  17  18
HETATM   18  N   UNL     1     -10.940   9.107  70.510  1.00  0.00    -0.245 NA 
HETATM   19  C   UNL     1     -10.352   9.952  69.469  1.00  0.00    -0.229 C  
HETATM   20  C   UNL     1     -11.461  10.843  68.886  1.00  0.00    -0.300 C  
HETATM   21  O   UNL     1     -12.092  11.631  69.913  1.00  0.00    -0.307 OA 
HETATM   22  C   UNL     1     -12.653  10.783  70.933  1.00  0.00    -0.401 C  
HETATM   23  C   UNL     1     -11.585   9.880  71.578  1.00  0.00    -0.301 C  
ENDBRANCH  17  18
ENDBRANCH  12  13
ENDBRANCH  11  12
ENDBRANCH   1  11
TORSDOF 6
ENDMDL
MODEL      238
REMARK 921   NORMALIZED FREE ENERGY PREDICTED BY IDOCK:   -3.20 KCAL/MOL
REMARK 922        TOTAL FREE ENERGY PREDICTED BY IDOCK:   -5.11 KCAL/MOL
REMARK 923 INTER-LIGAND FREE ENERGY PREDICTED BY IDOCK:   -4.31 KCAL/MOL
REMARK 924 INTRA-LIGAND FREE ENERGY PREDICTED BY IDOCK:   -0.80 KCAL/MOL
REMARK 927      BINDING AFFINITY PREDICTED BY RF-SCORE:    0.00 PKD
ROOT
HETATM    1  C   UNL     1     -10.049   7.103  67.778  1.00  0.00    -0.172 C  
HETATM    2  H   UNL     1      -9.224   5.347  67.547  1.00  0.00     0.000 HD 
HETATM    3  O   UNL     1      -9.413   6.087  66.983  1.00  0.00    -0.120 OA 
ENDROOT
BRANCH   1   4
HETATM    4  C   UNL     1     -10.357   8.307  66.862  1.00  0.00    -0.320 C  
BRANCH   4   5
HETATM    5  N   UNL     1      -9.494   8.367  65.678  1.00  0.00    -0.438 NA 
HETATM    6  C   UNL     1      -8.220   9.548  63.992  1.00  0.00    -0.160 C  
HETATM    7  C   UNL     1      -8.171  10.377  66.343  1.00  0.00    -0.141 C  
HETATM    8  C   UNL     1      -9.061   9.720  65.274  1.00  0.00    -0.211 C  
HETATM    9  H   UNL     1      -9.945   7.896  64.894  1.00  0.00     0.000 HD 
HETATM   10  C   UNL     1     -10.256  10.632  64.946  1.00  0.00    -0.395 C  
ENDBRANCH   4   5
ENDBRANCH   1   4
BRANCH   1  11
HETATM   11  C   UNL     1     -11.288   6.514  68.465  1.00  0.00    -0.082 C  
BRANCH  11  12
HETATM   12  O   UNL     1     -10.899   6.027  69.753  1.00  0.00    -0.294 OA 
BRANCH  12  13
HETATM   13  C   UNL     1     -11.177   6.857  70.795  1.00  0.00    -0.294 A  
HETATM   14  N   UNL     1     -12.438   7.227  71.026  1.00  0.00    -0.317 NA 
HETATM   15  S   UNL     1     -12.320   8.302  72.300  1.00  0.00    -0.335 SA 
HETATM   16  N   UNL     1     -10.671   8.311  72.544  1.00  0.00    -0.344 NA 
HETATM   17  C   UNL     1     -10.158   7.442  71.663  1.00  0.00    -0.183 A  
BRANCH  17  18
HETATM   18  N   UNL     1      -8.819   7.202  71.530  1.00  0.00    -0.127 NA 
HETATM   19  C   UNL     1      -8.098   6.203  72.322  1.00  0.00    -0.109 C  
HETATM   20  C   UNL     1      -7.097   5.487  71.400  1.00  0.00    -0.071 C  
HETATM   21  O   UNL     1      -6.195   6.423  70.781  1.00  0.00    -0.037 OA 
HETATM   22  C   UNL     1      -6.924   7.404  70.017  1.00  0.00    -0.060 C  
HETATM   23  C   UNL     1      -7.929   8.178  70.890  1.00  0.00    -0.096 C  
ENDBRANCH  17  18
ENDBRANCH  12  13
ENDBRANCH  11  12
ENDBRANCH   1  11
TORSDOF 6
ENDMDL
MODEL      239
REMARK 921   NORMALIZED FREE ENERGY PREDICTED BY IDOCK:   -3.18 KCAL/MOL
REMARK 922        TOTAL FREE ENERGY PREDICTED BY IDOCK:   -5.08 KCAL/MOL
REMARK 923 INTER-LIGAND FREE ENERGY PREDICTED BY IDOCK:   -4.46 KCAL/MOL
REMARK 924 INTRA-LIGAND FREE ENERGY PREDICTED BY IDOCK:   -0.62 KCAL/MOL
REMARK 927      BINDING AFFINITY PREDICTED BY RF-SCORE:    0.00 PKD
ROOT
HETATM    1  C   UNL     1     -10.131   9.306  68.808  1.00  0.00    -0.195 C  
HETATM    2  H   UNL     1     -10.889  11.105  68.893  1.00  0.00     0.000 HD 
HETATM    3  O   UNL     1     -11.055  10.277  69.328  1.00  0.00    -0.227 OA 
ENDROOT
BRANCH   1   4
HETATM    4  C   UNL     1     -10.400   7.960  69.514  1.00  0.00    -0.217 C  
BRANCH   4   5
HETATM    5  N   UNL     1     -11.780   7.823  69.989  1.00  0.00    -0.456 NA 
HETATM    6  C   UNL     1     -13.456   7.092  71.576  1.00  0.00    -0.411 C  
HETATM    7  C   UNL     1     -11.302   8.011  72.432  1.00  0.00    -0.443 C  
HETATM    8  C   UNL     1     -11.939   7.176  71.308  1.00  0.00    -0.337 C  
HETATM    9  H   UNL     1     -12.343   7.336  69.292  1.00  0.00     0.000 HD 
HETATM   10  C   UNL     1     -11.368   5.748  71.320  1.00  0.00    -0.154 C  
ENDBRANCH   4   5
ENDBRANCH   1   4
BRANCH   1  11
HETATM   11  C   UNL     1     -10.260   9.242  67.281  1.00  0.00    -0.252 C  
BRANCH  11  12
HETATM   12  O   UNL     1      -9.238  10.064  66.708  1.00  0.00    -0.144 OA 
BRANCH  12  13
HETATM   13  C   UNL     1      -9.290  10.194  65.354  1.00  0.00    -0.216 A  
HETATM   14  N   UNL     1     -10.067  11.132  64.810  1.00  0.00    -0.273 NA 
HETATM   15  S   UNL     1      -9.918  10.881  63.165  1.00  0.00    -0.265 SA 
HETATM   16  N   UNL     1      -8.884   9.574  63.145  1.00  0.00    -0.236 NA 
HETATM   17  C   UNL     1      -8.588   9.313  64.424  1.00  0.00    -0.195 A  
BRANCH  17  18
HETATM   18  N   UNL     1      -7.790   8.276  64.820  1.00  0.00    -0.121 NA 
HETATM   19  C   UNL     1      -6.369   8.178  64.478  1.00  0.00    -0.064 C  
HETATM   20  C   UNL     1      -5.611   7.652  65.709  1.00  0.00    -0.033 C  
HETATM   21  O   UNL     1      -6.139   6.386  66.145  1.00  0.00    -0.031 OA 
HETATM   22  C   UNL     1      -7.539   6.500  66.465  1.00  0.00    -0.090 C  
HETATM   23  C   UNL     1      -8.362   6.999  65.262  1.00  0.00    -0.096 C  
ENDBRANCH  17  18
ENDBRANCH  12  13
ENDBRANCH  11  12
ENDBRANCH   1  11
TORSDOF 6
ENDMDL
MODEL      240
REMARK 921   NORMALIZED FREE ENERGY PREDICTED BY IDOCK:   -3.15 KCAL/MOL
REMARK 922        TOTAL FREE ENERGY PREDICTED BY IDOCK:   -5.03 KCAL/MOL
REMARK 923 INTER-LIGAND FREE ENERGY PREDICTED BY IDOCK:   -4.71 KCAL/MOL
REMARK 924 INTRA-LIGAND FREE ENERGY PREDICTED BY IDOCK:   -0.33 KCAL/MOL
REMARK 927      BINDING AFFINITY PREDICTED BY RF-SCORE:    0.00 PKD
ROOT
HETATM    1  C   UNL     1      -7.309  10.807  68.128  1.00  0.00    -0.088 C  
HETATM    2  H   UNL     1      -6.631  11.283  69.898  1.00  0.00     0.000 HD 
HETATM    3  O   UNL     1      -7.308  10.707  69.563  1.00  0.00    -0.127 OA 
ENDROOT
BRANCH   1   4
HETATM    4  C   UNL     1      -8.410   9.872  67.583  1.00  0.00    -0.114 C  
BRANCH   4   5
HETATM    5  N   UNL     1      -8.348   8.518  68.143  1.00  0.00    -0.126 NA 
HETATM    6  C   UNL     1      -9.348   6.488  69.002  1.00  0.00    -0.128 C  
HETATM    7  C   UNL     1     -10.401   7.618  67.045  1.00  0.00    -0.400 C  
HETATM    8  C   UNL     1      -9.651   7.860  68.367  1.00  0.00    -0.150 C  
HETATM    9  H   UNL     1      -7.806   8.524  69.007  1.00  0.00     0.000 HD 
HETATM   10  C   UNL     1     -10.537   8.656  69.340  1.00  0.00    -0.207 C  
ENDBRANCH   4   5
ENDBRANCH   1   4
BRANCH   1  11
HETATM   11  C   UNL     1      -7.483  12.275  67.717  1.00  0.00    -0.126 C  
BRANCH  11  12
HETATM   12  O   UNL     1      -8.263  12.934  68.719  1.00  0.00    -0.035 OA 
BRANCH  12  13
HETATM   13  C   UNL     1      -8.471  14.263  68.512  1.00  0.00    -0.164 A  
HETATM   14  N   UNL     1      -7.584  15.149  68.969  1.00  0.00    -0.148 NA 
HETATM   15  S   UNL     1      -8.261  16.630  68.598  1.00  0.00    -0.254 SA 
HETATM   16  N   UNL     1      -9.684  16.148  67.878  1.00  0.00    -0.224 NA 
HETATM   17  C   UNL     1      -9.661  14.809  67.865  1.00  0.00    -0.211 A  
BRANCH  17  18
HETATM   18  N   UNL     1     -10.683  14.039  67.384  1.00  0.00    -0.281 NA 
HETATM   19  C   UNL     1     -11.732  14.554  66.501  1.00  0.00    -0.368 C  
HETATM   20  C   UNL     1     -12.028  13.490  65.431  1.00  0.00    -0.379 C  
HETATM   21  O   UNL     1     -12.409  12.238  66.031  1.00  0.00    -0.609 OA 
HETATM   22  C   UNL     1     -11.370  11.754  66.904  1.00  0.00    -0.320 C  
HETATM   23  C   UNL     1     -11.043  12.766  68.019  1.00  0.00    -0.250 C  
ENDBRANCH  17  18
ENDBRANCH  12  13
ENDBRANCH  11  12
ENDBRANCH   1  11
TORSDOF 6
ENDMDL
MODEL      241
REMARK 921   NORMALIZED FREE ENERGY PREDICTED BY IDOCK:   -3.14 KCAL/MOL
REMARK 922        TOTAL FREE ENERGY PREDICTED BY IDOCK:   -5.03 KCAL/MOL
REMARK 923 INTER-LIGAND FREE ENERGY PREDICTED BY IDOCK:   -4.38 KCAL/MOL
REMARK 924 INTRA-LIGAND FREE ENERGY PREDICTED BY IDOCK:   -0.65 KCAL/MOL
REMARK 927      BINDING AFFINITY PREDICTED BY RF-SCORE:    0.00 PKD
ROOT
HETATM    1  C   UNL     1     -10.163   8.511  67.906  1.00  0.00    -0.218 C  
HETATM    2  H   UNL     1      -9.721   8.997  69.747  1.00  0.00     0.000 HD 
HETATM    3  O   UNL     1      -9.699   9.435  68.905  1.00  0.00    -0.158 OA 
ENDROOT
BRANCH   1   4
HETATM    4  C   UNL     1     -10.128   9.224  66.537  1.00  0.00    -0.273 C  
BRANCH   4   5
HETATM    5  N   UNL     1      -8.816   9.794  66.218  1.00  0.00    -0.144 NA 
HETATM    6  C   UNL     1      -6.979  10.280  64.717  1.00  0.00    -0.093 C  
HETATM    7  C   UNL     1      -9.315  10.456  63.863  1.00  0.00    -0.322 C  
HETATM    8  C   UNL     1      -8.392   9.667  64.809  1.00  0.00    -0.151 C  
HETATM    9  H   UNL     1      -8.105   9.399  66.833  1.00  0.00     0.000 HD 
HETATM   10  C   UNL     1      -8.309   8.198  64.364  1.00  0.00    -0.050 C  
ENDBRANCH   4   5
ENDBRANCH   1   4
BRANCH   1  11
HETATM   11  C   UNL     1      -9.319   7.231  67.962  1.00  0.00    -0.130 C  
BRANCH  11  12
HETATM   12  O   UNL     1     -10.206   6.109  68.013  1.00  0.00    -0.144 OA 
BRANCH  12  13
HETATM   13  C   UNL     1      -9.872   5.147  68.916  1.00  0.00    -0.172 A  
HETATM   14  N   UNL     1      -9.286   4.024  68.499  1.00  0.00    -0.138 NA 
HETATM   15  S   UNL     1      -9.149   3.098  69.883  1.00  0.00    -0.140 SA 
HETATM   16  N   UNL     1      -9.849   4.113  71.004  1.00  0.00    -0.190 NA 
HETATM   17  C   UNL     1     -10.179   5.229  70.342  1.00  0.00    -0.268 A  
BRANCH  17  18
HETATM   18  N   UNL     1     -10.817   6.291  70.920  1.00  0.00    -0.258 NA 
HETATM   19  C   UNL     1     -12.149   6.747  70.514  1.00  0.00    -0.274 C  
HETATM   20  C   UNL     1     -12.937   7.125  71.779  1.00  0.00    -0.325 C  
HETATM   21  O   UNL     1     -12.244   8.128  72.546  1.00  0.00    -0.344 OA 
HETATM   22  C   UNL     1     -10.934   7.666  72.925  1.00  0.00    -0.400 C  
HETATM   23  C   UNL     1     -10.080   7.293  71.698  1.00  0.00    -0.184 C  
ENDBRANCH  17  18
ENDBRANCH  12  13
ENDBRANCH  11  12
ENDBRANCH   1  11
TORSDOF 6
ENDMDL
MODEL      242
REMARK 921   NORMALIZED FREE ENERGY PREDICTED BY IDOCK:   -3.14 KCAL/MOL
REMARK 922        TOTAL FREE ENERGY PREDICTED BY IDOCK:   -5.02 KCAL/MOL
REMARK 923 INTER-LIGAND FREE ENERGY PREDICTED BY IDOCK:   -4.25 KCAL/MOL
REMARK 924 INTRA-LIGAND FREE ENERGY PREDICTED BY IDOCK:   -0.77 KCAL/MOL
REMARK 927      BINDING AFFINITY PREDICTED BY RF-SCORE:    0.00 PKD
ROOT
HETATM    1  C   UNL     1      -7.195   8.941  68.239  1.00  0.00    -0.079 C  
HETATM    2  H   UNL     1      -5.820  10.174  68.879  1.00  0.00     0.000 HD 
HETATM    3  O   UNL     1      -6.027   9.760  68.050  1.00  0.00    -0.043 OA 
ENDROOT
BRANCH   1   4
HETATM    4  C   UNL     1      -7.532   8.268  66.891  1.00  0.00    -0.088 C  
BRANCH   4   5
HETATM    5  N   UNL     1      -8.476   9.041  66.079  1.00  0.00    -0.124 NA 
HETATM    6  C   UNL     1      -9.180  10.127  64.033  1.00  0.00    -0.315 C  
HETATM    7  C   UNL     1      -8.009   7.931  63.893  1.00  0.00    -0.121 C  
HETATM    8  C   UNL     1      -8.080   9.255  64.672  1.00  0.00    -0.136 C  
HETATM    9  H   UNL     1      -8.669   9.937  66.527  1.00  0.00     0.000 HD 
HETATM   10  C   UNL     1      -6.743  10.008  64.560  1.00  0.00    -0.128 C  
ENDBRANCH   4   5
ENDBRANCH   1   4
BRANCH   1  11
HETATM   11  C   UNL     1      -6.945   7.950  69.383  1.00  0.00    -0.059 C  
BRANCH  11  12
HETATM   12  O   UNL     1      -7.999   8.094  70.341  1.00  0.00    -0.094 OA 
BRANCH  12  13
HETATM   13  C   UNL     1      -9.037   7.227  70.195  1.00  0.00    -0.148 A  
HETATM   14  N   UNL     1      -8.792   5.928  70.011  1.00  0.00    -0.136 NA 
HETATM   15  S   UNL     1     -10.304   5.257  69.780  1.00  0.00    -0.265 SA 
HETATM   16  N   UNL     1     -11.265   6.614  69.894  1.00  0.00    -0.342 NA 
HETATM   17  C   UNL     1     -10.439   7.635  70.158  1.00  0.00    -0.227 A  
BRANCH  17  18
HETATM   18  N   UNL     1     -10.855   8.931  70.283  1.00  0.00    -0.235 NA 
HETATM   19  C   UNL     1     -10.481   9.991  69.344  1.00  0.00    -0.232 C  
HETATM   20  C   UNL     1     -11.711  10.881  69.105  1.00  0.00    -0.326 C  
HETATM   21  O   UNL     1     -12.212  11.423  70.342  1.00  0.00    -0.336 OA 
HETATM   22  C   UNL     1     -12.563  10.366  71.256  1.00  0.00    -0.419 C  
HETATM   23  C   UNL     1     -11.363   9.449  71.559  1.00  0.00    -0.394 C  
ENDBRANCH  17  18
ENDBRANCH  12  13
ENDBRANCH  11  12
ENDBRANCH   1  11
TORSDOF 6
ENDMDL
MODEL      243
REMARK 921   NORMALIZED FREE ENERGY PREDICTED BY IDOCK:   -3.08 KCAL/MOL
REMARK 922        TOTAL FREE ENERGY PREDICTED BY IDOCK:   -4.95 KCAL/MOL
REMARK 923 INTER-LIGAND FREE ENERGY PREDICTED BY IDOCK:   -4.07 KCAL/MOL
REMARK 924 INTRA-LIGAND FREE ENERGY PREDICTED BY IDOCK:   -0.88 KCAL/MOL
REMARK 927      BINDING AFFINITY PREDICTED BY RF-SCORE:    0.00 PKD
ROOT
HETATM    1  C   UNL     1     -10.180  10.434  66.151  1.00  0.00    -0.223 C  
HETATM    2  H   UNL     1      -9.486   9.307  64.713  1.00  0.00     0.000 HD 
HETATM    3  O   UNL     1     -10.139   9.992  64.783  1.00  0.00    -0.296 OA 
ENDROOT
BRANCH   1   4
HETATM    4  C   UNL     1     -11.243  11.548  66.264  1.00  0.00    -0.222 C  
BRANCH   4   5
HETATM    5  N   UNL     1     -10.716  12.882  65.963  1.00  0.00    -0.274 NA 
HETATM    6  C   UNL     1     -10.723  14.989  64.770  1.00  0.00    -0.354 C  
HETATM    7  C   UNL     1     -12.897  13.990  65.469  1.00  0.00    -0.453 C  
HETATM    8  C   UNL     1     -11.481  13.660  64.967  1.00  0.00    -0.327 C  
HETATM    9  H   UNL     1      -9.739  12.814  65.677  1.00  0.00     0.000 HD 
HETATM   10  C   UNL     1     -11.553  12.942  63.609  1.00  0.00    -0.547 C  
ENDBRANCH   4   5
ENDBRANCH   1   4
BRANCH   1  11
HETATM   11  C   UNL     1     -10.440   9.233  67.069  1.00  0.00    -0.233 C  
BRANCH  11  12
HETATM   12  O   UNL     1      -9.306   9.068  67.926  1.00  0.00    -0.140 OA 
BRANCH  12  13
HETATM   13  C   UNL     1      -8.219   8.491  67.344  1.00  0.00    -0.109 A  
HETATM   14  N   UNL     1      -8.321   7.268  66.821  1.00  0.00    -0.116 NA 
HETATM   15  S   UNL     1      -6.769   6.910  66.318  1.00  0.00    -0.054 SA 
HETATM   16  N   UNL     1      -5.967   8.295  66.780  1.00  0.00    -0.051 NA 
HETATM   17  C   UNL     1      -6.894   9.105  67.307  1.00  0.00    -0.077 A  
BRANCH  17  18
HETATM   18  N   UNL     1      -6.612  10.332  67.840  1.00  0.00    -0.062 NA 
HETATM   19  C   UNL     1      -6.837  11.590  67.125  1.00  0.00    -0.139 C  
HETATM   20  C   UNL     1      -7.396  12.619  68.121  1.00  0.00    -0.112 C  
HETATM   21  O   UNL     1      -6.508  12.798  69.240  1.00  0.00    -0.102 OA 
HETATM   22  C   UNL     1      -6.289  11.548  69.923  1.00  0.00    -0.136 C  
HETATM   23  C   UNL     1      -5.704  10.477  68.983  1.00  0.00    -0.040 C  
ENDBRANCH  17  18
ENDBRANCH  12  13
ENDBRANCH  11  12
ENDBRANCH   1  11
TORSDOF 6
ENDMDL
MODEL      244
REMARK 921   NORMALIZED FREE ENERGY PREDICTED BY IDOCK:   -3.08 KCAL/MOL
REMARK 922        TOTAL FREE ENERGY PREDICTED BY IDOCK:   -4.95 KCAL/MOL
REMARK 923 INTER-LIGAND FREE ENERGY PREDICTED BY IDOCK:   -4.13 KCAL/MOL
REMARK 924 INTRA-LIGAND FREE ENERGY PREDICTED BY IDOCK:   -0.82 KCAL/MOL
REMARK 927      BINDING AFFINITY PREDICTED BY RF-SCORE:    0.00 PKD
ROOT
HETATM    1  C   UNL     1     -11.150  15.092  67.645  1.00  0.00    -0.318 C  
HETATM    2  H   UNL     1     -11.196  13.714  66.260  1.00  0.00     0.000 HD 
HETATM    3  O   UNL     1     -11.811  14.056  66.898  1.00  0.00    -0.385 OA 
ENDROOT
BRANCH   1   4
HETATM    4  C   UNL     1     -12.149  15.648  68.683  1.00  0.00    -0.046 C  
BRANCH   4   5
HETATM    5  N   UNL     1     -11.586  15.744  70.032  1.00  0.00    -0.335 NA 
HETATM    6  C   UNL     1     -11.607  15.325  72.417  1.00  0.00    -0.515 C  
HETATM    7  C   UNL     1     -12.362  13.523  70.868  1.00  0.00    -0.437 C  
HETATM    8  C   UNL     1     -12.344  15.045  71.091  1.00  0.00    -0.327 C  
HETATM    9  H   UNL     1     -11.454  16.723  70.286  1.00  0.00     0.000 HD 
HETATM   10  C   UNL     1     -13.780  15.580  71.217  1.00  0.00    -0.482 C  
ENDBRANCH   4   5
ENDBRANCH   1   4
BRANCH   1  11
HETATM   11  C   UNL     1      -9.860  14.536  68.261  1.00  0.00    -0.229 C  
BRANCH  11  12
HETATM   12  O   UNL     1     -10.056  13.145  68.535  1.00  0.00    -0.238 OA 
BRANCH  12  13
HETATM   13  C   UNL     1      -9.163  12.306  67.941  1.00  0.00    -0.190 A  
HETATM   14  N   UNL     1      -8.186  12.810  67.186  1.00  0.00    -0.171 NA 
HETATM   15  S   UNL     1      -7.403  11.463  66.583  1.00  0.00    -0.063 SA 
HETATM   16  N   UNL     1      -8.314  10.245  67.263  1.00  0.00    -0.121 NA 
HETATM   17  C   UNL     1      -9.239  10.849  68.020  1.00  0.00    -0.156 A  
BRANCH  17  18
HETATM   18  N   UNL     1     -10.206  10.177  68.713  1.00  0.00    -0.177 NA 
HETATM   19  C   UNL     1      -9.911   9.170  69.734  1.00  0.00    -0.193 C  
HETATM   20  C   UNL     1     -10.899   9.357  70.897  1.00  0.00    -0.322 C  
HETATM   21  O   UNL     1     -12.263   9.267  70.444  1.00  0.00    -0.040 OA 
HETATM   22  C   UNL     1     -12.530  10.257  69.432  1.00  0.00     0.448 C  
HETATM   23  C   UNL     1     -11.588  10.108  68.222  1.00  0.00     0.165 C  
ENDBRANCH  17  18
ENDBRANCH  12  13
ENDBRANCH  11  12
ENDBRANCH   1  11
TORSDOF 6
ENDMDL
MODEL      245
REMARK 921   NORMALIZED FREE ENERGY PREDICTED BY IDOCK:   -3.08 KCAL/MOL
REMARK 922        TOTAL FREE ENERGY PREDICTED BY IDOCK:   -4.94 KCAL/MOL
REMARK 923 INTER-LIGAND FREE ENERGY PREDICTED BY IDOCK:   -4.36 KCAL/MOL
REMARK 924 INTRA-LIGAND FREE ENERGY PREDICTED BY IDOCK:   -0.58 KCAL/MOL
REMARK 927      BINDING AFFINITY PREDICTED BY RF-SCORE:    0.00 PKD
ROOT
HETATM    1  C   UNL     1      -7.903  10.920  68.463  1.00  0.00    -0.126 C  
HETATM    2  H   UNL     1      -6.655   9.422  68.327  1.00  0.00     0.000 HD 
HETATM    3  O   UNL     1      -7.150   9.951  67.713  1.00  0.00    -0.085 OA 
ENDROOT
BRANCH   1   4
HETATM    4  C   UNL     1      -8.708  11.780  67.465  1.00  0.00    -0.159 C  
BRANCH   4   5
HETATM    5  N   UNL     1      -9.733  12.605  68.111  1.00  0.00    -0.216 NA 
HETATM    6  C   UNL     1     -10.783  14.720  68.645  1.00  0.00    -0.253 C  
HETATM    7  C   UNL     1      -9.900  14.358  66.342  1.00  0.00    -0.309 C  
HETATM    8  C   UNL     1      -9.656  14.053  67.830  1.00  0.00    -0.216 C  
HETATM    9  H   UNL     1      -9.727  12.444  69.118  1.00  0.00     0.000 HD 
HETATM   10  C   UNL     1      -8.314  14.655  68.281  1.00  0.00    -0.148 C  
ENDBRANCH   4   5
ENDBRANCH   1   4
BRANCH   1  11
HETATM   11  C   UNL     1      -8.770  10.201  69.504  1.00  0.00    -0.174 C  
BRANCH  11  12
HETATM   12  O   UNL     1      -9.382   9.070  68.876  1.00  0.00    -0.142 OA 
BRANCH  12  13
HETATM   13  C   UNL     1     -10.358   8.461  69.603  1.00  0.00    -0.218 A  
HETATM   14  N   UNL     1     -10.936   9.115  70.612  1.00  0.00    -0.246 NA 
HETATM   15  S   UNL     1     -11.975   7.992  71.283  1.00  0.00    -0.285 SA 
HETATM   16  N   UNL     1     -11.677   6.674  70.308  1.00  0.00    -0.397 NA 
HETATM   17  C   UNL     1     -10.783   7.078  69.397  1.00  0.00    -0.238 A  
BRANCH  17  18
HETATM   18  N   UNL     1     -10.257   6.259  68.438  1.00  0.00    -0.156 NA 
HETATM   19  C   UNL     1      -9.103   5.388  68.668  1.00  0.00    -0.115 C  
HETATM   20  C   UNL     1      -9.364   4.044  67.968  1.00  0.00    -0.169 C  
HETATM   21  O   UNL     1      -9.615   4.228  66.562  1.00  0.00    -0.171 OA 
HETATM   22  C   UNL     1     -10.746   5.096  66.356  1.00  0.00    -0.210 C  
HETATM   23  C   UNL     1     -10.537   6.474  67.013  1.00  0.00    -0.332 C  
ENDBRANCH  17  18
ENDBRANCH  12  13
ENDBRANCH  11  12
ENDBRANCH   1  11
TORSDOF 6
ENDMDL
MODEL      246
REMARK 921   NORMALIZED FREE ENERGY PREDICTED BY IDOCK:   -3.07 KCAL/MOL
REMARK 922        TOTAL FREE ENERGY PREDICTED BY IDOCK:   -4.94 KCAL/MOL
REMARK 923 INTER-LIGAND FREE ENERGY PREDICTED BY IDOCK:   -4.16 KCAL/MOL
REMARK 924 INTRA-LIGAND FREE ENERGY PREDICTED BY IDOCK:   -0.77 KCAL/MOL
REMARK 927      BINDING AFFINITY PREDICTED BY RF-SCORE:    0.00 PKD
ROOT
HETATM    1  C   UNL     1      -9.907   7.856  67.793  1.00  0.00    -0.163 C  
HETATM    2  H   UNL     1     -10.049   5.955  67.365  1.00  0.00     0.000 HD 
HETATM    3  O   UNL     1     -10.214   6.768  66.904  1.00  0.00    -0.202 OA 
ENDROOT
BRANCH   1   4
HETATM    4  C   UNL     1     -10.175   9.179  67.043  1.00  0.00    -0.263 C  
BRANCH   4   5
HETATM    5  N   UNL     1      -9.911   9.092  65.604  1.00  0.00    -0.465 NA 
HETATM    6  C   UNL     1      -9.109   9.975  63.498  1.00  0.00    -0.303 C  
HETATM    7  C   UNL     1      -7.816  10.449  65.576  1.00  0.00    -0.152 C  
HETATM    8  C   UNL     1      -9.234  10.261  65.008  1.00  0.00    -0.213 C  
HETATM    9  H   UNL     1     -10.777   8.897  65.102  1.00  0.00     0.000 HD 
HETATM   10  C   UNL     1     -10.051  11.552  65.188  1.00  0.00    -0.313 C  
ENDBRANCH   4   5
ENDBRANCH   1   4
BRANCH   1  11
HETATM   11  C   UNL     1     -10.714   7.702  69.088  1.00  0.00    -0.141 C  
BRANCH  11  12
HETATM   12  O   UNL     1     -11.093   6.329  69.222  1.00  0.00    -0.332 OA 
BRANCH  12  13
HETATM   13  C   UNL     1     -10.722   5.736  70.389  1.00  0.00    -0.302 A  
HETATM   14  N   UNL     1     -11.305   6.104  71.531  1.00  0.00    -0.290 NA 
HETATM   15  S   UNL     1     -10.500   5.225  72.701  1.00  0.00    -0.229 SA 
HETATM   16  N   UNL     1      -9.402   4.394  71.762  1.00  0.00    -0.134 NA 
HETATM   17  C   UNL     1      -9.654   4.745  70.495  1.00  0.00    -0.187 A  
BRANCH  17  18
HETATM   18  N   UNL     1      -8.928   4.296  69.427  1.00  0.00    -0.093 NA 
HETATM   19  C   UNL     1      -7.782   5.021  68.872  1.00  0.00    -0.077 C  
HETATM   20  C   UNL     1      -6.692   3.998  68.511  1.00  0.00    -0.046 C  
HETATM   21  O   UNL     1      -7.190   3.008  67.591  1.00  0.00    -0.053 OA 
HETATM   22  C   UNL     1      -8.322   2.316  68.149  1.00  0.00    -0.063 C  
HETATM   23  C   UNL     1      -9.464   3.284  68.511  1.00  0.00    -0.139 C  
ENDBRANCH  17  18
ENDBRANCH  12  13
ENDBRANCH  11  12
ENDBRANCH   1  11
TORSDOF 6
ENDMDL
MODEL      247
REMARK 921   NORMALIZED FREE ENERGY PREDICTED BY IDOCK:   -3.04 KCAL/MOL
REMARK 922        TOTAL FREE ENERGY PREDICTED BY IDOCK:   -4.90 KCAL/MOL
REMARK 923 INTER-LIGAND FREE ENERGY PREDICTED BY IDOCK:   -4.30 KCAL/MOL
REMARK 924 INTRA-LIGAND FREE ENERGY PREDICTED BY IDOCK:   -0.60 KCAL/MOL
REMARK 927      BINDING AFFINITY PREDICTED BY RF-SCORE:    0.00 PKD
ROOT
HETATM    1  C   UNL     1     -11.370   7.632  69.741  1.00  0.00     0.065 C  
HETATM    2  H   UNL     1     -11.002   6.981  67.935  1.00  0.00     0.000 HD 
HETATM    3  O   UNL     1     -10.879   6.647  68.815  1.00  0.00    -0.241 OA 
ENDROOT
BRANCH   1   4
HETATM    4  C   UNL     1     -11.170   7.088  71.172  1.00  0.00    -0.270 C  
BRANCH   4   5
HETATM    5  N   UNL     1      -9.777   6.743  71.469  1.00  0.00    -0.164 NA 
HETATM    6  C   UNL     1      -8.057   5.316  72.401  1.00  0.00    -0.107 C  
HETATM    7  C   UNL     1     -10.003   4.267  71.248  1.00  0.00    -0.230 C  
HETATM    8  C   UNL     1      -9.572   5.443  72.141  1.00  0.00    -0.154 C  
HETATM    9  H   UNL     1      -9.342   7.488  72.012  1.00  0.00     0.000 HD 
HETATM   10  C   UNL     1     -10.300   5.375  73.494  1.00  0.00    -0.253 C  
ENDBRANCH   4   5
ENDBRANCH   1   4
BRANCH   1  11
HETATM   11  C   UNL     1     -10.668   8.972  69.482  1.00  0.00    -0.206 C  
BRANCH  11  12
HETATM   12  O   UNL     1     -10.679   9.221  68.073  1.00  0.00    -0.232 OA 
BRANCH  12  13
HETATM   13  C   UNL     1     -10.832  10.525  67.717  1.00  0.00    -0.294 A  
HETATM   14  N   UNL     1     -11.798  11.255  68.277  1.00  0.00    -0.578 NA 
HETATM   15  S   UNL     1     -11.700  12.729  67.499  1.00  0.00    -0.348 SA 
HETATM   16  N   UNL     1     -10.447  12.435  66.439  1.00  0.00    -0.240 NA 
HETATM   17  C   UNL     1     -10.034  11.186  66.686  1.00  0.00    -0.207 A  
BRANCH  17  18
HETATM   18  N   UNL     1      -9.039  10.565  65.985  1.00  0.00    -0.163 NA 
HETATM   19  C   UNL     1      -7.769  10.150  66.586  1.00  0.00    -0.106 C  
HETATM   20  C   UNL     1      -7.388   8.776  66.010  1.00  0.00    -0.089 C  
HETATM   21  O   UNL     1      -7.305   8.818  64.573  1.00  0.00    -0.097 OA 
HETATM   22  C   UNL     1      -8.559   9.239  64.001  1.00  0.00    -0.186 C  
HETATM   23  C   UNL     1      -8.987  10.625  64.519  1.00  0.00    -0.196 C  
ENDBRANCH  17  18
ENDBRANCH  12  13
ENDBRANCH  11  12
ENDBRANCH   1  11
TORSDOF 6
ENDMDL
MODEL      248
REMARK 921   NORMALIZED FREE ENERGY PREDICTED BY IDOCK:   -3.03 KCAL/MOL
REMARK 922        TOTAL FREE ENERGY PREDICTED BY IDOCK:   -4.87 KCAL/MOL
REMARK 923 INTER-LIGAND FREE ENERGY PREDICTED BY IDOCK:   -4.58 KCAL/MOL
REMARK 924 INTRA-LIGAND FREE ENERGY PREDICTED BY IDOCK:   -0.30 KCAL/MOL
REMARK 927      BINDING AFFINITY PREDICTED BY RF-SCORE:    0.00 PKD
ROOT
HETATM    1  C   UNL     1     -10.901  10.922  69.333  1.00  0.00    -0.240 C  
HETATM    2  H   UNL     1     -11.600  12.614  70.017  1.00  0.00     0.000 HD 
HETATM    3  O   UNL     1     -11.577  11.716  70.323  1.00  0.00    -0.280 OA 
ENDROOT
BRANCH   1   4
HETATM    4  C   UNL     1     -10.864   9.461  69.832  1.00  0.00    -0.236 C  
BRANCH   4   5
HETATM    5  N   UNL     1     -12.151   8.999  70.360  1.00  0.00    -0.465 NA 
HETATM    6  C   UNL     1     -13.545   7.477  71.625  1.00  0.00    -0.442 C  
HETATM    7  C   UNL     1     -11.307   8.098  72.529  1.00  0.00    -0.469 C  
HETATM    8  C   UNL     1     -12.090   7.812  71.237  1.00  0.00    -0.306 C  
HETATM    9  H   UNL     1     -12.803   8.833  69.593  1.00  0.00     0.000 HD 
HETATM   10  C   UNL     1     -11.492   6.593  70.514  1.00  0.00    -0.432 C  
ENDBRANCH   4   5
ENDBRANCH   1   4
BRANCH   1  11
HETATM   11  C   UNL     1     -11.593  11.097  67.976  1.00  0.00    -0.263 C  
BRANCH  11  12
HETATM   12  O   UNL     1     -10.651  10.785  66.946  1.00  0.00    -0.241 OA 
BRANCH  12  13
HETATM   13  C   UNL     1      -9.468  11.453  67.020  1.00  0.00    -0.173 A  
HETATM   14  N   UNL     1      -9.448  12.713  67.458  1.00  0.00    -0.181 NA 
HETATM   15  S   UNL     1      -7.851  13.176  67.294  1.00  0.00    -0.063 SA 
HETATM   16  N   UNL     1      -7.192  11.787  66.652  1.00  0.00    -0.040 NA 
HETATM   17  C   UNL     1      -8.190  10.898  66.580  1.00  0.00    -0.145 A  
BRANCH  17  18
HETATM   18  N   UNL     1      -8.048   9.640  66.064  1.00  0.00    -0.111 NA 
HETATM   19  C   UNL     1      -8.367   9.300  64.676  1.00  0.00    -0.161 C  
HETATM   20  C   UNL     1      -7.290   8.335  64.155  1.00  0.00    -0.098 C  
HETATM   21  O   UNL     1      -7.198   7.159  64.981  1.00  0.00    -0.067 OA 
HETATM   22  C   UNL     1      -6.895   7.515  66.343  1.00  0.00    -0.061 C  
HETATM   23  C   UNL     1      -7.954   8.464  66.936  1.00  0.00    -0.099 C  
ENDBRANCH  17  18
ENDBRANCH  12  13
ENDBRANCH  11  12
ENDBRANCH   1  11
TORSDOF 6
ENDMDL
MODEL      249
REMARK 921   NORMALIZED FREE ENERGY PREDICTED BY IDOCK:   -3.02 KCAL/MOL
REMARK 922        TOTAL FREE ENERGY PREDICTED BY IDOCK:   -4.86 KCAL/MOL
REMARK 923 INTER-LIGAND FREE ENERGY PREDICTED BY IDOCK:   -4.27 KCAL/MOL
REMARK 924 INTRA-LIGAND FREE ENERGY PREDICTED BY IDOCK:   -0.59 KCAL/MOL
REMARK 927      BINDING AFFINITY PREDICTED BY RF-SCORE:    0.00 PKD
ROOT
HETATM    1  C   UNL     1     -10.115  10.375  67.708  1.00  0.00    -0.181 C  
HETATM    2  H   UNL     1     -11.461   9.358  68.693  1.00  0.00     0.000 HD 
HETATM    3  O   UNL     1     -11.439  10.191  68.239  1.00  0.00    -0.186 OA 
ENDROOT
BRANCH   1   4
HETATM    4  C   UNL     1     -10.077  11.731  66.969  1.00  0.00    -0.209 C  
BRANCH   4   5
HETATM    5  N   UNL     1     -11.205  11.920  66.053  1.00  0.00    -0.329 NA 
HETATM    6  C   UNL     1     -12.751  13.284  64.784  1.00  0.00    -0.338 C  
HETATM    7  C   UNL     1     -10.361  13.979  64.921  1.00  0.00    -0.434 C  
HETATM    8  C   UNL     1     -11.512  13.322  65.702  1.00  0.00    -0.318 C  
HETATM    9  H   UNL     1     -12.037  11.463  66.425  1.00  0.00     0.000 HD 
HETATM   10  C   UNL     1     -11.859  14.162  66.943  1.00  0.00    -0.458 C  
ENDBRANCH   4   5
ENDBRANCH   1   4
BRANCH   1  11
HETATM   11  C   UNL     1      -9.088  10.257  68.841  1.00  0.00    -0.168 C  
BRANCH  11  12
HETATM   12  O   UNL     1      -9.532   9.243  69.747  1.00  0.00    -0.169 OA 
BRANCH  12  13
HETATM   13  C   UNL     1      -8.541   8.551  70.374  1.00  0.00    -0.143 A  
HETATM   14  N   UNL     1      -7.910   9.099  71.414  1.00  0.00    -0.340 NA 
HETATM   15  S   UNL     1      -6.729   7.985  71.807  1.00  0.00    -0.063 SA 
HETATM   16  N   UNL     1      -7.007   6.820  70.648  1.00  0.00    -0.062 NA 
HETATM   17  C   UNL     1      -8.060   7.243  69.938  1.00  0.00    -0.127 A  
BRANCH  17  18
HETATM   18  N   UNL     1      -8.568   6.569  68.863  1.00  0.00    -0.124 NA 
HETATM   19  C   UNL     1      -8.103   6.776  67.490  1.00  0.00    -0.115 C  
HETATM   20  C   UNL     1      -8.031   5.407  66.793  1.00  0.00    -0.101 C  
HETATM   21  O   UNL     1      -9.305   4.737  66.824  1.00  0.00    -0.128 OA 
HETATM   22  C   UNL     1      -9.751   4.554  68.182  1.00  0.00    -0.127 C  
HETATM   23  C   UNL     1      -9.870   5.894  68.931  1.00  0.00    -0.145 C  
ENDBRANCH  17  18
ENDBRANCH  12  13
ENDBRANCH  11  12
ENDBRANCH   1  11
TORSDOF 6
ENDMDL
MODEL      250
REMARK 921   NORMALIZED FREE ENERGY PREDICTED BY IDOCK:   -2.99 KCAL/MOL
REMARK 922        TOTAL FREE ENERGY PREDICTED BY IDOCK:   -4.83 KCAL/MOL
REMARK 923 INTER-LIGAND FREE ENERGY PREDICTED BY IDOCK:   -4.56 KCAL/MOL
REMARK 924 INTRA-LIGAND FREE ENERGY PREDICTED BY IDOCK:   -0.26 KCAL/MOL
REMARK 927      BINDING AFFINITY PREDICTED BY RF-SCORE:    0.00 PKD
ROOT
HETATM    1  C   UNL     1      -9.653  11.828  67.826  1.00  0.00    -0.184 C  
HETATM    2  H   UNL     1     -10.347  11.342  69.587  1.00  0.00     0.000 HD 
HETATM    3  O   UNL     1     -10.612  11.933  68.892  1.00  0.00    -0.217 OA 
ENDROOT
BRANCH   1   4
HETATM    4  C   UNL     1     -10.084  12.787  66.696  1.00  0.00    -0.243 C  
BRANCH   4   5
HETATM    5  N   UNL     1      -9.131  13.877  66.469  1.00  0.00    -0.446 NA 
HETATM    6  C   UNL     1      -8.554  16.197  66.087  1.00  0.00    -0.331 C  
HETATM    7  C   UNL     1     -10.374  15.657  67.703  1.00  0.00    -0.275 C  
HETATM    8  C   UNL     1      -9.719  15.229  66.378  1.00  0.00    -0.285 C  
HETATM    9  H   UNL     1      -8.571  13.684  65.639  1.00  0.00     0.000 HD 
HETATM   10  C   UNL     1     -10.734  15.338  65.227  1.00  0.00    -0.433 C  
ENDBRANCH   4   5
ENDBRANCH   1   4
BRANCH   1  11
HETATM   11  C   UNL     1      -8.247  12.105  68.373  1.00  0.00    -0.145 C  
BRANCH  11  12
HETATM   12  O   UNL     1      -7.496  10.888  68.321  1.00  0.00    -0.086 OA 
BRANCH  12  13
HETATM   13  C   UNL     1      -8.006   9.926  67.504  1.00  0.00    -0.106 A  
HETATM   14  N   UNL     1      -7.856  10.035  66.183  1.00  0.00    -0.110 NA 
HETATM   15  S   UNL     1      -8.700   8.731  65.569  1.00  0.00    -0.182 SA 
HETATM   16  N   UNL     1      -9.270   8.042  66.975  1.00  0.00    -0.141 NA 
HETATM   17  C   UNL     1      -8.786   8.785  67.978  1.00  0.00    -0.141 A  
BRANCH  17  18
HETATM   18  N   UNL     1      -9.070   8.556  69.295  1.00  0.00    -0.152 NA 
HETATM   19  C   UNL     1      -8.185   7.806  70.190  1.00  0.00    -0.123 C  
HETATM   20  C   UNL     1      -8.172   8.510  71.557  1.00  0.00    -0.155 C  
HETATM   21  O   UNL     1      -9.501   8.623  72.099  1.00  0.00    -0.283 OA 
HETATM   22  C   UNL     1     -10.358   9.352  71.200  1.00  0.00    -0.307 C  
HETATM   23  C   UNL     1     -10.436   8.684  69.814  1.00  0.00    -0.220 C  
ENDBRANCH  17  18
ENDBRANCH  12  13
ENDBRANCH  11  12
ENDBRANCH   1  11
TORSDOF 6
ENDMDL
MODEL      251
REMARK 921   NORMALIZED FREE ENERGY PREDICTED BY IDOCK:   -2.94 KCAL/MOL
REMARK 922        TOTAL FREE ENERGY PREDICTED BY IDOCK:   -4.75 KCAL/MOL
REMARK 923 INTER-LIGAND FREE ENERGY PREDICTED BY IDOCK:   -4.17 KCAL/MOL
REMARK 924 INTRA-LIGAND FREE ENERGY PREDICTED BY IDOCK:   -0.58 KCAL/MOL
REMARK 927      BINDING AFFINITY PREDICTED BY RF-SCORE:    0.00 PKD
ROOT
HETATM    1  C   UNL     1      -9.330   9.830  68.284  1.00  0.00    -0.129 C  
HETATM    2  H   UNL     1      -7.690   9.363  69.238  1.00  0.00     0.000 HD 
HETATM    3  O   UNL     1      -7.954  10.050  68.639  1.00  0.00    -0.091 OA 
ENDROOT
BRANCH   1   4
HETATM    4  C   UNL     1      -9.759  10.948  67.308  1.00  0.00    -0.165 C  
BRANCH   4   5
HETATM    5  N   UNL     1     -10.649  11.938  67.921  1.00  0.00    -0.195 NA 
HETATM    6  C   UNL     1     -11.939  13.987  67.902  1.00  0.00    -0.387 C  
HETATM    7  C   UNL     1     -11.913  12.558  65.859  1.00  0.00    -0.472 C  
HETATM    8  C   UNL     1     -11.063  13.052  67.043  1.00  0.00    -0.281 C  
HETATM    9  H   UNL     1     -10.227  12.305  68.774  1.00  0.00     0.000 HD 
HETATM   10  C   UNL     1      -9.858  13.859  66.530  1.00  0.00    -0.296 C  
ENDBRANCH   4   5
ENDBRANCH   1   4
BRANCH   1  11
HETATM   11  C   UNL     1      -9.492   8.415  67.715  1.00  0.00    -0.149 C  
BRANCH  11  12
HETATM   12  O   UNL     1     -10.221   7.629  68.663  1.00  0.00    -0.190 OA 
BRANCH  12  13
HETATM   13  C   UNL     1      -9.767   6.358  68.834  1.00  0.00    -0.126 A  
HETATM   14  N   UNL     1     -10.033   5.432  67.911  1.00  0.00    -0.151 NA 
HETATM   15  S   UNL     1      -9.398   4.026  68.549  1.00  0.00    -0.156 SA 
HETATM   16  N   UNL     1      -8.803   4.587  70.001  1.00  0.00    -0.080 NA 
HETATM   17  C   UNL     1      -9.045   5.903  70.020  1.00  0.00    -0.144 A  
BRANCH  17  18
HETATM   18  N   UNL     1      -8.735   6.715  71.075  1.00  0.00    -0.137 NA 
HETATM   19  C   UNL     1      -7.365   6.937  71.544  1.00  0.00    -0.081 C  
HETATM   20  C   UNL     1      -7.214   8.424  71.907  1.00  0.00    -0.095 C  
HETATM   21  O   UNL     1      -8.183   8.821  72.895  1.00  0.00    -0.410 OA 
HETATM   22  C   UNL     1      -9.522   8.583  72.421  1.00  0.00    -0.280 C  
HETATM   23  C   UNL     1      -9.748   7.102  72.063  1.00  0.00    -0.157 C  
ENDBRANCH  17  18
ENDBRANCH  12  13
ENDBRANCH  11  12
ENDBRANCH   1  11
TORSDOF 6
ENDMDL
MODEL      252
REMARK 921   NORMALIZED FREE ENERGY PREDICTED BY IDOCK:   -2.91 KCAL/MOL
REMARK 922        TOTAL FREE ENERGY PREDICTED BY IDOCK:   -4.72 KCAL/MOL
REMARK 923 INTER-LIGAND FREE ENERGY PREDICTED BY IDOCK:   -4.25 KCAL/MOL
REMARK 924 INTRA-LIGAND FREE ENERGY PREDICTED BY IDOCK:   -0.46 KCAL/MOL
REMARK 927      BINDING AFFINITY PREDICTED BY RF-SCORE:    0.00 PKD
ROOT
HETATM    1  C   UNL     1      -9.498  10.462  67.993  1.00  0.00    -0.143 C  
HETATM    2  H   UNL     1     -10.580  10.066  69.571  1.00  0.00     0.000 HD 
HETATM    3  O   UNL     1     -10.535  10.773  68.940  1.00  0.00    -0.184 OA 
ENDROOT
BRANCH   1   4
HETATM    4  C   UNL     1      -9.424  11.612  66.966  1.00  0.00    -0.182 C  
BRANCH   4   5
HETATM    5  N   UNL     1     -10.524  12.572  67.094  1.00  0.00    -0.223 NA 
HETATM    6  C   UNL     1     -11.626  14.672  66.606  1.00  0.00    -0.359 C  
HETATM    7  C   UNL     1     -10.436  13.478  64.769  1.00  0.00    -0.430 C  
HETATM    8  C   UNL     1     -10.401  13.795  66.274  1.00  0.00    -0.294 C  
HETATM    9  H   UNL     1     -10.657  12.821  68.074  1.00  0.00     0.000 HD 
HETATM   10  C   UNL     1      -9.131  14.592  66.618  1.00  0.00    -0.285 C  
ENDBRANCH   4   5
ENDBRANCH   1   4
BRANCH   1  11
HETATM   11  C   UNL     1      -8.181  10.212  68.740  1.00  0.00    -0.113 C  
BRANCH  11  12
HETATM   12  O   UNL     1      -8.484   9.981  70.120  1.00  0.00    -0.169 OA 
BRANCH  12  13
HETATM   13  C   UNL     1      -7.578   9.220  70.793  1.00  0.00    -0.133 A  
HETATM   14  N   UNL     1      -6.376   9.723  71.080  1.00  0.00    -0.227 NA 
HETATM   15  S   UNL     1      -5.564   8.454  71.799  1.00  0.00    -0.042 SA 
HETATM   16  N   UNL     1      -6.728   7.263  71.729  1.00  0.00    -0.051 NA 
HETATM   17  C   UNL     1      -7.809   7.830  71.177  1.00  0.00    -0.089 A  
BRANCH  17  18
HETATM   18  N   UNL     1      -8.967   7.153  70.914  1.00  0.00    -0.151 NA 
HETATM   19  C   UNL     1     -10.295   7.671  71.251  1.00  0.00    -0.198 C  
HETATM   20  C   UNL     1     -11.251   7.338  70.093  1.00  0.00    -0.239 C  
HETATM   21  O   UNL     1     -11.285   5.922  69.835  1.00  0.00    -0.378 OA 
HETATM   22  C   UNL     1      -9.968   5.430  69.518  1.00  0.00    -0.219 C  
HETATM   23  C   UNL     1      -8.964   5.709  70.652  1.00  0.00    -0.146 C  
ENDBRANCH  17  18
ENDBRANCH  12  13
ENDBRANCH  11  12
ENDBRANCH   1  11
TORSDOF 6
ENDMDL
MODEL      253
REMARK 921   NORMALIZED FREE ENERGY PREDICTED BY IDOCK:   -2.89 KCAL/MOL
REMARK 922        TOTAL FREE ENERGY PREDICTED BY IDOCK:   -4.69 KCAL/MOL
REMARK 923 INTER-LIGAND FREE ENERGY PREDICTED BY IDOCK:   -4.53 KCAL/MOL
REMARK 924 INTRA-LIGAND FREE ENERGY PREDICTED BY IDOCK:   -0.16 KCAL/MOL
REMARK 927      BINDING AFFINITY PREDICTED BY RF-SCORE:    0.00 PKD
ROOT
HETATM    1  C   UNL     1      -9.179  10.357  65.667  1.00  0.00    -0.182 C  
HETATM    2  H   UNL     1      -9.508   8.578  66.407  1.00  0.00     0.000 HD 
HETATM    3  O   UNL     1      -9.978   9.173  65.835  1.00  0.00    -0.295 OA 
ENDROOT
BRANCH   1   4
HETATM    4  C   UNL     1      -9.942  11.324  64.737  1.00  0.00    -0.277 C  
BRANCH   4   5
HETATM    5  N   UNL     1     -11.126  11.916  65.367  1.00  0.00    -0.313 NA 
HETATM    6  C   UNL     1     -12.732  13.697  65.700  1.00  0.00    -0.505 C  
HETATM    7  C   UNL     1     -11.932  13.210  63.390  1.00  0.00    -0.552 C  
HETATM    8  C   UNL     1     -11.511  13.253  64.869  1.00  0.00    -0.318 C  
HETATM    9  H   UNL     1     -11.006  11.942  66.379  1.00  0.00     0.000 HD 
HETATM   10  C   UNL     1     -10.390  14.286  65.071  1.00  0.00    -0.448 C  
ENDBRANCH   4   5
ENDBRANCH   1   4
BRANCH   1  11
HETATM   11  C   UNL     1      -8.848  10.950  67.043  1.00  0.00    -0.140 C  
BRANCH  11  12
HETATM   12  O   UNL     1      -8.979   9.915  68.022  1.00  0.00    -0.122 OA 
BRANCH  12  13
HETATM   13  C   UNL     1      -7.952   9.022  68.063  1.00  0.00    -0.101 A  
HETATM   14  N   UNL     1      -6.777   9.342  67.518  1.00  0.00    -0.067 NA 
HETATM   15  S   UNL     1      -5.857   7.959  67.693  1.00  0.00    -0.042 SA 
HETATM   16  N   UNL     1      -6.954   6.951  68.441  1.00  0.00    -0.077 NA 
HETATM   17  C   UNL     1      -8.067   7.676  68.617  1.00  0.00    -0.127 A  
BRANCH  17  18
HETATM   18  N   UNL     1      -9.214   7.178  69.169  1.00  0.00    -0.140 NA 
HETATM   19  C   UNL     1     -10.242   6.478  68.395  1.00  0.00    -0.172 C  
HETATM   20  C   UNL     1     -10.751   5.292  69.229  1.00  0.00    -0.000 C  
HETATM   21  O   UNL     1     -11.256   5.729  70.505  1.00  0.00    -0.270 OA 
HETATM   22  C   UNL     1     -10.235   6.425  71.246  1.00  0.00    -0.200 C  
HETATM   23  C   UNL     1      -9.698   7.645  70.473  1.00  0.00    -0.182 C  
ENDBRANCH  17  18
ENDBRANCH  12  13
ENDBRANCH  11  12
ENDBRANCH   1  11
TORSDOF 6
ENDMDL
MODEL      254
REMARK 921   NORMALIZED FREE ENERGY PREDICTED BY IDOCK:   -2.85 KCAL/MOL
REMARK 922        TOTAL FREE ENERGY PREDICTED BY IDOCK:   -4.63 KCAL/MOL
REMARK 923 INTER-LIGAND FREE ENERGY PREDICTED BY IDOCK:   -3.86 KCAL/MOL
REMARK 924 INTRA-LIGAND FREE ENERGY PREDICTED BY IDOCK:   -0.77 KCAL/MOL
REMARK 927      BINDING AFFINITY PREDICTED BY RF-SCORE:    0.00 PKD
ROOT
HETATM    1  C   UNL     1      -7.625   7.532  67.286  1.00  0.00    -0.108 C  
HETATM    2  H   UNL     1      -6.162   8.820  67.432  1.00  0.00     0.000 HD 
HETATM    3  O   UNL     1      -6.230   7.875  67.360  1.00  0.00    -0.051 OA 
ENDROOT
BRANCH   1   4
HETATM    4  C   UNL     1      -7.736   5.996  67.170  1.00  0.00    -0.101 C  
BRANCH   4   5
HETATM    5  N   UNL     1      -8.621   5.562  66.086  1.00  0.00    -0.125 NA 
HETATM    6  C   UNL     1     -10.609   4.484  65.221  1.00  0.00    -0.164 C  
HETATM    7  C   UNL     1     -10.785   5.855  67.296  1.00  0.00    -0.380 C  
HETATM    8  C   UNL     1      -9.871   4.898  66.510  1.00  0.00    -0.207 C  
HETATM    9  H   UNL     1      -8.110   4.962  65.438  1.00  0.00     0.000 HD 
HETATM   10  C   UNL     1      -9.597   3.630  67.336  1.00  0.00    -0.197 C  
ENDBRANCH   4   5
ENDBRANCH   1   4
BRANCH   1  11
HETATM   11  C   UNL     1      -8.362   8.118  68.498  1.00  0.00    -0.126 C  
BRANCH  11  12
HETATM   12  O   UNL     1      -8.204   7.217  69.598  1.00  0.00    -0.127 OA 
BRANCH  12  13
HETATM   13  C   UNL     1      -7.719   7.776  70.740  1.00  0.00    -0.084 A  
HETATM   14  N   UNL     1      -6.447   8.174  70.792  1.00  0.00    -0.036 NA 
HETATM   15  S   UNL     1      -6.246   8.691  72.367  1.00  0.00    -0.053 SA 
HETATM   16  N   UNL     1      -7.764   8.393  72.987  1.00  0.00    -0.316 NA 
HETATM   17  C   UNL     1      -8.494   7.916  71.971  1.00  0.00    -0.132 A  
BRANCH  17  18
HETATM   18  N   UNL     1      -9.795   7.515  72.097  1.00  0.00    -0.165 NA 
HETATM   19  C   UNL     1     -10.894   8.093  71.321  1.00  0.00    -0.237 C  
HETATM   20  C   UNL     1     -11.842   6.956  70.904  1.00  0.00    -0.376 C  
HETATM   21  O   UNL     1     -12.327   6.234  72.052  1.00  0.00    -0.328 OA 
HETATM   22  C   UNL     1     -11.231   5.684  72.808  1.00  0.00    -0.299 C  
HETATM   23  C   UNL     1     -10.254   6.778  73.280  1.00  0.00    -0.247 C  
ENDBRANCH  17  18
ENDBRANCH  12  13
ENDBRANCH  11  12
ENDBRANCH   1  11
TORSDOF 6
ENDMDL
MODEL      255
REMARK 921   NORMALIZED FREE ENERGY PREDICTED BY IDOCK:   -2.80 KCAL/MOL
REMARK 922        TOTAL FREE ENERGY PREDICTED BY IDOCK:   -4.57 KCAL/MOL
REMARK 923 INTER-LIGAND FREE ENERGY PREDICTED BY IDOCK:   -3.84 KCAL/MOL
REMARK 924 INTRA-LIGAND FREE ENERGY PREDICTED BY IDOCK:   -0.73 KCAL/MOL
REMARK 927      BINDING AFFINITY PREDICTED BY RF-SCORE:    0.00 PKD
ROOT
HETATM    1  C   UNL     1      -7.092   7.104  67.867  1.00  0.00    -0.085 C  
HETATM    2  H   UNL     1      -5.783   6.571  69.216  1.00  0.00     0.000 HD 
HETATM    3  O   UNL     1      -6.007   6.286  68.339  1.00  0.00    -0.015 OA 
ENDROOT
BRANCH   1   4
HETATM    4  C   UNL     1      -7.457   6.642  66.440  1.00  0.00    -0.085 C  
BRANCH   4   5
HETATM    5  N   UNL     1      -7.482   5.184  66.294  1.00  0.00    -0.085 NA 
HETATM    6  C   UNL     1      -8.503   3.099  65.605  1.00  0.00    -0.108 C  
HETATM    7  C   UNL     1      -8.717   5.095  64.126  1.00  0.00    -0.059 C  
HETATM    8  C   UNL     1      -8.660   4.633  65.593  1.00  0.00    -0.124 C  
HETATM    9  H   UNL     1      -7.381   4.740  67.207  1.00  0.00     0.000 HD 
HETATM   10  C   UNL     1      -9.974   4.987  66.311  1.00  0.00    -0.247 C  
ENDBRANCH   4   5
ENDBRANCH   1   4
BRANCH   1  11
HETATM   11  C   UNL     1      -8.259   7.030  68.860  1.00  0.00    -0.122 C  
BRANCH  11  12
HETATM   12  O   UNL     1      -8.212   8.190  69.696  1.00  0.00    -0.116 OA 
BRANCH  12  13
HETATM   13  C   UNL     1      -9.147   9.141  69.421  1.00  0.00    -0.148 A  
HETATM   14  N   UNL     1      -8.834  10.164  68.625  1.00  0.00    -0.130 NA 
HETATM   15  S   UNL     1     -10.201  11.123  68.638  1.00  0.00    -0.210 SA 
HETATM   16  N   UNL     1     -11.180  10.251  69.667  1.00  0.00    -0.255 NA 
HETATM   17  C   UNL     1     -10.487   9.157  70.004  1.00  0.00    -0.221 A  
BRANCH  17  18
HETATM   18  N   UNL     1     -10.946   8.208  70.874  1.00  0.00    -0.238 NA 
HETATM   19  C   UNL     1     -11.461   6.905  70.446  1.00  0.00    -0.338 C  
HETATM   20  C   UNL     1     -10.954   5.838  71.430  1.00  0.00    -0.237 C  
HETATM   21  O   UNL     1     -11.347   6.145  72.781  1.00  0.00    -0.264 OA 
HETATM   22  C   UNL     1     -10.842   7.434  73.179  1.00  0.00    -0.386 C  
HETATM   23  C   UNL     1     -11.336   8.555  72.246  1.00  0.00    -0.371 C  
ENDBRANCH  17  18
ENDBRANCH  12  13
ENDBRANCH  11  12
ENDBRANCH   1  11
TORSDOF 6
ENDMDL
MODEL      256
REMARK 921   NORMALIZED FREE ENERGY PREDICTED BY IDOCK:   -2.79 KCAL/MOL
REMARK 922        TOTAL FREE ENERGY PREDICTED BY IDOCK:   -4.56 KCAL/MOL
REMARK 923 INTER-LIGAND FREE ENERGY PREDICTED BY IDOCK:   -3.65 KCAL/MOL
REMARK 924 INTRA-LIGAND FREE ENERGY PREDICTED BY IDOCK:   -0.91 KCAL/MOL
REMARK 927      BINDING AFFINITY PREDICTED BY RF-SCORE:    0.00 PKD
ROOT
HETATM    1  C   UNL     1     -10.532   7.472  67.443  1.00  0.00    -0.297 C  
HETATM    2  H   UNL     1     -11.361   6.129  66.291  1.00  0.00     0.000 HD 
HETATM    3  O   UNL     1     -11.111   6.177  67.205  1.00  0.00    -0.333 OA 
ENDROOT
BRANCH   1   4
HETATM    4  C   UNL     1     -10.125   7.551  68.930  1.00  0.00    -0.192 C  
BRANCH   4   5
HETATM    5  N   UNL     1      -8.701   7.841  69.125  1.00  0.00    -0.138 NA 
HETATM    6  C   UNL     1      -6.623   7.725  70.361  1.00  0.00    -0.038 C  
HETATM    7  C   UNL     1      -8.092   5.713  70.279  1.00  0.00    -0.104 C  
HETATM    8  C   UNL     1      -8.090   7.251  70.333  1.00  0.00    -0.116 C  
HETATM    9  H   UNL     1      -8.546   8.849  69.112  1.00  0.00     0.000 HD 
HETATM   10  C   UNL     1      -8.778   7.737  71.620  1.00  0.00    -0.142 C  
ENDBRANCH   4   5
ENDBRANCH   1   4
BRANCH   1  11
HETATM   11  C   UNL     1      -9.369   7.699  66.468  1.00  0.00    -0.189 C  
BRANCH  11  12
HETATM   12  O   UNL     1      -9.422   9.054  66.011  1.00  0.00    -0.221 OA 
BRANCH  12  13
HETATM   13  C   UNL     1      -8.223   9.697  65.963  1.00  0.00    -0.119 A  
HETATM   14  N   UNL     1      -7.157   9.070  65.462  1.00  0.00    -0.080 NA 
HETATM   15  S   UNL     1      -5.906  10.154  65.684  1.00  0.00    -0.090 SA 
HETATM   16  N   UNL     1      -6.712  11.407  66.431  1.00  0.00    -0.071 NA 
HETATM   17  C   UNL     1      -7.997  11.038  66.496  1.00  0.00    -0.158 A  
BRANCH  17  18
HETATM   18  N   UNL     1      -8.973  11.794  67.084  1.00  0.00    -0.171 NA 
HETATM   19  C   UNL     1      -9.318  13.147  66.641  1.00  0.00    -0.239 C  
HETATM   20  C   UNL     1     -10.848  13.297  66.694  1.00  0.00    -0.281 C  
HETATM   21  O   UNL     1     -11.354  13.026  68.014  1.00  0.00    -0.256 OA 
HETATM   22  C   UNL     1     -10.994  11.697  68.436  1.00  0.00    -0.220 C  
HETATM   23  C   UNL     1      -9.468  11.488  68.431  1.00  0.00    -0.195 C  
ENDBRANCH  17  18
ENDBRANCH  12  13
ENDBRANCH  11  12
ENDBRANCH   1  11
TORSDOF 6
ENDMDL
MODEL      257
REMARK 921   NORMALIZED FREE ENERGY PREDICTED BY IDOCK:   -2.73 KCAL/MOL
REMARK 922        TOTAL FREE ENERGY PREDICTED BY IDOCK:   -4.48 KCAL/MOL
REMARK 923 INTER-LIGAND FREE ENERGY PREDICTED BY IDOCK:   -3.83 KCAL/MOL
REMARK 924 INTRA-LIGAND FREE ENERGY PREDICTED BY IDOCK:   -0.65 KCAL/MOL
REMARK 927      BINDING AFFINITY PREDICTED BY RF-SCORE:    0.00 PKD
ROOT
HETATM    1  C   UNL     1     -10.110   9.157  66.327  1.00  0.00    -0.249 C  
HETATM    2  H   UNL     1     -11.397  10.505  66.917  1.00  0.00     0.000 HD 
HETATM    3  O   UNL     1     -10.474  10.500  66.694  1.00  0.00    -0.241 OA 
ENDROOT
BRANCH   1   4
HETATM    4  C   UNL     1      -8.609   9.148  65.965  1.00  0.00    -0.146 C  
BRANCH   4   5
HETATM    5  N   UNL     1      -8.311   9.861  64.720  1.00  0.00    -0.150 NA 
HETATM    6  C   UNL     1      -7.238  10.083  62.562  1.00  0.00    -0.134 C  
HETATM    7  C   UNL     1      -8.156   7.864  63.231  1.00  0.00    -0.089 C  
HETATM    8  C   UNL     1      -7.462   9.133  63.756  1.00  0.00    -0.106 C  
HETATM    9  H   UNL     1      -7.900  10.771  64.930  1.00  0.00     0.000 HD 
HETATM   10  C   UNL     1      -6.090   8.778  64.352  1.00  0.00    -0.066 C  
ENDBRANCH   4   5
ENDBRANCH   1   4
BRANCH   1  11
HETATM   11  C   UNL     1     -10.480   8.198  67.466  1.00  0.00    -0.256 C  
BRANCH  11  12
HETATM   12  O   UNL     1      -9.810   8.631  68.654  1.00  0.00    -0.161 OA 
BRANCH  12  13
HETATM   13  C   UNL     1     -10.594   8.713  69.764  1.00  0.00    -0.224 A  
HETATM   14  N   UNL     1     -11.360   9.789  69.953  1.00  0.00    -0.223 NA 
HETATM   15  S   UNL     1     -12.060   9.534  71.448  1.00  0.00    -0.403 SA 
HETATM   16  N   UNL     1     -11.377   8.071  71.862  1.00  0.00    -0.267 NA 
HETATM   17  C   UNL     1     -10.609   7.711  70.826  1.00  0.00    -0.221 A  
BRANCH  17  18
HETATM   18  N   UNL     1      -9.848   6.575  70.807  1.00  0.00    -0.183 NA 
HETATM   19  C   UNL     1     -10.403   5.232  70.991  1.00  0.00    -0.228 C  
HETATM   20  C   UNL     1      -9.698   4.280  70.010  1.00  0.00    -0.217 C  
HETATM   21  O   UNL     1      -8.271   4.295  70.203  1.00  0.00    -0.058 OA 
HETATM   22  C   UNL     1      -7.746   5.625  70.031  1.00  0.00    -0.083 C  
HETATM   23  C   UNL     1      -8.395   6.627  71.005  1.00  0.00    -0.125 C  
ENDBRANCH  17  18
ENDBRANCH  12  13
ENDBRANCH  11  12
ENDBRANCH   1  11
TORSDOF 6
ENDMDL
MODEL      258
REMARK 921   NORMALIZED FREE ENERGY PREDICTED BY IDOCK:   -2.71 KCAL/MOL
REMARK 922        TOTAL FREE ENERGY PREDICTED BY IDOCK:   -4.44 KCAL/MOL
REMARK 923 INTER-LIGAND FREE ENERGY PREDICTED BY IDOCK:   -4.07 KCAL/MOL
REMARK 924 INTRA-LIGAND FREE ENERGY PREDICTED BY IDOCK:   -0.37 KCAL/MOL
REMARK 927      BINDING AFFINITY PREDICTED BY RF-SCORE:    0.00 PKD
ROOT
HETATM    1  C   UNL     1     -10.081  10.319  66.163  1.00  0.00    -0.242 C  
HETATM    2  H   UNL     1     -11.430  10.527  64.763  1.00  0.00     0.000 HD 
HETATM    3  O   UNL     1     -10.565  10.881  64.930  1.00  0.00    -0.302 OA 
ENDROOT
BRANCH   1   4
HETATM    4  C   UNL     1      -8.675  10.895  66.434  1.00  0.00    -0.170 C  
BRANCH   4   5
HETATM    5  N   UNL     1      -7.732   9.898  66.948  1.00  0.00    -0.098 NA 
HETATM    6  C   UNL     1      -5.745   8.523  66.794  1.00  0.00    -0.044 C  
HETATM    7  C   UNL     1      -5.659  10.867  65.951  1.00  0.00    -0.147 C  
HETATM    8  C   UNL     1      -6.560   9.628  66.091  1.00  0.00    -0.078 C  
HETATM    9  H   UNL     1      -8.223   9.028  67.153  1.00  0.00     0.000 HD 
HETATM   10  C   UNL     1      -6.971   9.112  64.701  1.00  0.00    -0.090 C  
ENDBRANCH   4   5
ENDBRANCH   1   4
BRANCH   1  11
HETATM   11  C   UNL     1     -11.092  10.597  67.283  1.00  0.00    -0.243 C  
BRANCH  11  12
HETATM   12  O   UNL     1     -10.399  10.559  68.534  1.00  0.00    -0.164 OA 
BRANCH  12  13
HETATM   13  C   UNL     1     -11.189  10.662  69.638  1.00  0.00    -0.289 A  
HETATM   14  N   UNL     1     -11.591   9.557  70.267  1.00  0.00    -0.215 NA 
HETATM   15  S   UNL     1     -12.601  10.119  71.473  1.00  0.00    -0.460 SA 
HETATM   16  N   UNL     1     -12.542  11.760  71.185  1.00  0.00    -0.361 NA 
HETATM   17  C   UNL     1     -11.698  11.929  70.159  1.00  0.00    -0.253 A  
BRANCH  17  18
HETATM   18  N   UNL     1     -11.417  13.145  69.602  1.00  0.00    -0.231 NA 
HETATM   19  C   UNL     1     -10.161  13.444  68.912  1.00  0.00     0.003 C  
HETATM   20  C   UNL     1     -10.481  14.294  67.671  1.00  0.00    -0.248 C  
HETATM   21  O   UNL     1     -11.186  15.496  68.030  1.00  0.00    -0.313 OA 
HETATM   22  C   UNL     1     -12.413  15.182  68.718  1.00  0.00     0.221 C  
HETATM   23  C   UNL     1     -12.159  14.350  69.989  1.00  0.00    -0.343 C  
ENDBRANCH  17  18
ENDBRANCH  12  13
ENDBRANCH  11  12
ENDBRANCH   1  11
TORSDOF 6
ENDMDL
MODEL      259
REMARK 921   NORMALIZED FREE ENERGY PREDICTED BY IDOCK:   -2.69 KCAL/MOL
REMARK 922        TOTAL FREE ENERGY PREDICTED BY IDOCK:   -4.42 KCAL/MOL
REMARK 923 INTER-LIGAND FREE ENERGY PREDICTED BY IDOCK:   -3.76 KCAL/MOL
REMARK 924 INTRA-LIGAND FREE ENERGY PREDICTED BY IDOCK:   -0.66 KCAL/MOL
REMARK 927      BINDING AFFINITY PREDICTED BY RF-SCORE:    0.00 PKD
ROOT
HETATM    1  C   UNL     1      -9.748   9.362  68.253  1.00  0.00    -0.145 C  
HETATM    2  H   UNL     1     -10.826  10.646  69.257  1.00  0.00     0.000 HD 
HETATM    3  O   UNL     1     -10.658   9.713  69.310  1.00  0.00    -0.206 OA 
ENDROOT
BRANCH   1   4
HETATM    4  C   UNL     1      -9.474   7.845  68.340  1.00  0.00    -0.148 C  
BRANCH   4   5
HETATM    5  N   UNL     1     -10.335   7.157  69.306  1.00  0.00    -0.197 NA 
HETATM    6  C   UNL     1     -10.718   5.752  71.240  1.00  0.00    -0.323 C  
HETATM    7  C   UNL     1      -8.845   7.396  71.295  1.00  0.00    -0.138 C  
HETATM    8  C   UNL     1      -9.631   6.435  70.386  1.00  0.00    -0.165 C  
HETATM    9  H   UNL     1     -10.969   6.524  68.820  1.00  0.00     0.000 HD 
HETATM   10  C   UNL     1      -8.696   5.345  69.834  1.00  0.00    -0.128 C  
ENDBRANCH   4   5
ENDBRANCH   1   4
BRANCH   1  11
HETATM   11  C   UNL     1     -10.330   9.811  66.907  1.00  0.00    -0.234 C  
BRANCH  11  12
HETATM   12  O   UNL     1      -9.522  10.879  66.402  1.00  0.00    -0.179 OA 
BRANCH  12  13
HETATM   13  C   UNL     1      -9.937  11.411  65.219  1.00  0.00    -0.258 A  
HETATM   14  N   UNL     1     -11.007  12.207  65.193  1.00  0.00    -0.301 NA 
HETATM   15  S   UNL     1     -11.223  12.545  63.571  1.00  0.00    -0.401 SA 
HETATM   16  N   UNL     1      -9.973  11.667  62.904  1.00  0.00    -0.275 NA 
HETATM   17  C   UNL     1      -9.318  11.111  63.931  1.00  0.00    -0.179 A  
BRANCH  17  18
HETATM   18  N   UNL     1      -8.244  10.278  63.781  1.00  0.00    -0.159 NA 
HETATM   19  C   UNL     1      -7.005  10.675  63.108  1.00  0.00     0.101 C  
HETATM   20  C   UNL     1      -5.820  10.097  63.899  1.00  0.00    -0.140 C  
HETATM   21  O   UNL     1      -5.921   8.666  64.020  1.00  0.00    -0.069 OA 
HETATM   22  C   UNL     1      -7.151   8.296  64.673  1.00  0.00    -0.080 C  
HETATM   23  C   UNL     1      -8.383   8.824  63.915  1.00  0.00    -0.141 C  
ENDBRANCH  17  18
ENDBRANCH  12  13
ENDBRANCH  11  12
ENDBRANCH   1  11
TORSDOF 6
ENDMDL
MODEL      260
REMARK 921   NORMALIZED FREE ENERGY PREDICTED BY IDOCK:   -2.65 KCAL/MOL
REMARK 922        TOTAL FREE ENERGY PREDICTED BY IDOCK:   -4.37 KCAL/MOL
REMARK 923 INTER-LIGAND FREE ENERGY PREDICTED BY IDOCK:   -4.15 KCAL/MOL
REMARK 924 INTRA-LIGAND FREE ENERGY PREDICTED BY IDOCK:   -0.22 KCAL/MOL
REMARK 927      BINDING AFFINITY PREDICTED BY RF-SCORE:    0.00 PKD
ROOT
HETATM    1  C   UNL     1      -9.891  10.894  65.611  1.00  0.00    -0.241 C  
HETATM    2  H   UNL     1     -11.425  11.798  64.806  1.00  0.00     0.000 HD 
HETATM    3  O   UNL     1     -10.483  11.829  64.693  1.00  0.00    -0.269 OA 
ENDROOT
BRANCH   1   4
HETATM    4  C   UNL     1      -8.359  10.944  65.426  1.00  0.00    -0.051 C  
BRANCH   4   5
HETATM    5  N   UNL     1      -7.924  10.532  64.089  1.00  0.00    -0.336 NA 
HETATM    6  C   UNL     1      -6.434   9.395  62.556  1.00  0.00    -0.096 C  
HETATM    7  C   UNL     1      -7.011   8.296  64.718  1.00  0.00    -0.075 C  
HETATM    8  C   UNL     1      -6.738   9.653  64.047  1.00  0.00    -0.113 C  
HETATM    9  H   UNL     1      -7.770  11.354  63.504  1.00  0.00     0.000 HD 
HETATM   10  C   UNL     1      -5.505  10.319  64.681  1.00  0.00    -0.126 C  
ENDBRANCH   4   5
ENDBRANCH   1   4
BRANCH   1  11
HETATM   11  C   UNL     1     -10.355  11.213  67.037  1.00  0.00    -0.224 C  
BRANCH  11  12
HETATM   12  O   UNL     1     -10.287  12.630  67.226  1.00  0.00    -0.223 OA 
BRANCH  12  13
HETATM   13  C   UNL     1      -9.129  13.088  67.775  1.00  0.00    -0.200 A  
HETATM   14  N   UNL     1      -8.493  12.348  68.685  1.00  0.00    -0.049 NA 
HETATM   15  S   UNL     1      -7.208  13.304  69.161  1.00  0.00     0.139 SA 
HETATM   16  N   UNL     1      -7.471  14.660  68.229  1.00  0.00    -0.109 NA 
HETATM   17  C   UNL     1      -8.550  14.397  67.482  1.00  0.00    -0.191 A  
BRANCH  17  18
HETATM   18  N   UNL     1      -9.104  15.292  66.610  1.00  0.00    -0.261 NA 
HETATM   19  C   UNL     1      -9.665  14.910  65.312  1.00  0.00    -0.091 C  
HETATM   20  C   UNL     1     -10.953  15.719  65.085  1.00  0.00    -0.382 C  
HETATM   21  O   UNL     1     -10.699  17.134  65.156  1.00  0.00    -0.680 OA 
HETATM   22  C   UNL     1     -10.137  17.488  66.434  1.00  0.00    -0.345 C  
HETATM   23  C   UNL     1      -8.827  16.729  66.714  1.00  0.00    -0.230 C  
ENDBRANCH  17  18
ENDBRANCH  12  13
ENDBRANCH  11  12
ENDBRANCH   1  11
TORSDOF 6
ENDMDL
MODEL      261
REMARK 921   NORMALIZED FREE ENERGY PREDICTED BY IDOCK:   -2.49 KCAL/MOL
REMARK 922        TOTAL FREE ENERGY PREDICTED BY IDOCK:   -4.15 KCAL/MOL
REMARK 923 INTER-LIGAND FREE ENERGY PREDICTED BY IDOCK:   -3.38 KCAL/MOL
REMARK 924 INTRA-LIGAND FREE ENERGY PREDICTED BY IDOCK:   -0.76 KCAL/MOL
REMARK 927      BINDING AFFINITY PREDICTED BY RF-SCORE:    0.00 PKD
ROOT
HETATM    1  C   UNL     1     -11.163  10.680  69.566  1.00  0.00    -0.272 C  
HETATM    2  H   UNL     1     -11.964  12.462  69.549  1.00  0.00     0.000 HD 
HETATM    3  O   UNL     1     -12.106  11.659  70.034  1.00  0.00    -0.316 OA 
ENDROOT
BRANCH   1   4
HETATM    4  C   UNL     1     -11.395   9.373  70.356  1.00  0.00    -0.248 C  
BRANCH   4   5
HETATM    5  N   UNL     1     -10.346   8.373  70.137  1.00  0.00    -0.206 NA 
HETATM    6  C   UNL     1      -9.375   6.170  70.395  1.00  0.00    -0.173 C  
HETATM    7  C   UNL     1     -11.830   6.369  70.012  1.00  0.00    -0.208 C  
HETATM    8  C   UNL     1     -10.620   7.031  70.692  1.00  0.00    -0.225 C  
HETATM    9  H   UNL     1      -9.454   8.720  70.489  1.00  0.00     0.000 HD 
HETATM   10  C   UNL     1     -10.825   7.071  72.216  1.00  0.00    -0.262 C  
ENDBRANCH   4   5
ENDBRANCH   1   4
BRANCH   1  11
HETATM   11  C   UNL     1     -11.302  10.520  68.047  1.00  0.00    -0.246 C  
BRANCH  11  12
HETATM   12  O   UNL     1      -9.993  10.371  67.488  1.00  0.00    -0.171 OA 
BRANCH  12  13
HETATM   13  C   UNL     1      -9.169  11.443  67.648  1.00  0.00    -0.158 A  
HETATM   14  N   UNL     1      -9.651  12.676  67.488  1.00  0.00    -0.180 NA 
HETATM   15  S   UNL     1      -8.315  13.662  67.667  1.00  0.00    -0.197 SA 
HETATM   16  N   UNL     1      -7.125  12.525  67.929  1.00  0.00    -0.098 NA 
HETATM   17  C   UNL     1      -7.739  11.335  67.926  1.00  0.00    -0.110 A  
BRANCH  17  18
HETATM   18  N   UNL     1      -7.082  10.145  68.071  1.00  0.00    -0.083 NA 
HETATM   19  C   UNL     1      -6.798   9.241  66.954  1.00  0.00    -0.080 C  
HETATM   20  C   UNL     1      -5.383   8.670  67.143  1.00  0.00    -0.037 C  
HETATM   21  O   UNL     1      -5.255   8.001  68.412  1.00  0.00    -0.030 OA 
HETATM   22  C   UNL     1      -5.550   8.902  69.496  1.00  0.00    -0.034 C  
HETATM   23  C   UNL     1      -6.968   9.492  69.380  1.00  0.00    -0.050 C  
ENDBRANCH  17  18
ENDBRANCH  12  13
ENDBRANCH  11  12
ENDBRANCH   1  11
TORSDOF 6
ENDMDL
MODEL      262
REMARK 921   NORMALIZED FREE ENERGY PREDICTED BY IDOCK:   -2.42 KCAL/MOL
REMARK 922        TOTAL FREE ENERGY PREDICTED BY IDOCK:   -4.06 KCAL/MOL
REMARK 923 INTER-LIGAND FREE ENERGY PREDICTED BY IDOCK:   -3.54 KCAL/MOL
REMARK 924 INTRA-LIGAND FREE ENERGY PREDICTED BY IDOCK:   -0.52 KCAL/MOL
REMARK 927      BINDING AFFINITY PREDICTED BY RF-SCORE:    0.00 PKD
ROOT
HETATM    1  C   UNL     1      -9.332   9.265  67.189  1.00  0.00    -0.132 C  
HETATM    2  H   UNL     1     -11.218   9.414  66.701  1.00  0.00     0.000 HD 
HETATM    3  O   UNL     1     -10.476  10.005  66.728  1.00  0.00    -0.232 OA 
ENDROOT
BRANCH   1   4
HETATM    4  C   UNL     1      -8.124  10.226  67.233  1.00  0.00    -0.120 C  
BRANCH   4   5
HETATM    5  N   UNL     1      -7.503  10.434  65.922  1.00  0.00    -0.135 NA 
HETATM    6  C   UNL     1      -5.601  10.560  64.429  1.00  0.00    -0.118 C  
HETATM    7  C   UNL     1      -5.646   8.785  66.179  1.00  0.00    -0.042 C  
HETATM    8  C   UNL     1      -6.039  10.241  65.873  1.00  0.00    -0.103 C  
HETATM    9  H   UNL     1      -7.745  11.357  65.564  1.00  0.00     0.000 HD 
HETATM   10  C   UNL     1      -5.300  11.199  66.823  1.00  0.00    -0.094 C  
ENDBRANCH   4   5
ENDBRANCH   1   4
BRANCH   1  11
HETATM   11  C   UNL     1      -9.654   8.612  68.539  1.00  0.00    -0.154 C  
BRANCH  11  12
HETATM   12  O   UNL     1     -10.333   7.377  68.290  1.00  0.00    -0.185 OA 
BRANCH  12  13
HETATM   13  C   UNL     1      -9.976   6.345  69.102  1.00  0.00    -0.149 A  
HETATM   14  N   UNL     1      -9.227   5.352  68.618  1.00  0.00    -0.114 NA 
HETATM   15  S   UNL     1      -9.113   4.272  69.887  1.00  0.00    -0.123 SA 
HETATM   16  N   UNL     1     -10.026   5.054  71.041  1.00  0.00    -0.199 NA 
HETATM   17  C   UNL     1     -10.420   6.208  70.487  1.00  0.00    -0.234 A  
BRANCH  17  18
HETATM   18  N   UNL     1     -11.228   7.113  71.117  1.00  0.00    -0.254 NA 
HETATM   19  C   UNL     1     -10.726   8.137  72.035  1.00  0.00    -0.278 C  
HETATM   20  C   UNL     1     -11.495   9.442  71.770  1.00  0.00    -0.343 C  
HETATM   21  O   UNL     1     -12.914   9.250  71.917  1.00  0.00    -0.350 OA 
HETATM   22  C   UNL     1     -13.387   8.231  71.014  1.00  0.00     0.137 C  
HETATM   23  C   UNL     1     -12.672   6.887  71.245  1.00  0.00    -0.315 C  
ENDBRANCH  17  18
ENDBRANCH  12  13
ENDBRANCH  11  12
ENDBRANCH   1  11
TORSDOF 6
ENDMDL
MODEL      263
REMARK 921   NORMALIZED FREE ENERGY PREDICTED BY IDOCK:   -2.36 KCAL/MOL
REMARK 922        TOTAL FREE ENERGY PREDICTED BY IDOCK:   -3.98 KCAL/MOL
REMARK 923 INTER-LIGAND FREE ENERGY PREDICTED BY IDOCK:   -3.13 KCAL/MOL
REMARK 924 INTRA-LIGAND FREE ENERGY PREDICTED BY IDOCK:   -0.85 KCAL/MOL
REMARK 927      BINDING AFFINITY PREDICTED BY RF-SCORE:    0.00 PKD
ROOT
HETATM    1  C   UNL     1      -9.772   9.641  66.696  1.00  0.00    -0.209 C  
HETATM    2  H   UNL     1     -11.333  10.816  66.707  1.00  0.00     0.000 HD 
HETATM    3  O   UNL     1     -10.395  10.934  66.789  1.00  0.00    -0.222 OA 
ENDROOT
BRANCH   1   4
HETATM    4  C   UNL     1      -8.245   9.832  66.829  1.00  0.00    -0.120 C  
BRANCH   4   5
HETATM    5  N   UNL     1      -7.841  10.361  68.135  1.00  0.00    -0.106 NA 
HETATM    6  C   UNL     1      -6.558  11.832  69.567  1.00  0.00    -0.102 C  
HETATM    7  C   UNL     1      -7.475  12.727  67.429  1.00  0.00    -0.145 C  
HETATM    8  C   UNL     1      -6.876  11.479  68.100  1.00  0.00    -0.068 C  
HETATM    9  H   UNL     1      -7.481   9.607  68.720  1.00  0.00     0.000 HD 
HETATM   10  C   UNL     1      -5.563  11.082  67.404  1.00  0.00    -0.048 C  
ENDBRANCH   4   5
ENDBRANCH   1   4
BRANCH   1  11
HETATM   11  C   UNL     1     -10.374   8.706  67.753  1.00  0.00    -0.242 C  
BRANCH  11  12
HETATM   12  O   UNL     1      -9.372   7.762  68.143  1.00  0.00    -0.145 OA 
BRANCH  12  13
HETATM   13  C   UNL     1      -9.666   7.028  69.251  1.00  0.00    -0.158 A  
HETATM   14  N   UNL     1      -9.864   7.644  70.417  1.00  0.00    -0.183 NA 
HETATM   15  S   UNL     1     -10.089   6.396  71.504  1.00  0.00    -0.193 SA 
HETATM   16  N   UNL     1      -9.915   5.077  70.500  1.00  0.00    -0.224 NA 
HETATM   17  C   UNL     1      -9.716   5.568  69.270  1.00  0.00    -0.159 A  
BRANCH  17  18
HETATM   18  N   UNL     1      -9.489   4.787  68.171  1.00  0.00    -0.135 NA 
HETATM   19  C   UNL     1     -10.275   4.885  66.939  1.00  0.00    -0.211 C  
HETATM   20  C   UNL     1      -9.317   4.750  65.744  1.00  0.00    -0.161 C  
HETATM   21  O   UNL     1      -8.577   3.517  65.803  1.00  0.00    -0.109 OA 
HETATM   22  C   UNL     1      -7.821   3.434  67.027  1.00  0.00    -0.079 C  
HETATM   23  C   UNL     1      -8.727   3.537  68.268  1.00  0.00    -0.105 C  
ENDBRANCH  17  18
ENDBRANCH  12  13
ENDBRANCH  11  12
ENDBRANCH   1  11
TORSDOF 6
ENDMDL
MODEL      264
REMARK 921   NORMALIZED FREE ENERGY PREDICTED BY IDOCK:   -2.36 KCAL/MOL
REMARK 922        TOTAL FREE ENERGY PREDICTED BY IDOCK:   -3.97 KCAL/MOL
REMARK 923 INTER-LIGAND FREE ENERGY PREDICTED BY IDOCK:   -3.33 KCAL/MOL
REMARK 924 INTRA-LIGAND FREE ENERGY PREDICTED BY IDOCK:   -0.64 KCAL/MOL
REMARK 927      BINDING AFFINITY PREDICTED BY RF-SCORE:    0.00 PKD
ROOT
HETATM    1  C   UNL     1      -9.839   9.686  66.586  1.00  0.00    -0.224 C  
HETATM    2  H   UNL     1     -11.354  10.921  66.630  1.00  0.00     0.000 HD 
HETATM    3  O   UNL     1     -10.413  10.998  66.730  1.00  0.00    -0.231 OA 
ENDROOT
BRANCH   1   4
HETATM    4  C   UNL     1      -8.309   9.810  66.751  1.00  0.00    -0.124 C  
BRANCH   4   5
HETATM    5  N   UNL     1      -7.621  10.154  65.503  1.00  0.00    -0.140 NA 
HETATM    6  C   UNL     1      -5.866   9.877  63.858  1.00  0.00    -0.118 C  
HETATM    7  C   UNL     1      -6.875   7.849  64.899  1.00  0.00    -0.054 C  
HETATM    8  C   UNL     1      -6.459   9.307  65.162  1.00  0.00    -0.070 C  
HETATM    9  H   UNL     1      -7.345  11.135  65.516  1.00  0.00     0.000 HD 
HETATM   10  C   UNL     1      -5.371   9.359  66.248  1.00  0.00    -0.040 C  
ENDBRANCH   4   5
ENDBRANCH   1   4
BRANCH   1  11
HETATM   11  C   UNL     1     -10.495   8.728  67.589  1.00  0.00    -0.244 C  
BRANCH  11  12
HETATM   12  O   UNL     1      -9.534   7.735  67.957  1.00  0.00    -0.143 OA 
BRANCH  12  13
HETATM   13  C   UNL     1      -9.896   6.935  68.997  1.00  0.00    -0.152 A  
HETATM   14  N   UNL     1     -10.119   7.472  70.198  1.00  0.00    -0.193 NA 
HETATM   15  S   UNL     1     -10.428   6.158  71.181  1.00  0.00    -0.239 SA 
HETATM   16  N   UNL     1     -10.261   4.910  70.090  1.00  0.00    -0.262 NA 
HETATM   17  C   UNL     1      -9.997   5.480  68.908  1.00  0.00    -0.174 A  
BRANCH  17  18
HETATM   18  N   UNL     1      -9.754   4.772  67.764  1.00  0.00    -0.157 NA 
HETATM   19  C   UNL     1     -10.439   5.033  66.496  1.00  0.00    -0.276 C  
HETATM   20  C   UNL     1      -9.412   4.913  65.358  1.00  0.00    -0.123 C  
HETATM   21  O   UNL     1      -8.778   3.620  65.361  1.00  0.00    -0.113 OA 
HETATM   22  C   UNL     1      -8.121   3.377  66.620  1.00  0.00    -0.091 C  
HETATM   23  C   UNL     1      -9.103   3.458  67.804  1.00  0.00    -0.164 C  
ENDBRANCH  17  18
ENDBRANCH  12  13
ENDBRANCH  11  12
ENDBRANCH   1  11
TORSDOF 6
ENDMDL
MODEL      265
REMARK 921   NORMALIZED FREE ENERGY PREDICTED BY IDOCK:   -2.34 KCAL/MOL
REMARK 922        TOTAL FREE ENERGY PREDICTED BY IDOCK:   -3.95 KCAL/MOL
REMARK 923 INTER-LIGAND FREE ENERGY PREDICTED BY IDOCK:   -3.97 KCAL/MOL
REMARK 924 INTRA-LIGAND FREE ENERGY PREDICTED BY IDOCK:    0.02 KCAL/MOL
REMARK 927      BINDING AFFINITY PREDICTED BY RF-SCORE:    0.00 PKD
ROOT
HETATM    1  C   UNL     1      -7.446  17.921  69.271  1.00  0.00     0.021 C  
HETATM    2  H   UNL     1      -5.633  18.243  68.616  1.00  0.00     0.000 HD 
HETATM    3  O   UNL     1      -6.493  18.606  68.440  1.00  0.00    -0.216 OA 
ENDROOT
BRANCH   1   4
HETATM    4  C   UNL     1      -8.844  18.512  68.985  1.00  0.00    -0.051 C  
BRANCH   4   5
HETATM    5  N   UNL     1      -9.486  17.928  67.804  1.00  0.00    -0.259 NA 
HETATM    6  C   UNL     1     -10.611  18.071  65.665  1.00  0.00    -0.104 C  
HETATM    7  C   UNL     1      -8.731  19.636  66.147  1.00  0.00    -0.361 C  
HETATM    8  C   UNL     1      -9.923  18.893  66.774  1.00  0.00    -0.360 C  
HETATM    9  H   UNL     1     -10.271  17.342  68.088  1.00  0.00     0.000 HD 
HETATM   10  C   UNL     1     -10.944  19.902  67.328  1.00  0.00    -0.255 C  
ENDBRANCH   4   5
ENDBRANCH   1   4
BRANCH   1  11
HETATM   11  C   UNL     1      -7.348  16.410  69.025  1.00  0.00    -0.221 C  
BRANCH  11  12
HETATM   12  O   UNL     1      -8.308  16.055  68.025  1.00  0.00    -0.158 OA 
BRANCH  12  13
HETATM   13  C   UNL     1      -8.625  14.732  67.969  1.00  0.00    -0.166 A  
HETATM   14  N   UNL     1      -7.886  13.907  67.226  1.00  0.00    -0.155 NA 
HETATM   15  S   UNL     1      -8.664  12.435  67.355  1.00  0.00    -0.192 SA 
HETATM   16  N   UNL     1      -9.946  12.849  68.337  1.00  0.00    -0.228 NA 
HETATM   17  C   UNL     1      -9.787  14.145  68.631  1.00  0.00    -0.206 A  
BRANCH  17  18
HETATM   18  N   UNL     1     -10.669  14.862  69.391  1.00  0.00    -0.252 NA 
HETATM   19  C   UNL     1     -11.901  15.447  68.856  1.00  0.00    -0.329 C  
HETATM   20  C   UNL     1     -13.018  15.254  69.896  1.00  0.00     0.114 C  
HETATM   21  O   UNL     1     -12.660  15.839  71.161  1.00  0.00    -0.443 OA 
HETATM   22  C   UNL     1     -11.440  15.260  71.664  1.00  0.00    -0.405 C  
HETATM   23  C   UNL     1     -10.271  15.442  70.678  1.00  0.00     0.252 C  
ENDBRANCH  17  18
ENDBRANCH  12  13
ENDBRANCH  11  12
ENDBRANCH   1  11
TORSDOF 6
ENDMDL
MODEL      266
REMARK 921   NORMALIZED FREE ENERGY PREDICTED BY IDOCK:   -2.31 KCAL/MOL
REMARK 922        TOTAL FREE ENERGY PREDICTED BY IDOCK:   -3.90 KCAL/MOL
REMARK 923 INTER-LIGAND FREE ENERGY PREDICTED BY IDOCK:   -2.89 KCAL/MOL
REMARK 924 INTRA-LIGAND FREE ENERGY PREDICTED BY IDOCK:   -1.01 KCAL/MOL
REMARK 927      BINDING AFFINITY PREDICTED BY RF-SCORE:    0.00 PKD
ROOT
HETATM    1  C   UNL     1      -9.980   9.119  67.187  1.00  0.00    -0.218 C  
HETATM    2  H   UNL     1     -11.869   9.498  67.514  1.00  0.00     0.000 HD 
HETATM    3  O   UNL     1     -11.065  10.002  67.522  1.00  0.00    -0.274 OA 
ENDROOT
BRANCH   1   4
HETATM    4  C   UNL     1      -8.672   9.938  67.200  1.00  0.00    -0.131 C  
BRANCH   4   5
HETATM    5  N   UNL     1      -7.473   9.110  67.360  1.00  0.00    -0.084 NA 
HETATM    6  C   UNL     1      -5.137   8.773  67.897  1.00  0.00    -0.034 C  
HETATM    7  C   UNL     1      -6.480  10.345  69.289  1.00  0.00    -0.052 C  
HETATM    8  C   UNL     1      -6.274   9.814  67.860  1.00  0.00    -0.052 C  
HETATM    9  H   UNL     1      -7.258   8.634  66.484  1.00  0.00     0.000 HD 
HETATM   10  C   UNL     1      -5.848  10.958  66.925  1.00  0.00    -0.072 C  
ENDBRANCH   4   5
ENDBRANCH   1   4
BRANCH   1  11
HETATM   11  C   UNL     1      -9.974   7.926  68.151  1.00  0.00    -0.180 C  
BRANCH  11  12
HETATM   12  O   UNL     1      -9.785   8.422  69.480  1.00  0.00    -0.173 OA 
BRANCH  12  13
HETATM   13  C   UNL     1     -10.571   7.848  70.430  1.00  0.00    -0.228 A  
HETATM   14  N   UNL     1     -11.818   8.287  70.609  1.00  0.00    -0.163 NA 
HETATM   15  S   UNL     1     -12.379   7.402  71.910  1.00  0.00    -0.293 SA 
HETATM   16  N   UNL     1     -11.036   6.478  72.257  1.00  0.00    -0.251 NA 
HETATM   17  C   UNL     1     -10.114   6.800  71.341  1.00  0.00    -0.182 A  
BRANCH  17  18
HETATM   18  N   UNL     1      -8.853   6.275  71.320  1.00  0.00    -0.139 NA 
HETATM   19  C   UNL     1      -7.685   6.965  71.874  1.00  0.00    -0.094 C  
HETATM   20  C   UNL     1      -6.809   5.927  72.595  1.00  0.00    -0.075 C  
HETATM   21  O   UNL     1      -6.422   4.862  71.706  1.00  0.00    -0.028 OA 
HETATM   22  C   UNL     1      -7.583   4.205  71.163  1.00  0.00    -0.055 C  
HETATM   23  C   UNL     1      -8.494   5.188  70.403  1.00  0.00    -0.109 C  
ENDBRANCH  17  18
ENDBRANCH  12  13
ENDBRANCH  11  12
ENDBRANCH   1  11
TORSDOF 6
ENDMDL
MODEL      267
REMARK 921   NORMALIZED FREE ENERGY PREDICTED BY IDOCK:   -2.27 KCAL/MOL
REMARK 922        TOTAL FREE ENERGY PREDICTED BY IDOCK:   -3.85 KCAL/MOL
REMARK 923 INTER-LIGAND FREE ENERGY PREDICTED BY IDOCK:   -3.53 KCAL/MOL
REMARK 924 INTRA-LIGAND FREE ENERGY PREDICTED BY IDOCK:   -0.33 KCAL/MOL
REMARK 927      BINDING AFFINITY PREDICTED BY RF-SCORE:    0.00 PKD
ROOT
HETATM    1  C   UNL     1      -7.393  11.813  68.146  1.00  0.00    -0.094 C  
HETATM    2  H   UNL     1      -8.346  10.584  66.962  1.00  0.00     0.000 HD 
HETATM    3  O   UNL     1      -8.122  11.506  66.944  1.00  0.00    -0.154 OA 
ENDROOT
BRANCH   1   4
HETATM    4  C   UNL     1      -7.029  13.313  68.118  1.00  0.00    -0.114 C  
BRANCH   4   5
HETATM    5  N   UNL     1      -8.144  14.185  68.500  1.00  0.00    -0.142 NA 
HETATM    6  C   UNL     1      -9.321  16.300  68.525  1.00  0.00    -0.213 C  
HETATM    7  C   UNL     1      -8.202  15.566  66.422  1.00  0.00    -0.055 C  
HETATM    8  C   UNL     1      -8.095  15.558  67.956  1.00  0.00    -0.136 C  
HETATM    9  H   UNL     1      -8.230  14.215  69.516  1.00  0.00     0.000 HD 
HETATM   10  C   UNL     1      -6.828  16.307  68.402  1.00  0.00    -0.137 C  
ENDBRANCH   4   5
ENDBRANCH   1   4
BRANCH   1  11
HETATM   11  C   UNL     1      -8.224  11.399  69.367  1.00  0.00     0.376 C  
BRANCH  11  12
HETATM   12  O   UNL     1      -9.444  10.813  68.904  1.00  0.00    -0.179 OA 
BRANCH  12  13
HETATM   13  C   UNL     1     -10.581  11.359  69.417  1.00  0.00    -0.052 A  
HETATM   14  N   UNL     1     -10.936  12.596  69.065  1.00  0.00    -0.223 NA 
HETATM   15  S   UNL     1     -12.298  12.904  69.982  1.00  0.00    -0.054 SA 
HETATM   16  N   UNL     1     -12.425  11.479  70.836  1.00  0.00    -0.389 NA 
HETATM   17  C   UNL     1     -11.428  10.695  70.404  1.00  0.00    -0.334 A  
BRANCH  17  18
HETATM   18  N   UNL     1     -11.177   9.447  70.903  1.00  0.00    -0.296 NA 
HETATM   19  C   UNL     1     -12.129   8.706  71.733  1.00  0.00    -0.340 C  
HETATM   20  C   UNL     1     -12.096   7.230  71.304  1.00  0.00    -0.338 C  
HETATM   21  O   UNL     1     -10.768   6.685  71.406  1.00  0.00    -0.222 OA 
HETATM   22  C   UNL     1      -9.845   7.434  70.593  1.00  0.00    -0.179 C  
HETATM   23  C   UNL     1      -9.810   8.922  70.990  1.00  0.00    -0.253 C  
ENDBRANCH  17  18
ENDBRANCH  12  13
ENDBRANCH  11  12
ENDBRANCH   1  11
TORSDOF 6
ENDMDL
MODEL      268
REMARK 921   NORMALIZED FREE ENERGY PREDICTED BY IDOCK:   -2.14 KCAL/MOL
REMARK 922        TOTAL FREE ENERGY PREDICTED BY IDOCK:   -3.68 KCAL/MOL
REMARK 923 INTER-LIGAND FREE ENERGY PREDICTED BY IDOCK:   -3.83 KCAL/MOL
REMARK 924 INTRA-LIGAND FREE ENERGY PREDICTED BY IDOCK:    0.16 KCAL/MOL
REMARK 927      BINDING AFFINITY PREDICTED BY RF-SCORE:    0.00 PKD
ROOT
HETATM    1  C   UNL     1      -7.704  10.432  68.352  1.00  0.00    -0.098 C  
HETATM    2  H   UNL     1      -6.992  10.118  70.145  1.00  0.00     0.000 HD 
HETATM    3  O   UNL     1      -6.711  10.603  69.379  1.00  0.00    -0.061 OA 
ENDROOT
BRANCH   1   4
HETATM    4  C   UNL     1      -7.247  11.221  67.106  1.00  0.00    -0.126 C  
BRANCH   4   5
HETATM    5  N   UNL     1      -7.942  12.501  66.946  1.00  0.00    -0.381 NA 
HETATM    6  C   UNL     1      -9.897  13.856  66.492  1.00  0.00    -0.296 C  
HETATM    7  C   UNL     1     -10.153  11.785  67.857  1.00  0.00    -0.195 C  
HETATM    8  C   UNL     1      -9.391  12.410  66.675  1.00  0.00    -0.227 C  
HETATM    9  H   UNL     1      -7.486  13.057  66.223  1.00  0.00     0.000 HD 
HETATM   10  C   UNL     1      -9.686  11.629  65.383  1.00  0.00    -0.255 C  
ENDBRANCH   4   5
ENDBRANCH   1   4
BRANCH   1  11
HETATM   11  C   UNL     1      -7.920   8.935  68.094  1.00  0.00    -0.102 C  
BRANCH  11  12
HETATM   12  O   UNL     1      -9.242   8.591  68.520  1.00  0.00    -0.136 OA 
BRANCH  12  13
HETATM   13  C   UNL     1      -9.564   7.274  68.403  1.00  0.00    -0.139 A  
HETATM   14  N   UNL     1      -9.293   6.626  67.269  1.00  0.00    -0.130 NA 
HETATM   15  S   UNL     1      -9.931   5.101  67.509  1.00  0.00    -0.167 SA 
HETATM   16  N   UNL     1     -10.566   5.270  69.040  1.00  0.00    -0.146 NA 
HETATM   17  C   UNL     1     -10.265   6.513  69.435  1.00  0.00    -0.183 A  
BRANCH  17  18
HETATM   18  N   UNL     1     -10.655   7.042  70.633  1.00  0.00    -0.221 NA 
HETATM   19  C   UNL     1     -11.993   7.588  70.875  1.00  0.00    -0.251 C  
HETATM   20  C   UNL     1     -12.441   7.160  72.282  1.00  0.00    -0.062 C  
HETATM   21  O   UNL     1     -11.503   7.596  73.284  1.00  0.00    -0.263 OA 
HETATM   22  C   UNL     1     -10.192   7.059  73.022  1.00  0.00    -0.233 C  
HETATM   23  C   UNL     1      -9.671   7.473  71.633  1.00  0.00    -0.161 C  
ENDBRANCH  17  18
ENDBRANCH  12  13
ENDBRANCH  11  12
ENDBRANCH   1  11
TORSDOF 6
ENDMDL
MODEL      269
REMARK 921   NORMALIZED FREE ENERGY PREDICTED BY IDOCK:   -1.96 KCAL/MOL
REMARK 922        TOTAL FREE ENERGY PREDICTED BY IDOCK:   -3.43 KCAL/MOL
REMARK 923 INTER-LIGAND FREE ENERGY PREDICTED BY IDOCK:   -2.78 KCAL/MOL
REMARK 924 INTRA-LIGAND FREE ENERGY PREDICTED BY IDOCK:   -0.65 KCAL/MOL
REMARK 927      BINDING AFFINITY PREDICTED BY RF-SCORE:    0.00 PKD
ROOT
HETATM    1  C   UNL     1      -9.316   9.162  66.806  1.00  0.00    -0.165 C  
HETATM    2  H   UNL     1     -11.164   9.799  66.825  1.00  0.00     0.000 HD 
HETATM    3  O   UNL     1     -10.325  10.139  67.114  1.00  0.00    -0.212 OA 
ENDROOT
BRANCH   1   4
HETATM    4  C   UNL     1      -7.953   9.715  67.275  1.00  0.00    -0.106 C  
BRANCH   4   5
HETATM    5  N   UNL     1      -6.992   8.664  67.620  1.00  0.00    -0.074 NA 
HETATM    6  C   UNL     1      -5.144   7.761  68.899  1.00  0.00    -0.022 C  
HETATM    7  C   UNL     1      -6.870   9.126  70.070  1.00  0.00    -0.049 C  
HETATM    8  C   UNL     1      -6.093   8.969  68.752  1.00  0.00    -0.045 C  
HETATM    9  H   UNL     1      -6.444   8.409  66.798  1.00  0.00     0.000 HD 
HETATM   10  C   UNL     1      -5.240  10.221  68.487  1.00  0.00    -0.035 C  
ENDBRANCH   4   5
ENDBRANCH   1   4
BRANCH   1  11
HETATM   11  C   UNL     1      -9.693   7.819  67.443  1.00  0.00    -0.163 C  
BRANCH  11  12
HETATM   12  O   UNL     1      -9.386   7.880  68.839  1.00  0.00    -0.150 OA 
BRANCH  12  13
HETATM   13  C   UNL     1     -10.334   7.359  69.665  1.00  0.00    -0.223 A  
HETATM   14  N   UNL     1     -11.225   8.168  70.241  1.00  0.00    -0.227 NA 
HETATM   15  S   UNL     1     -12.114   7.157  71.229  1.00  0.00    -0.365 SA 
HETATM   16  N   UNL     1     -11.358   5.701  70.941  1.00  0.00    -0.045 NA 
HETATM   17  C   UNL     1     -10.408   5.947  70.029  1.00  0.00    -0.244 A  
BRANCH  17  18
HETATM   18  N   UNL     1      -9.542   4.997  69.564  1.00  0.00    -0.150 NA 
HETATM   19  C   UNL     1      -8.250   4.710  70.191  1.00  0.00    -0.067 C  
HETATM   20  C   UNL     1      -8.035   3.188  70.181  1.00  0.00    -0.042 C  
HETATM   21  O   UNL     1      -8.104   2.659  68.844  1.00  0.00    -0.052 OA 
HETATM   22  C   UNL     1      -9.377   2.962  68.240  1.00  0.00    -0.195 C  
HETATM   23  C   UNL     1      -9.643   4.478  68.195  1.00  0.00    -0.146 C  
ENDBRANCH  17  18
ENDBRANCH  12  13
ENDBRANCH  11  12
ENDBRANCH   1  11
TORSDOF 6
ENDMDL
MODEL      270
REMARK 921   NORMALIZED FREE ENERGY PREDICTED BY IDOCK:   -0.96 KCAL/MOL
REMARK 922        TOTAL FREE ENERGY PREDICTED BY IDOCK:   -2.08 KCAL/MOL
REMARK 923 INTER-LIGAND FREE ENERGY PREDICTED BY IDOCK:   -2.41 KCAL/MOL
REMARK 924 INTRA-LIGAND FREE ENERGY PREDICTED BY IDOCK:    0.33 KCAL/MOL
REMARK 927      BINDING AFFINITY PREDICTED BY RF-SCORE:    0.00 PKD
ROOT
HETATM    1  C   UNL     1      -7.186  11.839  68.002  1.00  0.00    -0.084 C  
HETATM    2  H   UNL     1      -7.522  10.889  66.327  1.00  0.00     0.000 HD 
HETATM    3  O   UNL     1      -7.307  11.782  66.570  1.00  0.00    -0.041 OA 
ENDROOT
BRANCH   1   4
HETATM    4  C   UNL     1      -6.837  13.290  68.396  1.00  0.00    -0.098 C  
BRANCH   4   5
HETATM    5  N   UNL     1      -8.003  14.177  68.425  1.00  0.00    -0.136 NA 
HETATM    6  C   UNL     1      -9.065  16.352  68.348  1.00  0.00    -0.214 C  
HETATM    7  C   UNL     1      -7.147  15.890  66.824  1.00  0.00    -0.015 C  
HETATM    8  C   UNL     1      -7.717  15.613  68.226  1.00  0.00    -0.130 C  
HETATM    9  H   UNL     1      -8.522  14.043  69.293  1.00  0.00     0.000 HD 
HETATM   10  C   UNL     1      -6.766  16.165  69.302  1.00  0.00    -0.198 C  
ENDBRANCH   4   5
ENDBRANCH   1   4
BRANCH   1  11
HETATM   11  C   UNL     1      -8.476  11.314  68.646  1.00  0.00    -0.143 C  
BRANCH  11  12
HETATM   12  O   UNL     1      -9.589  11.859  67.931  1.00  0.00    -0.181 OA 
BRANCH  12  13
HETATM   13  C   UNL     1     -10.519  12.489  68.700  1.00  0.00    -0.200 A  
HETATM   14  N   UNL     1     -10.805  12.013  69.913  1.00  0.00     0.329 NA 
HETATM   15  S   UNL     1     -12.040  12.998  70.456  1.00  0.00    -0.188 SA 
HETATM   16  N   UNL     1     -12.224  14.012  69.147  1.00  0.00    -0.323 NA 
HETATM   17  C   UNL     1     -11.297  13.642  68.255  1.00  0.00    -0.289 A  
BRANCH  17  18
HETATM   18  N   UNL     1     -11.159  14.220  67.024  1.00  0.00    -0.304 NA 
HETATM   19  C   UNL     1     -11.791  15.489  66.655  1.00  0.00     0.409 C  
HETATM   20  C   UNL     1     -10.788  16.303  65.821  1.00  0.00    -0.169 C  
HETATM   21  O   UNL     1     -10.357  15.569  64.660  1.00  0.00    -0.318 OA 
HETATM   22  C   UNL     1      -9.750  14.320  65.042  1.00  0.00     0.166 C  
HETATM   23  C   UNL     1     -10.714  13.442  65.862  1.00  0.00    -0.279 C  
ENDBRANCH  17  18
ENDBRANCH  12  13
ENDBRANCH  11  12
ENDBRANCH   1  11
TORSDOF 6
ENDMDL
MODEL      271
REMARK 921   NORMALIZED FREE ENERGY PREDICTED BY IDOCK:    1.56 KCAL/MOL
REMARK 922        TOTAL FREE ENERGY PREDICTED BY IDOCK:    1.32 KCAL/MOL
REMARK 923 INTER-LIGAND FREE ENERGY PREDICTED BY IDOCK:   -3.06 KCAL/MOL
REMARK 924 INTRA-LIGAND FREE ENERGY PREDICTED BY IDOCK:    4.38 KCAL/MOL
REMARK 927      BINDING AFFINITY PREDICTED BY RF-SCORE:    0.00 PKD
ROOT
HETATM    1  C   UNL     1      -6.997  17.977  65.119  1.00  0.00     0.806 C  
HETATM    2  H   UNL     1      -8.262  19.364  64.573  1.00  0.00     0.000 HD 
HETATM    3  O   UNL     1      -7.458  19.339  65.077  1.00  0.00    -0.179 OA 
ENDROOT
BRANCH   1   4
HETATM    4  C   UNL     1      -5.691  17.937  65.940  1.00  0.00    -0.198 C  
BRANCH   4   5
HETATM    5  N   UNL     1      -5.199  19.268  66.308  1.00  0.00    -0.149 NA 
HETATM    6  C   UNL     1      -5.349  21.374  67.492  1.00  0.00    -0.348 C  
HETATM    7  C   UNL     1      -6.032  19.281  68.662  1.00  0.00    -0.238 C  
HETATM    8  C   UNL     1      -6.016  19.997  67.300  1.00  0.00    -0.175 C  
HETATM    9  H   UNL     1      -5.075  19.838  65.471  1.00  0.00     0.000 HD 
HETATM   10  C   UNL     1      -7.454  20.224  66.804  1.00  0.00    -0.333 C  
ENDBRANCH   4   5
ENDBRANCH   1   4
BRANCH   1  11
HETATM   11  C   UNL     1      -8.108  17.078  65.676  1.00  0.00     0.677 C  
BRANCH  11  12
HETATM   12  O   UNL     1      -9.287  17.872  65.847  1.00  0.00    -0.520 OA 
BRANCH  12  13
HETATM   13  C   UNL     1      -9.803  17.879  67.106  1.00  0.00    -0.308 A  
HETATM   14  N   UNL     1      -9.761  18.999  67.830  1.00  0.00    -0.312 NA 
HETATM   15  S   UNL     1     -10.391  18.550  69.311  1.00  0.00     0.484 SA 
HETATM   16  N   UNL     1     -10.697  16.935  69.039  1.00  0.00    -0.328 NA 
HETATM   17  C   UNL     1     -10.356  16.699  67.766  1.00  0.00    -0.306 A  
BRANCH  17  18
HETATM   18  N   UNL     1     -10.428  15.466  67.179  1.00  0.00    -0.284 NA 
HETATM   19  C   UNL     1      -9.448  14.404  67.416  1.00  0.00    -0.207 C  
HETATM   20  C   UNL     1     -10.201  13.068  67.526  1.00  0.00    -0.221 C  
HETATM   21  O   UNL     1     -10.985  12.811  66.346  1.00  0.00    -0.267 OA 
HETATM   22  C   UNL     1     -11.934  13.872  66.124  1.00  0.00    -0.423 C  
HETATM   23  C   UNL     1     -11.240  15.240  65.978  1.00  0.00    -0.231 C  
ENDBRANCH  17  18
ENDBRANCH  12  13
ENDBRANCH  11  12
ENDBRANCH   1  11
TORSDOF 6
ENDMDL
MODEL      272
REMARK 921   NORMALIZED FREE ENERGY PREDICTED BY IDOCK:    2.47 KCAL/MOL
REMARK 922        TOTAL FREE ENERGY PREDICTED BY IDOCK:    2.55 KCAL/MOL
REMARK 923 INTER-LIGAND FREE ENERGY PREDICTED BY IDOCK:   -1.82 KCAL/MOL
REMARK 924 INTRA-LIGAND FREE ENERGY PREDICTED BY IDOCK:    4.38 KCAL/MOL
REMARK 927      BINDING AFFINITY PREDICTED BY RF-SCORE:    0.00 PKD
ROOT
HETATM    1  C   UNL     1      -7.020  17.917  65.042  1.00  0.00     1.405 C  
HETATM    2  H   UNL     1      -8.414  19.258  64.759  1.00  0.00     0.000 HD 
HETATM    3  O   UNL     1      -7.542  19.254  65.134  1.00  0.00    -0.221 OA 
ENDROOT
BRANCH   1   4
HETATM    4  C   UNL     1      -5.602  17.912  65.652  1.00  0.00    -0.146 C  
BRANCH   4   5
HETATM    5  N   UNL     1      -5.229  19.194  66.256  1.00  0.00    -0.148 NA 
HETATM    6  C   UNL     1      -5.520  21.002  67.840  1.00  0.00    -0.348 C  
HETATM    7  C   UNL     1      -5.906  18.659  68.598  1.00  0.00    -0.206 C  
HETATM    8  C   UNL     1      -6.052  19.621  67.406  1.00  0.00    -0.189 C  
HETATM    9  H   UNL     1      -5.218  19.925  65.545  1.00  0.00     0.000 HD 
HETATM   10  C   UNL     1      -7.534  19.773  67.026  1.00  0.00    -0.267 C  
ENDBRANCH   4   5
ENDBRANCH   1   4
BRANCH   1  11
HETATM   11  C   UNL     1      -7.991  16.942  65.719  1.00  0.00     0.406 C  
BRANCH  11  12
HETATM   12  O   UNL     1      -7.468  16.610  67.009  1.00  0.00    -0.162 OA 
BRANCH  12  13
HETATM   13  C   UNL     1      -7.072  15.317  67.159  1.00  0.00    -0.055 A  
HETATM   14  N   UNL     1      -5.777  15.037  67.319  1.00  0.00    -0.261 NA 
HETATM   15  S   UNL     1      -5.723  13.368  67.360  1.00  0.00     0.291 SA 
HETATM   16  N   UNL     1      -7.335  13.002  67.157  1.00  0.00    -0.041 NA 
HETATM   17  C   UNL     1      -7.979  14.174  67.090  1.00  0.00    -0.075 A  
BRANCH  17  18
HETATM   18  N   UNL     1      -9.326  14.287  66.885  1.00  0.00    -0.246 NA 
HETATM   19  C   UNL     1      -9.959  14.105  65.577  1.00  0.00    -0.295 C  
HETATM   20  C   UNL     1     -11.269  13.327  65.778  1.00  0.00    -0.294 C  
HETATM   21  O   UNL     1     -12.143  14.005  66.699  1.00  0.00    -0.428 OA 
HETATM   22  C   UNL     1     -11.500  14.185  67.975  1.00  0.00    -0.312 C  
HETATM   23  C   UNL     1     -10.188  14.983  67.847  1.00  0.00    -0.228 C  
ENDBRANCH  17  18
ENDBRANCH  12  13
ENDBRANCH  11  12
ENDBRANCH   1  11
TORSDOF 6
ENDMDL
MODEL      273
REMARK 921   NORMALIZED FREE ENERGY PREDICTED BY IDOCK:    2.59 KCAL/MOL
REMARK 922        TOTAL FREE ENERGY PREDICTED BY IDOCK:    2.71 KCAL/MOL
REMARK 923 INTER-LIGAND FREE ENERGY PREDICTED BY IDOCK:    2.86 KCAL/MOL
REMARK 924 INTRA-LIGAND FREE ENERGY PREDICTED BY IDOCK:   -0.15 KCAL/MOL
REMARK 927      BINDING AFFINITY PREDICTED BY RF-SCORE:    0.00 PKD
ROOT
HETATM    1  C   UNL     1      -5.839  13.542  69.546  1.00  0.00    -0.104 C  
HETATM    2  H   UNL     1      -5.917  14.729  67.994  1.00  0.00     0.000 HD 
HETATM    3  O   UNL     1      -5.604  14.800  68.888  1.00  0.00    -0.085 OA 
ENDROOT
BRANCH   1   4
HETATM    4  C   UNL     1      -5.330  13.658  70.999  1.00  0.00    -0.170 C  
BRANCH   4   5
HETATM    5  N   UNL     1      -6.409  13.831  71.976  1.00  0.00    -0.172 NA 
HETATM    6  C   UNL     1      -7.265  14.076  74.227  1.00  0.00     3.810 C  
HETATM    7  C   UNL     1      -5.145  15.232  73.610  1.00  0.00     1.426 C  
HETATM    8  C   UNL     1      -5.979  13.960  73.383  1.00  0.00     0.493 C  
HETATM    9  H   UNL     1      -7.086  13.073  71.886  1.00  0.00     0.000 HD 
HETATM   10  C   UNL     1      -5.200  12.723  73.862  1.00  0.00     0.287 C  
ENDBRANCH   4   5
ENDBRANCH   1   4
BRANCH   1  11
HETATM   11  C   UNL     1      -7.324  13.177  69.435  1.00  0.00     0.337 C  
BRANCH  11  12
HETATM   12  O   UNL     1      -7.975  14.172  68.639  1.00  0.00    -0.138 OA 
BRANCH  12  13
HETATM   13  C   UNL     1      -9.327  14.049  68.549  1.00  0.00    -0.182 A  
HETATM   14  N   UNL     1      -9.879  12.835  68.506  1.00  0.00    -0.187 NA 
HETATM   15  S   UNL     1     -11.508  13.136  68.296  1.00  0.00    -0.338 SA 
HETATM   16  N   UNL     1     -11.511  14.801  68.241  1.00  0.00    -0.303 NA 
HETATM   17  C   UNL     1     -10.241  15.183  68.426  1.00  0.00    -0.221 A  
BRANCH  17  18
HETATM   18  N   UNL     1      -9.832  16.487  68.406  1.00  0.00    -0.229 NA 
HETATM   19  C   UNL     1      -8.474  16.910  68.756  1.00  0.00    -0.244 C  
HETATM   20  C   UNL     1      -8.044  18.014  67.776  1.00  0.00    -0.237 C  
HETATM   21  O   UNL     1      -8.966  19.120  67.800  1.00  0.00    -0.287 OA 
HETATM   22  C   UNL     1     -10.297  18.683  67.465  1.00  0.00    -0.411 C  
HETATM   23  C   UNL     1     -10.799  17.590  68.427  1.00  0.00    -0.188 C  
ENDBRANCH  17  18
ENDBRANCH  12  13
ENDBRANCH  11  12
ENDBRANCH   1  11
TORSDOF 6
ENDMDL
MODEL      274
REMARK 921   NORMALIZED FREE ENERGY PREDICTED BY IDOCK:   13.24 KCAL/MOL
REMARK 922        TOTAL FREE ENERGY PREDICTED BY IDOCK:   17.11 KCAL/MOL
REMARK 923 INTER-LIGAND FREE ENERGY PREDICTED BY IDOCK:   13.37 KCAL/MOL
REMARK 924 INTRA-LIGAND FREE ENERGY PREDICTED BY IDOCK:    3.74 KCAL/MOL
REMARK 927      BINDING AFFINITY PREDICTED BY RF-SCORE:    0.00 PKD
ROOT
HETATM    1  C   UNL     1      -9.864  18.759  68.661  1.00  0.00    -0.392 C  
HETATM    2  H   UNL     1     -11.339  19.746  67.841  1.00  0.00     0.000 HD 
HETATM    3  O   UNL     1     -11.166  19.369  68.695  1.00  0.00     0.870 OA 
ENDROOT
BRANCH   1   4
HETATM    4  C   UNL     1      -9.584  18.146  70.050  1.00  0.00     1.390 C  
BRANCH   4   5
HETATM    5  N   UNL     1      -9.577  19.139  71.129  1.00  0.00     2.676 NA 
HETATM    6  C   UNL     1      -8.639  21.025  72.322  1.00  0.00     3.517 C  
HETATM    7  C   UNL     1      -8.577  21.022  69.830  1.00  0.00     3.249 C  
HETATM    8  C   UNL     1      -8.480  20.127  71.078  1.00  0.00     2.011 C  
HETATM    9  H   UNL     1      -9.582  18.670  72.034  1.00  0.00     0.000 HD 
HETATM   10  C   UNL     1      -7.098  19.456  71.142  1.00  0.00     1.583 C  
ENDBRANCH   4   5
ENDBRANCH   1   4
BRANCH   1  11
HETATM   11  C   UNL     1      -9.804  17.745  67.512  1.00  0.00    -0.304 C  
BRANCH  11  12
HETATM   12  O   UNL     1     -10.509  16.566  67.915  1.00  0.00    -0.290 OA 
BRANCH  12  13
HETATM   13  C   UNL     1     -10.368  15.496  67.086  1.00  0.00    -0.272 A  
HETATM   14  N   UNL     1     -11.453  14.894  66.595  1.00  0.00    -0.332 NA 
HETATM   15  S   UNL     1     -10.845  13.598  65.734  1.00  0.00    -0.276 SA 
HETATM   16  N   UNL     1      -9.211  13.790  66.000  1.00  0.00    -0.011 NA 
HETATM   17  C   UNL     1      -9.081  14.899  66.739  1.00  0.00    -0.270 A  
BRANCH  17  18
HETATM   18  N   UNL     1      -7.881  15.366  67.197  1.00  0.00    -0.202 NA 
HETATM   19  C   UNL     1      -6.736  14.499  67.486  1.00  0.00    -0.116 C  
HETATM   20  C   UNL     1      -5.460  15.203  66.995  1.00  0.00     0.973 C  
HETATM   21  O   UNL     1      -5.311  16.498  67.607  1.00  0.00    -0.117 OA 
HETATM   22  C   UNL     1      -6.450  17.331  67.322  1.00  0.00    -0.157 C  
HETATM   23  C   UNL     1      -7.763  16.693  67.813  1.00  0.00    -0.163 C  
ENDBRANCH  17  18
ENDBRANCH  12  13
ENDBRANCH  11  12
ENDBRANCH   1  11
TORSDOF 6
ENDMDL
MODEL      275
REMARK 921   NORMALIZED FREE ENERGY PREDICTED BY IDOCK:   13.49 KCAL/MOL
REMARK 922        TOTAL FREE ENERGY PREDICTED BY IDOCK:   17.44 KCAL/MOL
REMARK 923 INTER-LIGAND FREE ENERGY PREDICTED BY IDOCK:   10.95 KCAL/MOL
REMARK 924 INTRA-LIGAND FREE ENERGY PREDICTED BY IDOCK:    6.48 KCAL/MOL
REMARK 927      BINDING AFFINITY PREDICTED BY RF-SCORE:    0.00 PKD
ROOT
HETATM    1  C   UNL     1     -10.208  16.093  70.847  1.00  0.00     1.152 C  
HETATM    2  H   UNL     1      -8.727  15.602  69.670  1.00  0.00     0.000 HD 
HETATM    3  O   UNL     1      -8.808  15.978  70.538  1.00  0.00     1.342 OA 
ENDROOT
BRANCH   1   4
HETATM    4  C   UNL     1     -10.340  16.705  72.258  1.00  0.00     4.649 C  
BRANCH   4   5
HETATM    5  N   UNL     1     -11.072  15.847  73.194  1.00  0.00     0.926 NA 
HETATM    6  C   UNL     1     -13.097  14.954  74.174  1.00  0.00     0.829 C  
HETATM    7  C   UNL     1     -13.013  15.331  71.711  1.00  0.00    -0.475 C  
HETATM    8  C   UNL     1     -12.543  15.878  73.071  1.00  0.00    -0.501 C  
HETATM    9  H   UNL     1     -10.797  16.062  74.152  1.00  0.00     0.000 HD 
HETATM   10  C   UNL     1     -13.109  17.290  73.297  1.00  0.00     2.594 C  
ENDBRANCH   4   5
ENDBRANCH   1   4
BRANCH   1  11
HETATM   11  C   UNL     1     -10.909  16.905  69.750  1.00  0.00    -0.035 C  
BRANCH  11  12
HETATM   12  O   UNL     1     -10.036  17.966  69.348  1.00  0.00    -0.210 OA 
BRANCH  12  13
HETATM   13  C   UNL     1      -9.990  18.203  68.009  1.00  0.00    -0.345 A  
HETATM   14  N   UNL     1      -9.529  19.372  67.561  1.00  0.00    -0.305 NA 
HETATM   15  S   UNL     1      -9.740  19.286  65.906  1.00  0.00     0.030 SA 
HETATM   16  N   UNL     1     -10.432  17.777  65.761  1.00  0.00    -0.583 NA 
HETATM   17  C   UNL     1     -10.486  17.270  67.000  1.00  0.00    -0.287 A  
BRANCH  17  18
HETATM   18  N   UNL     1     -11.032  16.053  67.296  1.00  0.00    -0.261 NA 
HETATM   19  C   UNL     1     -10.440  15.118  68.256  1.00  0.00    -0.241 C  
HETATM   20  C   UNL     1     -11.575  14.483  69.075  1.00  0.00    -0.298 C  
HETATM   21  O   UNL     1     -12.533  13.830  68.221  1.00  0.00    -0.098 OA 
HETATM   22  C   UNL     1     -13.095  14.762  67.278  1.00  0.00     2.616 C  
HETATM   23  C   UNL     1     -12.008  15.417  66.404  1.00  0.00     0.454 C  
ENDBRANCH  17  18
ENDBRANCH  12  13
ENDBRANCH  11  12
ENDBRANCH   1  11
TORSDOF 6
ENDMDL
MODEL      276
REMARK 921   NORMALIZED FREE ENERGY PREDICTED BY IDOCK:   45.67 KCAL/MOL
REMARK 922        TOTAL FREE ENERGY PREDICTED BY IDOCK:   60.90 KCAL/MOL
REMARK 923 INTER-LIGAND FREE ENERGY PREDICTED BY IDOCK:   53.31 KCAL/MOL
REMARK 924 INTRA-LIGAND FREE ENERGY PREDICTED BY IDOCK:    7.59 KCAL/MOL
REMARK 927      BINDING AFFINITY PREDICTED BY RF-SCORE:    0.00 PKD
ROOT
HETATM    1  C   UNL     1     -10.615  18.011  68.539  1.00  0.00    -0.172 C  
HETATM    2  H   UNL     1      -9.111  17.426  67.437  1.00  0.00     0.000 HD 
HETATM    3  O   UNL     1      -9.244  18.082  68.110  1.00  0.00    -0.265 OA 
ENDROOT
BRANCH   1   4
HETATM    4  C   UNL     1     -10.832  19.077  69.635  1.00  0.00     1.804 C  
BRANCH   4   5
HETATM    5  N   UNL     1     -10.726  18.538  70.994  1.00  0.00     1.658 NA 
HETATM    6  C   UNL     1      -9.776  18.463  73.219  1.00  0.00     7.708 C  
HETATM    7  C   UNL     1     -10.171  20.680  72.150  1.00  0.00     4.240 C  
HETATM    8  C   UNL     1      -9.760  19.223  71.877  1.00  0.00     4.247 C  
HETATM    9  H   UNL     1     -10.519  17.540  70.958  1.00  0.00     0.000 HD 
HETATM   10  C   UNL     1      -8.330  19.172  71.313  1.00  0.00     4.769 C  
ENDBRANCH   4   5
ENDBRANCH   1   4
BRANCH   1  11
HETATM   11  C   UNL     1     -11.540  18.172  67.325  1.00  0.00     1.431 C  
BRANCH  11  12
HETATM   12  O   UNL     1     -11.412  19.511  66.837  1.00  0.00     0.033 OA 
BRANCH  12  13
HETATM   13  C   UNL     1     -11.329  19.629  65.484  1.00  0.00     0.751 A  
HETATM   14  N   UNL     1     -11.423  20.834  64.919  1.00  0.00     1.216 NA 
HETATM   15  S   UNL     1     -11.375  20.519  63.279  1.00  0.00    10.326 SA 
HETATM   16  N   UNL     1     -11.256  18.857  63.286  1.00  0.00    11.110 NA 
HETATM   17  C   UNL     1     -11.207  18.492  64.574  1.00  0.00     3.679 A  
BRANCH  17  18
HETATM   18  N   UNL     1     -11.147  17.191  64.990  1.00  0.00    -0.608 NA 
HETATM   19  C   UNL     1     -11.029  16.801  66.396  1.00  0.00     0.150 C  
HETATM   20  C   UNL     1     -11.929  15.578  66.636  1.00  0.00     0.569 C  
HETATM   21  O   UNL     1     -11.583  14.494  65.754  1.00  0.00    -0.347 OA 
HETATM   22  C   UNL     1     -11.694  14.901  64.377  1.00  0.00    -0.328 C  
HETATM   23  C   UNL     1     -10.793  16.110  64.063  1.00  0.00     1.339 C  
ENDBRANCH  17  18
ENDBRANCH  12  13
ENDBRANCH  11  12
ENDBRANCH   1  11
TORSDOF 6
ENDMDL
