MODEL        1
REMARK 921   NORMALIZED FREE ENERGY PREDICTED BY IDOCK:   -5.39 KCAL/MOL
REMARK 922        TOTAL FREE ENERGY PREDICTED BY IDOCK:   -7.06 KCAL/MOL
REMARK 923 INTER-LIGAND FREE ENERGY PREDICTED BY IDOCK:   -6.64 KCAL/MOL
REMARK 924 INTRA-LIGAND FREE ENERGY PREDICTED BY IDOCK:   -0.41 KCAL/MOL
REMARK 927      BINDING AFFINITY PREDICTED BY RF-SCORE:    0.00 PKD
ROOT
HETATM    1  C   UNL     1     -10.582  11.471  63.442  1.00  0.00    -0.460 C  
HETATM    2  C   UNL     1     -10.703  12.755  64.241  1.00  0.00    -0.394 C  
ENDROOT
BRANCH   2   3
HETATM    3  S   UNL     1     -12.405  13.268  64.405  1.00  0.00    -0.322 S  
HETATM    4  O   UNL     1     -13.246  12.093  64.286  1.00  0.00    -0.768 OA 
HETATM    5  O   UNL     1     -12.619  14.426  63.559  1.00  0.00    -0.784 OA 
BRANCH   3   6
HETATM    6  C   UNL     1     -12.509  13.813  66.094  1.00  0.00    -0.418 C  
BRANCH   6   7
HETATM    7  C   UNL     1     -11.110  13.957  66.669  1.00  0.00    -0.306 C  
BRANCH   7   8
HETATM    8  N   UNL     1     -10.986  15.109  67.550  1.00  0.00    -0.302 NA 
HETATM    9  C   UNL     1     -11.221  15.092  68.918  1.00  0.00    -0.277 A  
HETATM   10  N   UNL     1     -11.115  16.304  69.427  1.00  0.00    -0.328 NA 
HETATM   11  C   UNL     1     -11.554  13.882  69.719  1.00  0.00    -0.335 C  
HETATM   12  C   UNL     1     -10.785  17.130  68.389  1.00  0.00    -0.347 A  
HETATM   13  C   UNL     1     -10.674  16.409  67.228  1.00  0.00    -0.257 A  
HETATM   14  N   UNL     1     -10.285  16.896  65.949  1.00  0.00    -0.337 N  
HETATM   15  O   UNL     1     -10.095  16.067  65.053  1.00  0.00    -0.463 OA 
HETATM   16  O   UNL     1     -10.128  18.117  65.846  1.00  0.00    -0.546 OA 
ENDBRANCH   7   8
ENDBRANCH   6   7
ENDBRANCH   3   6
ENDBRANCH   2   3
TORSDOF 4
ENDMDL
MODEL        2
REMARK 921   NORMALIZED FREE ENERGY PREDICTED BY IDOCK:   -5.37 KCAL/MOL
REMARK 922        TOTAL FREE ENERGY PREDICTED BY IDOCK:   -7.04 KCAL/MOL
REMARK 923 INTER-LIGAND FREE ENERGY PREDICTED BY IDOCK:   -6.69 KCAL/MOL
REMARK 924 INTRA-LIGAND FREE ENERGY PREDICTED BY IDOCK:   -0.35 KCAL/MOL
REMARK 927      BINDING AFFINITY PREDICTED BY RF-SCORE:    0.00 PKD
ROOT
HETATM    1  C   UNL     1     -10.416  19.830  66.694  1.00  0.00    -0.615 C  
HETATM    2  C   UNL     1     -10.391  18.417  66.143  1.00  0.00    -0.407 C  
ENDROOT
BRANCH   2   3
HETATM    3  S   UNL     1      -8.938  17.528  66.681  1.00  0.00    -0.268 S  
HETATM    4  O   UNL     1      -8.743  17.794  68.093  1.00  0.00    -0.251 OA 
HETATM    5  O   UNL     1      -7.875  17.763  65.724  1.00  0.00    -0.541 OA 
BRANCH   3   6
HETATM    6  C   UNL     1      -9.422  15.824  66.536  1.00  0.00    -0.272 C  
BRANCH   6   7
HETATM    7  C   UNL     1     -10.922  15.700  66.752  1.00  0.00    -0.230 C  
BRANCH   7   8
HETATM    8  N   UNL     1     -11.421  14.368  66.448  1.00  0.00    -0.351 NA 
HETATM    9  C   UNL     1     -11.419  13.297  67.331  1.00  0.00    -0.332 A  
HETATM   10  N   UNL     1     -11.850  12.200  66.739  1.00  0.00    -0.606 NA 
HETATM   11  C   UNL     1     -10.986  13.357  68.755  1.00  0.00    -0.290 C  
HETATM   12  C   UNL     1     -12.162  12.552  65.456  1.00  0.00    -0.377 A  
HETATM   13  C   UNL     1     -11.930  13.890  65.263  1.00  0.00    -0.375 A  
HETATM   14  N   UNL     1     -12.190  14.645  64.086  1.00  0.00    -0.425 N  
HETATM   15  O   UNL     1     -12.057  15.871  64.150  1.00  0.00    -0.615 OA 
HETATM   16  O   UNL     1     -12.571  14.012  63.095  1.00  0.00    -0.733 OA 
ENDBRANCH   7   8
ENDBRANCH   6   7
ENDBRANCH   3   6
ENDBRANCH   2   3
TORSDOF 4
ENDMDL
MODEL        3
REMARK 921   NORMALIZED FREE ENERGY PREDICTED BY IDOCK:   -5.34 KCAL/MOL
REMARK 922        TOTAL FREE ENERGY PREDICTED BY IDOCK:   -7.00 KCAL/MOL
REMARK 923 INTER-LIGAND FREE ENERGY PREDICTED BY IDOCK:   -6.55 KCAL/MOL
REMARK 924 INTRA-LIGAND FREE ENERGY PREDICTED BY IDOCK:   -0.44 KCAL/MOL
REMARK 927      BINDING AFFINITY PREDICTED BY RF-SCORE:    0.00 PKD
ROOT
HETATM    1  C   UNL     1     -10.478  11.618  63.484  1.00  0.00    -0.498 C  
HETATM    2  C   UNL     1     -10.672  12.823  64.386  1.00  0.00    -0.376 C  
ENDROOT
BRANCH   2   3
HETATM    3  S   UNL     1     -12.381  13.339  64.433  1.00  0.00    -0.322 S  
HETATM    4  O   UNL     1     -13.212  12.151  64.403  1.00  0.00    -0.758 OA 
HETATM    5  O   UNL     1     -12.565  14.404  63.468  1.00  0.00    -0.784 OA 
BRANCH   3   6
HETATM    6  C   UNL     1     -12.550  14.050  66.054  1.00  0.00    -0.414 C  
BRANCH   6   7
HETATM    7  C   UNL     1     -11.285  13.794  66.857  1.00  0.00    -0.313 C  
BRANCH   7   8
HETATM    8  N   UNL     1     -11.561  13.219  68.164  1.00  0.00    -0.316 NA 
HETATM    9  C   UNL     1     -11.535  11.862  68.457  1.00  0.00    -0.295 A  
HETATM   10  N   UNL     1     -11.916  11.644  69.701  1.00  0.00    -0.322 NA 
HETATM   11  C   UNL     1     -11.140  10.785  67.508  1.00  0.00    -0.374 C  
HETATM   12  C   UNL     1     -12.177  12.870  70.245  1.00  0.00    -0.289 A  
HETATM   13  C   UNL     1     -11.939  13.857  69.323  1.00  0.00    -0.357 A  
HETATM   14  N   UNL     1     -12.032  15.262  69.525  1.00  0.00    -0.332 N  
HETATM   15  O   UNL     1     -11.632  16.000  68.619  1.00  0.00    -0.386 OA 
HETATM   16  O   UNL     1     -12.472  15.635  70.618  1.00  0.00    -0.416 OA 
ENDBRANCH   7   8
ENDBRANCH   6   7
ENDBRANCH   3   6
ENDBRANCH   2   3
TORSDOF 4
ENDMDL
MODEL        4
REMARK 921   NORMALIZED FREE ENERGY PREDICTED BY IDOCK:   -5.31 KCAL/MOL
REMARK 922        TOTAL FREE ENERGY PREDICTED BY IDOCK:   -6.97 KCAL/MOL
REMARK 923 INTER-LIGAND FREE ENERGY PREDICTED BY IDOCK:   -6.45 KCAL/MOL
REMARK 924 INTRA-LIGAND FREE ENERGY PREDICTED BY IDOCK:   -0.52 KCAL/MOL
REMARK 927      BINDING AFFINITY PREDICTED BY RF-SCORE:    0.00 PKD
ROOT
HETATM    1  C   UNL     1      -9.934  10.813  64.807  1.00  0.00    -0.382 C  
HETATM    2  C   UNL     1     -10.569  12.089  64.288  1.00  0.00    -0.334 C  
ENDROOT
BRANCH   2   3
HETATM    3  S   UNL     1     -12.040  12.511  65.208  1.00  0.00    -0.400 S  
HETATM    4  O   UNL     1     -11.938  11.911  66.524  1.00  0.00    -0.588 OA 
HETATM    5  O   UNL     1     -13.194  12.269  64.365  1.00  0.00    -0.806 OA 
BRANCH   3   6
HETATM    6  C   UNL     1     -11.897  14.269  65.427  1.00  0.00    -0.363 C  
BRANCH   6   7
HETATM    7  C   UNL     1     -10.488  14.714  65.072  1.00  0.00    -0.421 C  
BRANCH   7   8
HETATM    8  N   UNL     1      -9.845  15.444  66.154  1.00  0.00    -0.288 NA 
HETATM    9  C   UNL     1      -9.031  14.875  67.124  1.00  0.00    -0.214 A  
HETATM   10  N   UNL     1      -8.671  15.774  68.019  1.00  0.00    -0.170 NA 
HETATM   11  C   UNL     1      -8.616  13.446  67.167  1.00  0.00    -0.201 C  
HETATM   12  C   UNL     1      -9.234  16.956  67.627  1.00  0.00    -0.228 A  
HETATM   13  C   UNL     1      -9.940  16.781  66.465  1.00  0.00    -0.298 A  
HETATM   14  N   UNL     1     -10.613  17.781  65.710  1.00  0.00    -0.284 N  
HETATM   15  O   UNL     1     -11.068  17.460  64.608  1.00  0.00    -1.029 OA 
HETATM   16  O   UNL     1     -10.653  18.913  66.205  1.00  0.00    -0.446 OA 
ENDBRANCH   7   8
ENDBRANCH   6   7
ENDBRANCH   3   6
ENDBRANCH   2   3
TORSDOF 4
ENDMDL
MODEL        5
REMARK 921   NORMALIZED FREE ENERGY PREDICTED BY IDOCK:   -5.21 KCAL/MOL
REMARK 922        TOTAL FREE ENERGY PREDICTED BY IDOCK:   -6.84 KCAL/MOL
REMARK 923 INTER-LIGAND FREE ENERGY PREDICTED BY IDOCK:   -6.64 KCAL/MOL
REMARK 924 INTRA-LIGAND FREE ENERGY PREDICTED BY IDOCK:   -0.20 KCAL/MOL
REMARK 927      BINDING AFFINITY PREDICTED BY RF-SCORE:    0.00 PKD
ROOT
HETATM    1  C   UNL     1      -6.779  19.603  68.320  1.00  0.00    -0.313 C  
HETATM    2  C   UNL     1      -8.233  19.212  68.504  1.00  0.00    -0.364 C  
ENDROOT
BRANCH   2   3
HETATM    3  S   UNL     1      -9.142  19.324  66.971  1.00  0.00    -0.307 S  
HETATM    4  O   UNL     1      -8.252  18.951  65.889  1.00  0.00    -0.477 OA 
HETATM    5  O   UNL     1      -9.852  20.587  66.950  1.00  0.00    -0.450 OA 
BRANCH   3   6
HETATM    6  C   UNL     1     -10.353  18.031  67.117  1.00  0.00    -0.374 C  
BRANCH   6   7
HETATM    7  C   UNL     1      -9.818  16.758  66.483  1.00  0.00    -0.290 C  
BRANCH   7   8
HETATM    8  N   UNL     1     -10.722  15.630  66.650  1.00  0.00    -0.308 NA 
HETATM    9  C   UNL     1     -10.835  14.866  67.804  1.00  0.00    -0.286 A  
HETATM   10  N   UNL     1     -11.669  13.861  67.621  1.00  0.00    -0.347 NA 
HETATM   11  C   UNL     1     -10.115  15.125  69.081  1.00  0.00    -0.245 C  
HETATM   12  C   UNL     1     -12.132  13.972  66.339  1.00  0.00    -0.455 A  
HETATM   13  C   UNL     1     -11.580  15.071  65.732  1.00  0.00    -0.171 A  
HETATM   14  N   UNL     1     -11.859  15.560  64.425  1.00  0.00    -0.322 N  
HETATM   15  O   UNL     1     -11.378  16.652  64.106  1.00  0.00    -1.141 OA 
HETATM   16  O   UNL     1     -12.600  14.866  63.721  1.00  0.00    -0.791 OA 
ENDBRANCH   7   8
ENDBRANCH   6   7
ENDBRANCH   3   6
ENDBRANCH   2   3
TORSDOF 4
ENDMDL
MODEL        6
REMARK 921   NORMALIZED FREE ENERGY PREDICTED BY IDOCK:   -5.14 KCAL/MOL
REMARK 922        TOTAL FREE ENERGY PREDICTED BY IDOCK:   -6.75 KCAL/MOL
REMARK 923 INTER-LIGAND FREE ENERGY PREDICTED BY IDOCK:   -6.43 KCAL/MOL
REMARK 924 INTRA-LIGAND FREE ENERGY PREDICTED BY IDOCK:   -0.32 KCAL/MOL
REMARK 927      BINDING AFFINITY PREDICTED BY RF-SCORE:    0.00 PKD
ROOT
HETATM    1  C   UNL     1     -12.413  11.923  63.534  1.00  0.00    -0.609 C  
HETATM    2  C   UNL     1     -11.188  12.798  63.721  1.00  0.00    -0.443 C  
ENDROOT
BRANCH   2   3
HETATM    3  S   UNL     1     -11.560  14.247  64.696  1.00  0.00    -0.406 S  
HETATM    4  O   UNL     1     -12.642  14.963  64.049  1.00  0.00    -0.832 OA 
HETATM    5  O   UNL     1     -10.314  14.913  65.021  1.00  0.00    -0.390 OA 
BRANCH   3   6
HETATM    6  C   UNL     1     -12.213  13.570  66.204  1.00  0.00    -0.433 C  
BRANCH   6   7
HETATM    7  C   UNL     1     -11.094  13.415  67.221  1.00  0.00    -0.282 C  
BRANCH   7   8
HETATM    8  N   UNL     1     -11.477  13.875  68.546  1.00  0.00    -0.289 NA 
HETATM    9  C   UNL     1     -11.400  15.191  68.985  1.00  0.00    -0.294 A  
HETATM   10  N   UNL     1     -11.732  15.281  70.258  1.00  0.00    -0.282 NA 
HETATM   11  C   UNL     1     -10.995  16.354  68.148  1.00  0.00    -0.339 C  
HETATM   12  C   UNL     1     -12.053  14.015  70.663  1.00  0.00    -0.354 A  
HETATM   13  C   UNL     1     -11.929  13.138  69.617  1.00  0.00    -0.306 A  
HETATM   14  N   UNL     1     -12.232  11.749  69.620  1.00  0.00    -0.230 N  
HETATM   15  O   UNL     1     -12.201  11.151  68.540  1.00  0.00    -0.600 OA 
HETATM   16  O   UNL     1     -12.546  11.254  70.708  1.00  0.00    -0.344 OA 
ENDBRANCH   7   8
ENDBRANCH   6   7
ENDBRANCH   3   6
ENDBRANCH   2   3
TORSDOF 4
ENDMDL
MODEL        7
REMARK 921   NORMALIZED FREE ENERGY PREDICTED BY IDOCK:   -5.09 KCAL/MOL
REMARK 922        TOTAL FREE ENERGY PREDICTED BY IDOCK:   -6.69 KCAL/MOL
REMARK 923 INTER-LIGAND FREE ENERGY PREDICTED BY IDOCK:   -6.37 KCAL/MOL
REMARK 924 INTRA-LIGAND FREE ENERGY PREDICTED BY IDOCK:   -0.32 KCAL/MOL
REMARK 927      BINDING AFFINITY PREDICTED BY RF-SCORE:    0.00 PKD
ROOT
HETATM    1  C   UNL     1     -12.033  13.449  64.130  1.00  0.00    -0.505 C  
HETATM    2  C   UNL     1     -12.527  13.921  65.484  1.00  0.00    -0.511 C  
ENDROOT
BRANCH   2   3
HETATM    3  S   UNL     1     -11.628  13.146  66.818  1.00  0.00    -0.386 S  
HETATM    4  O   UNL     1     -10.234  13.529  66.706  1.00  0.00    -0.256 OA 
HETATM    5  O   UNL     1     -12.015  11.750  66.882  1.00  0.00    -0.605 OA 
BRANCH   3   6
HETATM    6  C   UNL     1     -12.273  13.947  68.268  1.00  0.00    -0.150 C  
BRANCH   6   7
HETATM    7  C   UNL     1     -11.424  13.579  69.473  1.00  0.00    -0.255 C  
BRANCH   7   8
HETATM    8  N   UNL     1     -12.227  13.240  70.638  1.00  0.00    -0.366 NA 
HETATM    9  C   UNL     1     -12.608  11.953  70.994  1.00  0.00    -0.283 A  
HETATM   10  N   UNL     1     -13.405  11.974  72.045  1.00  0.00    -0.454 NA 
HETATM   11  C   UNL     1     -12.189  10.708  70.294  1.00  0.00    -0.417 C  
HETATM   12  C   UNL     1     -13.536  13.287  72.403  1.00  0.00    -0.594 A  
HETATM   13  C   UNL     1     -12.797  14.082  71.565  1.00  0.00    -0.362 A  
HETATM   14  N   UNL     1     -12.624  15.491  71.649  1.00  0.00    -0.386 N  
HETATM   15  O   UNL     1     -11.798  16.015  70.895  1.00  0.00    -0.393 OA 
HETATM   16  O   UNL     1     -13.291  16.080  72.507  1.00  0.00    -0.450 OA 
ENDBRANCH   7   8
ENDBRANCH   6   7
ENDBRANCH   3   6
ENDBRANCH   2   3
TORSDOF 4
ENDMDL
MODEL        8
REMARK 921   NORMALIZED FREE ENERGY PREDICTED BY IDOCK:   -5.09 KCAL/MOL
REMARK 922        TOTAL FREE ENERGY PREDICTED BY IDOCK:   -6.69 KCAL/MOL
REMARK 923 INTER-LIGAND FREE ENERGY PREDICTED BY IDOCK:   -6.17 KCAL/MOL
REMARK 924 INTRA-LIGAND FREE ENERGY PREDICTED BY IDOCK:   -0.52 KCAL/MOL
REMARK 927      BINDING AFFINITY PREDICTED BY RF-SCORE:    0.00 PKD
ROOT
HETATM    1  C   UNL     1     -10.528  11.223  63.981  1.00  0.00    -0.440 C  
HETATM    2  C   UNL     1     -10.533  12.737  64.077  1.00  0.00    -0.406 C  
ENDROOT
BRANCH   2   3
HETATM    3  S   UNL     1     -12.197  13.387  64.102  1.00  0.00    -0.373 S  
HETATM    4  O   UNL     1     -12.996  12.547  64.973  1.00  0.00    -0.779 OA 
HETATM    5  O   UNL     1     -12.607  13.650  62.737  1.00  0.00    -0.456 OA 
BRANCH   3   6
HETATM    6  C   UNL     1     -12.012  14.955  64.918  1.00  0.00    -0.306 C  
BRANCH   6   7
HETATM    7  C   UNL     1     -10.633  15.041  65.551  1.00  0.00    -0.363 C  
BRANCH   7   8
HETATM    8  N   UNL     1     -10.690  15.353  66.971  1.00  0.00    -0.317 NA 
HETATM    9  C   UNL     1     -10.806  14.414  67.987  1.00  0.00    -0.243 A  
HETATM   10  N   UNL     1     -10.923  15.006  69.160  1.00  0.00    -0.249 NA 
HETATM   11  C   UNL     1     -10.805  12.938  67.798  1.00  0.00    -0.248 C  
HETATM   12  C   UNL     1     -10.863  16.351  68.922  1.00  0.00    -0.334 A  
HETATM   13  C   UNL     1     -10.693  16.586  67.582  1.00  0.00    -0.311 A  
HETATM   14  N   UNL     1     -10.522  17.847  66.946  1.00  0.00    -0.351 N  
HETATM   15  O   UNL     1     -10.231  17.850  65.746  1.00  0.00    -0.577 OA 
HETATM   16  O   UNL     1     -10.641  18.847  67.661  1.00  0.00    -0.420 OA 
ENDBRANCH   7   8
ENDBRANCH   6   7
ENDBRANCH   3   6
ENDBRANCH   2   3
TORSDOF 4
ENDMDL
MODEL        9
REMARK 921   NORMALIZED FREE ENERGY PREDICTED BY IDOCK:   -5.04 KCAL/MOL
REMARK 922        TOTAL FREE ENERGY PREDICTED BY IDOCK:   -6.64 KCAL/MOL
REMARK 923 INTER-LIGAND FREE ENERGY PREDICTED BY IDOCK:   -6.42 KCAL/MOL
REMARK 924 INTRA-LIGAND FREE ENERGY PREDICTED BY IDOCK:   -0.22 KCAL/MOL
REMARK 927      BINDING AFFINITY PREDICTED BY RF-SCORE:    0.00 PKD
ROOT
HETATM    1  C   UNL     1      -9.853  20.242  67.443  1.00  0.00    -0.586 C  
HETATM    2  C   UNL     1     -10.741  19.016  67.338  1.00  0.00    -0.473 C  
ENDROOT
BRANCH   2   3
HETATM    3  S   UNL     1     -10.184  17.912  66.049  1.00  0.00    -0.224 S  
HETATM    4  O   UNL     1      -8.743  18.032  65.943  1.00  0.00    -0.506 OA 
HETATM    5  O   UNL     1     -11.035  18.093  64.890  1.00  0.00    -0.718 OA 
BRANCH   3   6
HETATM    6  C   UNL     1     -10.523  16.299  66.716  1.00  0.00    -0.287 C  
BRANCH   6   7
HETATM    7  C   UNL     1      -9.992  15.235  65.770  1.00  0.00    -0.360 C  
BRANCH   7   8
HETATM    8  N   UNL     1     -10.282  13.885  66.230  1.00  0.00    -0.289 NA 
HETATM    9  C   UNL     1      -9.504  13.169  67.131  1.00  0.00    -0.239 A  
HETATM   10  N   UNL     1      -9.972  11.945  67.283  1.00  0.00    -0.186 NA 
HETATM   11  C   UNL     1      -8.301  13.691  67.834  1.00  0.00    -0.174 C  
HETATM   12  C   UNL     1     -11.084  11.856  66.492  1.00  0.00    -0.306 A  
HETATM   13  C   UNL     1     -11.307  13.049  65.855  1.00  0.00    -0.313 A  
HETATM   14  N   UNL     1     -12.396  13.375  65.000  1.00  0.00    -0.421 N  
HETATM   15  O   UNL     1     -12.511  14.551  64.638  1.00  0.00    -0.555 OA 
HETATM   16  O   UNL     1     -13.172  12.456  64.717  1.00  0.00    -0.784 OA 
ENDBRANCH   7   8
ENDBRANCH   6   7
ENDBRANCH   3   6
ENDBRANCH   2   3
TORSDOF 4
ENDMDL
MODEL       10
REMARK 921   NORMALIZED FREE ENERGY PREDICTED BY IDOCK:   -5.03 KCAL/MOL
REMARK 922        TOTAL FREE ENERGY PREDICTED BY IDOCK:   -6.62 KCAL/MOL
REMARK 923 INTER-LIGAND FREE ENERGY PREDICTED BY IDOCK:   -6.27 KCAL/MOL
REMARK 924 INTRA-LIGAND FREE ENERGY PREDICTED BY IDOCK:   -0.35 KCAL/MOL
REMARK 927      BINDING AFFINITY PREDICTED BY RF-SCORE:    0.00 PKD
ROOT
HETATM    1  C   UNL     1     -10.894  11.372  63.689  1.00  0.00    -0.459 C  
HETATM    2  C   UNL     1     -12.140  12.238  63.694  1.00  0.00    -0.554 C  
ENDROOT
BRANCH   2   3
HETATM    3  S   UNL     1     -11.837  13.819  64.467  1.00  0.00    -0.435 S  
HETATM    4  O   UNL     1     -12.767  14.781  63.909  1.00  0.00    -0.794 OA 
HETATM    5  O   UNL     1     -10.409  14.069  64.456  1.00  0.00    -0.419 OA 
BRANCH   3   6
HETATM    6  C   UNL     1     -12.320  13.549  66.157  1.00  0.00    -0.407 C  
BRANCH   6   7
HETATM    7  C   UNL     1     -11.093  13.606  67.053  1.00  0.00    -0.301 C  
BRANCH   7   8
HETATM    8  N   UNL     1     -11.358  14.274  68.317  1.00  0.00    -0.274 NA 
HETATM    9  C   UNL     1     -11.799  13.643  69.473  1.00  0.00    -0.337 A  
HETATM   10  N   UNL     1     -12.035  14.523  70.427  1.00  0.00    -0.298 NA 
HETATM   11  C   UNL     1     -11.990  12.175  69.632  1.00  0.00    -0.351 C  
HETATM   12  C   UNL     1     -11.728  15.749  69.905  1.00  0.00    -0.357 A  
HETATM   13  C   UNL     1     -11.283  15.615  68.615  1.00  0.00    -0.338 A  
HETATM   14  N   UNL     1     -10.809  16.648  67.759  1.00  0.00    -0.325 N  
HETATM   15  O   UNL     1     -10.307  16.315  66.681  1.00  0.00    -0.291 OA 
HETATM   16  O   UNL     1     -10.901  17.804  68.184  1.00  0.00    -0.329 OA 
ENDBRANCH   7   8
ENDBRANCH   6   7
ENDBRANCH   3   6
ENDBRANCH   2   3
TORSDOF 4
ENDMDL
MODEL       11
REMARK 921   NORMALIZED FREE ENERGY PREDICTED BY IDOCK:   -4.97 KCAL/MOL
REMARK 922        TOTAL FREE ENERGY PREDICTED BY IDOCK:   -6.54 KCAL/MOL
REMARK 923 INTER-LIGAND FREE ENERGY PREDICTED BY IDOCK:   -6.31 KCAL/MOL
REMARK 924 INTRA-LIGAND FREE ENERGY PREDICTED BY IDOCK:   -0.23 KCAL/MOL
REMARK 927      BINDING AFFINITY PREDICTED BY RF-SCORE:    0.00 PKD
ROOT
HETATM    1  C   UNL     1     -12.666  11.238  71.138  1.00  0.00    -0.492 C  
HETATM    2  C   UNL     1     -12.001  12.301  70.284  1.00  0.00    -0.290 C  
ENDROOT
BRANCH   2   3
HETATM    3  S   UNL     1     -11.158  11.584  68.882  1.00  0.00    -0.253 S  
HETATM    4  O   UNL     1     -12.151  10.965  68.027  1.00  0.00    -0.563 OA 
HETATM    5  O   UNL     1     -10.018  10.832  69.368  1.00  0.00    -0.198 OA 
BRANCH   3   6
HETATM    6  C   UNL     1     -10.533  13.002  68.011  1.00  0.00    -0.228 C  
BRANCH   6   7
HETATM    7  C   UNL     1     -11.693  13.866  67.544  1.00  0.00    -0.380 C  
BRANCH   7   8
HETATM    8  N   UNL     1     -11.319  14.763  66.462  1.00  0.00    -0.351 NA 
HETATM    9  C   UNL     1     -10.632  15.959  66.622  1.00  0.00    -0.305 A  
HETATM   10  N   UNL     1     -10.519  16.592  65.471  1.00  0.00    -0.568 NA 
HETATM   11  C   UNL     1     -10.091  16.475  67.910  1.00  0.00    -0.256 C  
HETATM   12  C   UNL     1     -11.121  15.799  64.534  1.00  0.00    -0.277 A  
HETATM   13  C   UNL     1     -11.597  14.654  65.119  1.00  0.00    -0.371 A  
HETATM   14  N   UNL     1     -12.226  13.556  64.470  1.00  0.00    -0.402 N  
HETATM   15  O   UNL     1     -12.452  12.544  65.142  1.00  0.00    -0.573 OA 
HETATM   16  O   UNL     1     -12.461  13.687  63.264  1.00  0.00    -0.801 OA 
ENDBRANCH   7   8
ENDBRANCH   6   7
ENDBRANCH   3   6
ENDBRANCH   2   3
TORSDOF 4
ENDMDL
MODEL       12
REMARK 921   NORMALIZED FREE ENERGY PREDICTED BY IDOCK:   -4.91 KCAL/MOL
REMARK 922        TOTAL FREE ENERGY PREDICTED BY IDOCK:   -6.48 KCAL/MOL
REMARK 923 INTER-LIGAND FREE ENERGY PREDICTED BY IDOCK:   -6.20 KCAL/MOL
REMARK 924 INTRA-LIGAND FREE ENERGY PREDICTED BY IDOCK:   -0.28 KCAL/MOL
REMARK 927      BINDING AFFINITY PREDICTED BY RF-SCORE:    0.00 PKD
ROOT
HETATM    1  C   UNL     1      -9.847  20.443  66.745  1.00  0.00    -0.541 C  
HETATM    2  C   UNL     1     -10.660  19.204  67.072  1.00  0.00    -0.457 C  
ENDROOT
BRANCH   2   3
HETATM    3  S   UNL     1      -9.928  17.735  66.366  1.00  0.00    -0.336 S  
HETATM    4  O   UNL     1      -8.518  17.992  66.149  1.00  0.00    -0.448 OA 
HETATM    5  O   UNL     1     -10.778  17.273  65.287  1.00  0.00    -0.637 OA 
BRANCH   3   6
HETATM    6  C   UNL     1     -10.043  16.547  67.683  1.00  0.00    -0.266 C  
BRANCH   6   7
HETATM    7  C   UNL     1     -11.504  16.297  68.018  1.00  0.00    -0.125 C  
BRANCH   7   8
HETATM    8  N   UNL     1     -11.711  15.027  68.698  1.00  0.00    -0.341 NA 
HETATM    9  C   UNL     1     -11.761  14.862  70.076  1.00  0.00    -0.294 A  
HETATM   10  N   UNL     1     -11.870  13.585  70.390  1.00  0.00    -0.269 NA 
HETATM   11  C   UNL     1     -11.696  15.961  71.077  1.00  0.00    -0.473 C  
HETATM   12  C   UNL     1     -11.914  12.899  69.209  1.00  0.00    -0.260 A  
HETATM   13  C   UNL     1     -11.844  13.771  68.153  1.00  0.00    -0.376 A  
HETATM   14  N   UNL     1     -11.924  13.452  66.769  1.00  0.00    -0.396 N  
HETATM   15  O   UNL     1     -11.995  14.388  65.967  1.00  0.00    -0.386 OA 
HETATM   16  O   UNL     1     -11.958  12.251  66.480  1.00  0.00    -0.596 OA 
ENDBRANCH   7   8
ENDBRANCH   6   7
ENDBRANCH   3   6
ENDBRANCH   2   3
TORSDOF 4
ENDMDL
MODEL       13
REMARK 921   NORMALIZED FREE ENERGY PREDICTED BY IDOCK:   -4.89 KCAL/MOL
REMARK 922        TOTAL FREE ENERGY PREDICTED BY IDOCK:   -6.45 KCAL/MOL
REMARK 923 INTER-LIGAND FREE ENERGY PREDICTED BY IDOCK:   -6.12 KCAL/MOL
REMARK 924 INTRA-LIGAND FREE ENERGY PREDICTED BY IDOCK:   -0.33 KCAL/MOL
REMARK 927      BINDING AFFINITY PREDICTED BY RF-SCORE:    0.00 PKD
ROOT
HETATM    1  C   UNL     1     -10.300  11.923  63.617  1.00  0.00    -0.477 C  
HETATM    2  C   UNL     1     -10.614  13.122  64.491  1.00  0.00    -0.406 C  
ENDROOT
BRANCH   2   3
HETATM    3  S   UNL     1     -12.368  13.449  64.551  1.00  0.00    -0.335 S  
HETATM    4  O   UNL     1     -13.066  12.178  64.536  1.00  0.00    -0.720 OA 
HETATM    5  O   UNL     1     -12.677  14.480  63.580  1.00  0.00    -0.754 OA 
BRANCH   3   6
HETATM    6  C   UNL     1     -12.600  14.150  66.168  1.00  0.00    -0.321 C  
BRANCH   6   7
HETATM    7  C   UNL     1     -11.321  14.001  66.976  1.00  0.00    -0.330 C  
BRANCH   7   8
HETATM    8  N   UNL     1     -11.061  15.152  67.826  1.00  0.00    -0.303 NA 
HETATM    9  C   UNL     1     -10.495  16.346  67.397  1.00  0.00    -0.309 A  
HETATM   10  N   UNL     1     -10.303  17.165  68.413  1.00  0.00    -0.340 NA 
HETATM   11  C   UNL     1     -10.141  16.672  65.988  1.00  0.00    -0.359 C  
HETATM   12  C   UNL     1     -10.766  16.517  69.524  1.00  0.00    -0.321 A  
HETATM   13  C   UNL     1     -11.262  15.285  69.180  1.00  0.00    -0.278 A  
HETATM   14  N   UNL     1     -11.888  14.341  70.041  1.00  0.00    -0.295 N  
HETATM   15  O   UNL     1     -12.408  13.348  69.522  1.00  0.00    -0.238 OA 
HETATM   16  O   UNL     1     -11.897  14.613  71.246  1.00  0.00    -0.333 OA 
ENDBRANCH   7   8
ENDBRANCH   6   7
ENDBRANCH   3   6
ENDBRANCH   2   3
TORSDOF 4
ENDMDL
MODEL       14
REMARK 921   NORMALIZED FREE ENERGY PREDICTED BY IDOCK:   -4.86 KCAL/MOL
REMARK 922        TOTAL FREE ENERGY PREDICTED BY IDOCK:   -6.41 KCAL/MOL
REMARK 923 INTER-LIGAND FREE ENERGY PREDICTED BY IDOCK:   -6.05 KCAL/MOL
REMARK 924 INTRA-LIGAND FREE ENERGY PREDICTED BY IDOCK:   -0.36 KCAL/MOL
REMARK 927      BINDING AFFINITY PREDICTED BY RF-SCORE:    0.00 PKD
ROOT
HETATM    1  C   UNL     1     -10.421  19.514  67.657  1.00  0.00    -0.593 C  
HETATM    2  C   UNL     1     -10.657  18.025  67.488  1.00  0.00    -0.388 C  
ENDROOT
BRANCH   2   3
HETATM    3  S   UNL     1      -9.119  17.133  67.314  1.00  0.00    -0.225 S  
HETATM    4  O   UNL     1      -8.257  17.498  68.421  1.00  0.00    -0.260 OA 
HETATM    5  O   UNL     1      -8.667  17.261  65.942  1.00  0.00    -0.528 OA 
BRANCH   3   6
HETATM    6  C   UNL     1      -9.597  15.439  67.564  1.00  0.00    -0.206 C  
BRANCH   6   7
HETATM    7  C   UNL     1     -11.109  15.316  67.464  1.00  0.00    -0.324 C  
BRANCH   7   8
HETATM    8  N   UNL     1     -11.525  14.334  66.475  1.00  0.00    -0.347 NA 
HETATM    9  C   UNL     1     -11.718  14.598  65.125  1.00  0.00    -0.364 A  
HETATM   10  N   UNL     1     -12.180  13.531  64.502  1.00  0.00    -0.487 NA 
HETATM   11  C   UNL     1     -11.451  15.901  64.457  1.00  0.00    -0.287 C  
HETATM   12  C   UNL     1     -12.274  12.544  65.442  1.00  0.00    -0.412 A  
HETATM   13  C   UNL     1     -11.850  13.010  66.660  1.00  0.00    -0.393 A  
HETATM   14  N   UNL     1     -11.736  12.271  67.870  1.00  0.00    -0.351 N  
HETATM   15  O   UNL     1     -11.191  12.823  68.831  1.00  0.00    -0.256 OA 
HETATM   16  O   UNL     1     -12.160  11.111  67.851  1.00  0.00    -0.627 OA 
ENDBRANCH   7   8
ENDBRANCH   6   7
ENDBRANCH   3   6
ENDBRANCH   2   3
TORSDOF 4
ENDMDL
MODEL       15
REMARK 921   NORMALIZED FREE ENERGY PREDICTED BY IDOCK:   -4.86 KCAL/MOL
REMARK 922        TOTAL FREE ENERGY PREDICTED BY IDOCK:   -6.41 KCAL/MOL
REMARK 923 INTER-LIGAND FREE ENERGY PREDICTED BY IDOCK:   -6.12 KCAL/MOL
REMARK 924 INTRA-LIGAND FREE ENERGY PREDICTED BY IDOCK:   -0.28 KCAL/MOL
REMARK 927      BINDING AFFINITY PREDICTED BY RF-SCORE:    0.00 PKD
ROOT
HETATM    1  C   UNL     1     -12.355  12.006  63.353  1.00  0.00    -0.635 C  
HETATM    2  C   UNL     1     -12.535  12.611  64.732  1.00  0.00    -0.484 C  
ENDROOT
BRANCH   2   3
HETATM    3  S   UNL     1     -11.268  12.057  65.862  1.00  0.00    -0.328 S  
HETATM    4  O   UNL     1     -10.317  11.255  65.117  1.00  0.00    -0.269 OA 
HETATM    5  O   UNL     1     -11.911  11.537  67.053  1.00  0.00    -0.568 OA 
BRANCH   3   6
HETATM    6  C   UNL     1     -10.436  13.561  66.316  1.00  0.00    -0.290 C  
BRANCH   6   7
HETATM    7  C   UNL     1     -11.462  14.652  66.576  1.00  0.00    -0.351 C  
BRANCH   7   8
HETATM    8  N   UNL     1     -11.039  15.578  67.615  1.00  0.00    -0.319 NA 
HETATM    9  C   UNL     1     -11.215  15.380  68.978  1.00  0.00    -0.291 A  
HETATM   10  N   UNL     1     -10.810  16.433  69.661  1.00  0.00    -0.338 NA 
HETATM   11  C   UNL     1     -11.787  14.155  69.602  1.00  0.00    -0.379 C  
HETATM   12  C   UNL     1     -10.341  17.331  68.743  1.00  0.00    -0.358 A  
HETATM   13  C   UNL     1     -10.448  16.813  67.478  1.00  0.00    -0.319 A  
HETATM   14  N   UNL     1     -10.010  17.413  66.265  1.00  0.00    -0.301 N  
HETATM   15  O   UNL     1     -10.054  16.729  65.237  1.00  0.00    -0.577 OA 
HETATM   16  O   UNL     1      -9.578  18.568  66.343  1.00  0.00    -0.317 OA 
ENDBRANCH   7   8
ENDBRANCH   6   7
ENDBRANCH   3   6
ENDBRANCH   2   3
TORSDOF 4
ENDMDL
MODEL       16
REMARK 921   NORMALIZED FREE ENERGY PREDICTED BY IDOCK:   -4.86 KCAL/MOL
REMARK 922        TOTAL FREE ENERGY PREDICTED BY IDOCK:   -6.41 KCAL/MOL
REMARK 923 INTER-LIGAND FREE ENERGY PREDICTED BY IDOCK:   -6.04 KCAL/MOL
REMARK 924 INTRA-LIGAND FREE ENERGY PREDICTED BY IDOCK:   -0.36 KCAL/MOL
REMARK 927      BINDING AFFINITY PREDICTED BY RF-SCORE:    0.00 PKD
ROOT
HETATM    1  C   UNL     1      -9.828  10.161  66.288  1.00  0.00    -0.288 C  
HETATM    2  C   UNL     1      -9.860  11.163  67.427  1.00  0.00    -0.173 C  
ENDROOT
BRANCH   2   3
HETATM    3  S   UNL     1     -11.448  11.971  67.546  1.00  0.00    -0.327 S  
HETATM    4  O   UNL     1     -12.168  11.390  68.663  1.00  0.00    -0.532 OA 
HETATM    5  O   UNL     1     -12.039  12.020  66.223  1.00  0.00    -0.596 OA 
BRANCH   3   6
HETATM    6  C   UNL     1     -11.029  13.635  68.007  1.00  0.00    -0.250 C  
BRANCH   6   7
HETATM    7  C   UNL     1      -9.815  14.093  67.215  1.00  0.00    -0.238 C  
BRANCH   7   8
HETATM    8  N   UNL     1      -9.758  15.539  67.069  1.00  0.00    -0.221 NA 
HETATM    9  C   UNL     1      -9.181  16.409  67.984  1.00  0.00    -0.204 A  
HETATM   10  N   UNL     1      -9.364  17.663  67.619  1.00  0.00    -0.244 NA 
HETATM   11  C   UNL     1      -8.454  16.001  69.218  1.00  0.00    -0.224 C  
HETATM   12  C   UNL     1     -10.052  17.624  66.438  1.00  0.00    -0.356 A  
HETATM   13  C   UNL     1     -10.281  16.324  66.068  1.00  0.00    -0.358 A  
HETATM   14  N   UNL     1     -10.907  15.869  64.874  1.00  0.00    -0.454 N  
HETATM   15  O   UNL     1     -10.889  14.656  64.642  1.00  0.00    -0.385 OA 
HETATM   16  O   UNL     1     -11.388  16.737  64.136  1.00  0.00    -1.194 OA 
ENDBRANCH   7   8
ENDBRANCH   6   7
ENDBRANCH   3   6
ENDBRANCH   2   3
TORSDOF 4
ENDMDL
MODEL       17
REMARK 921   NORMALIZED FREE ENERGY PREDICTED BY IDOCK:   -4.85 KCAL/MOL
REMARK 922        TOTAL FREE ENERGY PREDICTED BY IDOCK:   -6.40 KCAL/MOL
REMARK 923 INTER-LIGAND FREE ENERGY PREDICTED BY IDOCK:   -5.95 KCAL/MOL
REMARK 924 INTRA-LIGAND FREE ENERGY PREDICTED BY IDOCK:   -0.45 KCAL/MOL
REMARK 927      BINDING AFFINITY PREDICTED BY RF-SCORE:    0.00 PKD
ROOT
HETATM    1  C   UNL     1      -9.342  20.378  67.373  1.00  0.00    -0.536 C  
HETATM    2  C   UNL     1     -10.379  19.902  66.374  1.00  0.00    -0.495 C  
ENDROOT
BRANCH   2   3
HETATM    3  S   UNL     1     -10.182  18.167  65.999  1.00  0.00    -0.244 S  
HETATM    4  O   UNL     1      -8.763  17.884  65.906  1.00  0.00    -0.508 OA 
HETATM    5  O   UNL     1     -11.084  17.826  64.917  1.00  0.00    -0.821 OA 
BRANCH   3   6
HETATM    6  C   UNL     1     -10.777  17.360  67.467  1.00  0.00    -0.278 C  
BRANCH   6   7
HETATM    7  C   UNL     1      -9.895  16.165  67.785  1.00  0.00    -0.232 C  
BRANCH   7   8
HETATM    8  N   UNL     1     -10.628  14.909  67.763  1.00  0.00    -0.258 NA 
HETATM    9  C   UNL     1     -10.824  14.121  66.637  1.00  0.00    -0.299 A  
HETATM   10  N   UNL     1     -11.603  13.093  66.913  1.00  0.00    -0.348 NA 
HETATM   11  C   UNL     1     -10.247  14.388  65.290  1.00  0.00    -0.416 C  
HETATM   12  C   UNL     1     -11.910  13.188  68.242  1.00  0.00    -0.349 A  
HETATM   13  C   UNL     1     -11.297  14.285  68.791  1.00  0.00    -0.275 A  
HETATM   14  N   UNL     1     -11.320  14.688  70.155  1.00  0.00    -0.248 N  
HETATM   15  O   UNL     1     -10.583  15.621  70.491  1.00  0.00    -0.313 OA 
HETATM   16  O   UNL     1     -12.051  14.039  70.911  1.00  0.00    -0.333 OA 
ENDBRANCH   7   8
ENDBRANCH   6   7
ENDBRANCH   3   6
ENDBRANCH   2   3
TORSDOF 4
ENDMDL
MODEL       18
REMARK 921   NORMALIZED FREE ENERGY PREDICTED BY IDOCK:   -4.80 KCAL/MOL
REMARK 922        TOTAL FREE ENERGY PREDICTED BY IDOCK:   -6.33 KCAL/MOL
REMARK 923 INTER-LIGAND FREE ENERGY PREDICTED BY IDOCK:   -6.08 KCAL/MOL
REMARK 924 INTRA-LIGAND FREE ENERGY PREDICTED BY IDOCK:   -0.25 KCAL/MOL
REMARK 927      BINDING AFFINITY PREDICTED BY RF-SCORE:    0.00 PKD
ROOT
HETATM    1  C   UNL     1      -9.040  11.676  66.172  1.00  0.00    -0.209 C  
HETATM    2  C   UNL     1     -10.163  10.775  66.650  1.00  0.00    -0.233 C  
ENDROOT
BRANCH   2   3
HETATM    3  S   UNL     1     -10.840  11.338  68.203  1.00  0.00    -0.237 S  
HETATM    4  O   UNL     1     -10.017  10.808  69.273  1.00  0.00    -0.214 OA 
HETATM    5  O   UNL     1     -12.273  11.119  68.186  1.00  0.00    -0.612 OA 
BRANCH   3   6
HETATM    6  C   UNL     1     -10.566  13.094  68.158  1.00  0.00    -0.245 C  
BRANCH   6   7
HETATM    7  C   UNL     1     -11.763  13.779  67.518  1.00  0.00    -0.375 C  
BRANCH   7   8
HETATM    8  N   UNL     1     -11.381  14.662  66.426  1.00  0.00    -0.345 NA 
HETATM    9  C   UNL     1     -10.655  15.837  66.570  1.00  0.00    -0.306 A  
HETATM   10  N   UNL     1     -10.543  16.463  65.415  1.00  0.00    -0.548 NA 
HETATM   11  C   UNL     1     -10.077  16.340  67.847  1.00  0.00    -0.247 C  
HETATM   12  C   UNL     1     -11.184  15.686  64.491  1.00  0.00    -0.325 A  
HETATM   13  C   UNL     1     -11.684  14.557  65.089  1.00  0.00    -0.376 A  
HETATM   14  N   UNL     1     -12.357  13.476  64.454  1.00  0.00    -0.365 N  
HETATM   15  O   UNL     1     -12.602  12.474  65.134  1.00  0.00    -0.631 OA 
HETATM   16  O   UNL     1     -12.609  13.611  63.252  1.00  0.00    -0.816 OA 
ENDBRANCH   7   8
ENDBRANCH   6   7
ENDBRANCH   3   6
ENDBRANCH   2   3
TORSDOF 4
ENDMDL
MODEL       19
REMARK 921   NORMALIZED FREE ENERGY PREDICTED BY IDOCK:   -4.77 KCAL/MOL
REMARK 922        TOTAL FREE ENERGY PREDICTED BY IDOCK:   -6.30 KCAL/MOL
REMARK 923 INTER-LIGAND FREE ENERGY PREDICTED BY IDOCK:   -5.92 KCAL/MOL
REMARK 924 INTRA-LIGAND FREE ENERGY PREDICTED BY IDOCK:   -0.38 KCAL/MOL
REMARK 927      BINDING AFFINITY PREDICTED BY RF-SCORE:    0.00 PKD
ROOT
HETATM    1  C   UNL     1     -11.934  11.892  63.475  1.00  0.00    -0.567 C  
HETATM    2  C   UNL     1     -12.486  12.852  64.512  1.00  0.00    -0.400 C  
ENDROOT
BRANCH   2   3
HETATM    3  S   UNL     1     -11.433  12.940  65.952  1.00  0.00    -0.366 S  
HETATM    4  O   UNL     1     -10.090  12.566  65.553  1.00  0.00    -0.267 OA 
HETATM    5  O   UNL     1     -12.100  12.268  67.049  1.00  0.00    -0.575 OA 
BRANCH   3   6
HETATM    6  C   UNL     1     -11.399  14.677  66.330  1.00  0.00    -0.347 C  
BRANCH   6   7
HETATM    7  C   UNL     1     -10.215  15.326  65.632  1.00  0.00    -0.372 C  
BRANCH   7   8
HETATM    8  N   UNL     1      -9.507  16.263  66.492  1.00  0.00    -0.246 NA 
HETATM    9  C   UNL     1      -8.513  15.916  67.396  1.00  0.00    -0.175 A  
HETATM   10  N   UNL     1      -8.126  16.967  68.093  1.00  0.00    -0.194 NA 
HETATM   11  C   UNL     1      -7.951  14.549  67.574  1.00  0.00    -0.208 C  
HETATM   12  C   UNL     1      -8.856  18.026  67.631  1.00  0.00    -0.254 A  
HETATM   13  C   UNL     1      -9.695  17.619  66.625  1.00  0.00    -0.301 A  
HETATM   14  N   UNL     1     -10.565  18.434  65.850  1.00  0.00    -0.395 N  
HETATM   15  O   UNL     1     -11.133  17.913  64.885  1.00  0.00    -0.782 OA 
HETATM   16  O   UNL     1     -10.653  19.622  66.183  1.00  0.00    -0.472 OA 
ENDBRANCH   7   8
ENDBRANCH   6   7
ENDBRANCH   3   6
ENDBRANCH   2   3
TORSDOF 4
ENDMDL
MODEL       20
REMARK 921   NORMALIZED FREE ENERGY PREDICTED BY IDOCK:   -4.74 KCAL/MOL
REMARK 922        TOTAL FREE ENERGY PREDICTED BY IDOCK:   -6.26 KCAL/MOL
REMARK 923 INTER-LIGAND FREE ENERGY PREDICTED BY IDOCK:   -6.21 KCAL/MOL
REMARK 924 INTRA-LIGAND FREE ENERGY PREDICTED BY IDOCK:   -0.05 KCAL/MOL
REMARK 927      BINDING AFFINITY PREDICTED BY RF-SCORE:    0.00 PKD
ROOT
HETATM    1  C   UNL     1     -13.336  15.714  71.758  1.00  0.00    -0.541 C  
HETATM    2  C   UNL     1     -12.892  14.576  70.860  1.00  0.00    -0.360 C  
ENDROOT
BRANCH   2   3
HETATM    3  S   UNL     1     -11.665  15.112  69.678  1.00  0.00    -0.350 S  
HETATM    4  O   UNL     1     -10.368  15.076  70.324  1.00  0.00    -0.124 OA 
HETATM    5  O   UNL     1     -12.145  16.320  69.035  1.00  0.00    -0.148 OA 
BRANCH   3   6
HETATM    6  C   UNL     1     -11.675  13.818  68.459  1.00  0.00    -0.356 C  
BRANCH   6   7
HETATM    7  C   UNL     1     -10.496  13.996  67.517  1.00  0.00    -0.252 C  
BRANCH   7   8
HETATM    8  N   UNL     1     -10.880  14.606  66.253  1.00  0.00    -0.315 NA 
HETATM    9  C   UNL     1     -10.492  15.870  65.830  1.00  0.00    -0.370 A  
HETATM   10  N   UNL     1     -11.071  16.179  64.685  1.00  0.00    -0.623 NA 
HETATM   11  C   UNL     1      -9.557  16.771  66.557  1.00  0.00    -0.285 C  
HETATM   12  C   UNL     1     -11.833  15.100  64.335  1.00  0.00    -0.305 A  
HETATM   13  C   UNL     1     -11.709  14.109  65.274  1.00  0.00    -0.353 A  
HETATM   14  N   UNL     1     -12.292  12.812  65.237  1.00  0.00    -0.487 N  
HETATM   15  O   UNL     1     -11.944  12.000  66.100  1.00  0.00    -0.581 OA 
HETATM   16  O   UNL     1     -13.078  12.586  64.310  1.00  0.00    -0.759 OA 
ENDBRANCH   7   8
ENDBRANCH   6   7
ENDBRANCH   3   6
ENDBRANCH   2   3
TORSDOF 4
ENDMDL
MODEL       21
REMARK 921   NORMALIZED FREE ENERGY PREDICTED BY IDOCK:   -4.71 KCAL/MOL
REMARK 922        TOTAL FREE ENERGY PREDICTED BY IDOCK:   -6.22 KCAL/MOL
REMARK 923 INTER-LIGAND FREE ENERGY PREDICTED BY IDOCK:   -5.71 KCAL/MOL
REMARK 924 INTRA-LIGAND FREE ENERGY PREDICTED BY IDOCK:   -0.51 KCAL/MOL
REMARK 927      BINDING AFFINITY PREDICTED BY RF-SCORE:    0.00 PKD
ROOT
HETATM    1  C   UNL     1      -9.582  15.743  65.980  1.00  0.00    -0.388 C  
HETATM    2  C   UNL     1     -10.504  16.135  67.120  1.00  0.00    -0.305 C  
ENDROOT
BRANCH   2   3
HETATM    3  S   UNL     1     -10.655  14.823  68.322  1.00  0.00    -0.247 S  
HETATM    4  O   UNL     1     -12.066  14.549  68.517  1.00  0.00    -0.304 OA 
HETATM    5  O   UNL     1      -9.792  15.128  69.445  1.00  0.00    -0.225 OA 
BRANCH   3   6
HETATM    6  C   UNL     1      -9.965  13.416  67.483  1.00  0.00    -0.230 C  
BRANCH   6   7
HETATM    7  C   UNL     1     -11.080  12.467  67.076  1.00  0.00    -0.281 C  
BRANCH   7   8
HETATM    8  N   UNL     1     -10.902  11.942  65.731  1.00  0.00    -0.286 NA 
HETATM    9  C   UNL     1     -10.111  10.850  65.401  1.00  0.00    -0.277 A  
HETATM   10  N   UNL     1     -10.078  10.672  64.095  1.00  0.00    -0.347 NA 
HETATM   11  C   UNL     1      -9.385   9.989  66.375  1.00  0.00    -0.211 C  
HETATM   12  C   UNL     1     -10.874  11.643  63.553  1.00  0.00    -0.425 A  
HETATM   13  C   UNL     1     -11.412  12.420  64.546  1.00  0.00    -0.337 A  
HETATM   14  N   UNL     1     -12.338  13.489  64.392  1.00  0.00    -0.365 N  
HETATM   15  O   UNL     1     -12.829  13.975  65.416  1.00  0.00    -0.658 OA 
HETATM   16  O   UNL     1     -12.611  13.822  63.233  1.00  0.00    -0.830 OA 
ENDBRANCH   7   8
ENDBRANCH   6   7
ENDBRANCH   3   6
ENDBRANCH   2   3
TORSDOF 4
ENDMDL
MODEL       22
REMARK 921   NORMALIZED FREE ENERGY PREDICTED BY IDOCK:   -4.71 KCAL/MOL
REMARK 922        TOTAL FREE ENERGY PREDICTED BY IDOCK:   -6.22 KCAL/MOL
REMARK 923 INTER-LIGAND FREE ENERGY PREDICTED BY IDOCK:   -5.93 KCAL/MOL
REMARK 924 INTRA-LIGAND FREE ENERGY PREDICTED BY IDOCK:   -0.30 KCAL/MOL
REMARK 927      BINDING AFFINITY PREDICTED BY RF-SCORE:    0.00 PKD
ROOT
HETATM    1  C   UNL     1     -12.841  14.519  70.788  1.00  0.00    -0.423 C  
HETATM    2  C   UNL     1     -12.130  13.628  69.787  1.00  0.00    -0.334 C  
ENDROOT
BRANCH   2   3
HETATM    3  S   UNL     1     -11.007  14.562  68.759  1.00  0.00    -0.261 S  
HETATM    4  O   UNL     1      -9.930  15.054  69.596  1.00  0.00    -0.189 OA 
HETATM    5  O   UNL     1     -11.785  15.466  67.935  1.00  0.00    -0.319 OA 
BRANCH   3   6
HETATM    6  C   UNL     1     -10.309  13.328  67.687  1.00  0.00    -0.230 C  
BRANCH   6   7
HETATM    7  C   UNL     1     -11.421  12.469  67.106  1.00  0.00    -0.351 C  
BRANCH   7   8
HETATM    8  N   UNL     1     -11.101  11.965  65.780  1.00  0.00    -0.316 NA 
HETATM    9  C   UNL     1     -10.305  10.856  65.522  1.00  0.00    -0.252 A  
HETATM   10  N   UNL     1     -10.124  10.701  64.225  1.00  0.00    -0.346 NA 
HETATM   11  C   UNL     1      -9.721   9.957  66.555  1.00  0.00    -0.260 C  
HETATM   12  C   UNL     1     -10.824  11.704  63.615  1.00  0.00    -0.432 A  
HETATM   13  C   UNL     1     -11.455  12.478  64.554  1.00  0.00    -0.337 A  
HETATM   14  N   UNL     1     -12.328  13.576  64.317  1.00  0.00    -0.367 N  
HETATM   15  O   UNL     1     -12.923  14.058  65.286  1.00  0.00    -0.743 OA 
HETATM   16  O   UNL     1     -12.454  13.938  63.142  1.00  0.00    -0.766 OA 
ENDBRANCH   7   8
ENDBRANCH   6   7
ENDBRANCH   3   6
ENDBRANCH   2   3
TORSDOF 4
ENDMDL
MODEL       23
REMARK 921   NORMALIZED FREE ENERGY PREDICTED BY IDOCK:   -4.69 KCAL/MOL
REMARK 922        TOTAL FREE ENERGY PREDICTED BY IDOCK:   -6.19 KCAL/MOL
REMARK 923 INTER-LIGAND FREE ENERGY PREDICTED BY IDOCK:   -5.85 KCAL/MOL
REMARK 924 INTRA-LIGAND FREE ENERGY PREDICTED BY IDOCK:   -0.35 KCAL/MOL
REMARK 927      BINDING AFFINITY PREDICTED BY RF-SCORE:    0.00 PKD
ROOT
HETATM    1  C   UNL     1      -8.106  19.238  68.516  1.00  0.00    -0.401 C  
HETATM    2  C   UNL     1      -8.644  18.292  67.459  1.00  0.00    -0.250 C  
ENDROOT
BRANCH   2   3
HETATM    3  S   UNL     1      -9.493  16.903  68.193  1.00  0.00    -0.258 S  
HETATM    4  O   UNL     1     -10.709  17.392  68.812  1.00  0.00    -0.309 OA 
HETATM    5  O   UNL     1      -8.532  16.125  68.949  1.00  0.00    -0.215 OA 
BRANCH   3   6
HETATM    6  C   UNL     1      -9.980  15.930  66.787  1.00  0.00    -0.248 C  
BRANCH   6   7
HETATM    7  C   UNL     1     -11.457  15.588  66.892  1.00  0.00    -0.000 C  
BRANCH   7   8
HETATM    8  N   UNL     1     -11.729  14.192  66.585  1.00  0.00    -0.384 NA 
HETATM    9  C   UNL     1     -11.666  13.149  67.500  1.00  0.00    -0.366 A  
HETATM   10  N   UNL     1     -11.875  11.991  66.906  1.00  0.00    -0.616 NA 
HETATM   11  C   UNL     1     -11.395  13.299  68.956  1.00  0.00    -0.334 C  
HETATM   12  C   UNL     1     -12.099  12.269  65.586  1.00  0.00    -0.234 A  
HETATM   13  C   UNL     1     -12.040  13.622  65.372  1.00  0.00    -0.403 A  
HETATM   14  N   UNL     1     -12.282  14.309  64.150  1.00  0.00    -0.447 N  
HETATM   15  O   UNL     1     -12.331  15.543  64.185  1.00  0.00    -0.597 OA 
HETATM   16  O   UNL     1     -12.466  13.608  63.149  1.00  0.00    -0.786 OA 
ENDBRANCH   7   8
ENDBRANCH   6   7
ENDBRANCH   3   6
ENDBRANCH   2   3
TORSDOF 4
ENDMDL
MODEL       24
REMARK 921   NORMALIZED FREE ENERGY PREDICTED BY IDOCK:   -4.69 KCAL/MOL
REMARK 922        TOTAL FREE ENERGY PREDICTED BY IDOCK:   -6.19 KCAL/MOL
REMARK 923 INTER-LIGAND FREE ENERGY PREDICTED BY IDOCK:   -5.95 KCAL/MOL
REMARK 924 INTRA-LIGAND FREE ENERGY PREDICTED BY IDOCK:   -0.25 KCAL/MOL
REMARK 927      BINDING AFFINITY PREDICTED BY RF-SCORE:    0.00 PKD
ROOT
HETATM    1  C   UNL     1     -12.236  12.159  63.741  1.00  0.00    -0.630 C  
HETATM    2  C   UNL     1     -12.641  12.906  64.998  1.00  0.00    -0.472 C  
ENDROOT
BRANCH   2   3
HETATM    3  S   UNL     1     -11.484  12.624  66.330  1.00  0.00    -0.384 S  
HETATM    4  O   UNL     1     -10.151  12.920  65.841  1.00  0.00    -0.281 OA 
HETATM    5  O   UNL     1     -11.789  11.345  66.939  1.00  0.00    -0.489 OA 
BRANCH   3   6
HETATM    6  C   UNL     1     -11.897  13.890  67.507  1.00  0.00    -0.396 C  
BRANCH   6   7
HETATM    7  C   UNL     1     -11.001  13.763  68.728  1.00  0.00    -0.264 C  
BRANCH   7   8
HETATM    8  N   UNL     1     -11.539  14.453  69.890  1.00  0.00    -0.274 NA 
HETATM    9  C   UNL     1     -11.378  15.806  70.157  1.00  0.00    -0.355 A  
HETATM   10  N   UNL     1     -11.903  16.118  71.326  1.00  0.00    -0.439 NA 
HETATM   11  C   UNL     1     -10.704  16.785  69.260  1.00  0.00    -0.324 C  
HETATM   12  C   UNL     1     -12.436  14.965  71.830  1.00  0.00    -0.333 A  
HETATM   13  C   UNL     1     -12.246  13.932  70.949  1.00  0.00    -0.361 A  
HETATM   14  N   UNL     1     -12.711  12.594  71.082  1.00  0.00    -0.323 N  
HETATM   15  O   UNL     1     -12.574  11.840  70.113  1.00  0.00    -0.127 OA 
HETATM   16  O   UNL     1     -13.257  12.302  72.151  1.00  0.00    -0.496 OA 
ENDBRANCH   7   8
ENDBRANCH   6   7
ENDBRANCH   3   6
ENDBRANCH   2   3
TORSDOF 4
ENDMDL
MODEL       25
REMARK 921   NORMALIZED FREE ENERGY PREDICTED BY IDOCK:   -4.68 KCAL/MOL
REMARK 922        TOTAL FREE ENERGY PREDICTED BY IDOCK:   -6.19 KCAL/MOL
REMARK 923 INTER-LIGAND FREE ENERGY PREDICTED BY IDOCK:   -5.91 KCAL/MOL
REMARK 924 INTRA-LIGAND FREE ENERGY PREDICTED BY IDOCK:   -0.28 KCAL/MOL
REMARK 927      BINDING AFFINITY PREDICTED BY RF-SCORE:    0.00 PKD
ROOT
HETATM    1  C   UNL     1     -10.870  11.738  63.610  1.00  0.00    -0.508 C  
HETATM    2  C   UNL     1     -12.111  12.588  63.421  1.00  0.00    -0.529 C  
ENDROOT
BRANCH   2   3
HETATM    3  S   UNL     1     -12.126  13.985  64.533  1.00  0.00    -0.455 S  
HETATM    4  O   UNL     1     -12.847  13.601  65.731  1.00  0.00    -0.456 OA 
HETATM    5  O   UNL     1     -12.502  15.166  63.782  1.00  0.00    -0.719 OA 
BRANCH   3   6
HETATM    6  C   UNL     1     -10.417  14.163  64.990  1.00  0.00    -0.425 C  
BRANCH   6   7
HETATM    7  C   UNL     1     -10.322  14.754  66.387  1.00  0.00    -0.293 C  
BRANCH   7   8
HETATM    8  N   UNL     1      -9.032  15.377  66.643  1.00  0.00    -0.264 NA 
HETATM    9  C   UNL     1      -7.915  14.718  67.139  1.00  0.00    -0.174 A  
HETATM   10  N   UNL     1      -6.926  15.564  67.348  1.00  0.00    -0.194 NA 
HETATM   11  C   UNL     1      -7.829  13.256  67.409  1.00  0.00    -0.159 C  
HETATM   12  C   UNL     1      -7.384  16.795  66.967  1.00  0.00    -0.203 A  
HETATM   13  C   UNL     1      -8.671  16.697  66.504  1.00  0.00    -0.282 A  
HETATM   14  N   UNL     1      -9.469  17.741  65.959  1.00  0.00    -0.137 N  
HETATM   15  O   UNL     1     -10.553  17.431  65.454  1.00  0.00    -0.638 OA 
HETATM   16  O   UNL     1      -8.992  18.880  65.999  1.00  0.00    -0.470 OA 
ENDBRANCH   7   8
ENDBRANCH   6   7
ENDBRANCH   3   6
ENDBRANCH   2   3
TORSDOF 4
ENDMDL
MODEL       26
REMARK 921   NORMALIZED FREE ENERGY PREDICTED BY IDOCK:   -4.67 KCAL/MOL
REMARK 922        TOTAL FREE ENERGY PREDICTED BY IDOCK:   -6.18 KCAL/MOL
REMARK 923 INTER-LIGAND FREE ENERGY PREDICTED BY IDOCK:   -5.90 KCAL/MOL
REMARK 924 INTRA-LIGAND FREE ENERGY PREDICTED BY IDOCK:   -0.28 KCAL/MOL
REMARK 927      BINDING AFFINITY PREDICTED BY RF-SCORE:    0.00 PKD
ROOT
HETATM    1  C   UNL     1     -10.239  18.978  66.725  1.00  0.00    -0.465 C  
HETATM    2  C   UNL     1     -10.837  18.278  67.931  1.00  0.00    -0.206 C  
ENDROOT
BRANCH   2   3
HETATM    3  S   UNL     1     -10.426  16.541  67.952  1.00  0.00    -0.322 S  
HETATM    4  O   UNL     1      -9.152  16.386  68.627  1.00  0.00    -0.213 OA 
HETATM    5  O   UNL     1     -10.636  16.003  66.622  1.00  0.00    -0.317 OA 
BRANCH   3   6
HETATM    6  C   UNL     1     -11.665  15.838  69.015  1.00  0.00    -0.396 C  
BRANCH   6   7
HETATM    7  C   UNL     1     -10.994  15.093  70.157  1.00  0.00    -0.253 C  
BRANCH   7   8
HETATM    8  N   UNL     1     -11.939  14.319  70.948  1.00  0.00    -0.334 NA 
HETATM    9  C   UNL     1     -12.333  13.018  70.666  1.00  0.00    -0.310 A  
HETATM   10  N   UNL     1     -13.265  12.617  71.510  1.00  0.00    -0.302 NA 
HETATM   11  C   UNL     1     -11.795  12.175  69.563  1.00  0.00    -0.386 C  
HETATM   12  C   UNL     1     -13.475  13.656  72.373  1.00  0.00    -0.584 A  
HETATM   13  C   UNL     1     -12.648  14.704  72.061  1.00  0.00    -0.334 A  
HETATM   14  N   UNL     1     -12.522  15.936  72.761  1.00  0.00    -0.424 N  
HETATM   15  O   UNL     1     -11.615  16.701  72.419  1.00  0.00    -0.397 OA 
HETATM   16  O   UNL     1     -13.313  16.127  73.692  1.00  0.00    -0.651 OA 
ENDBRANCH   7   8
ENDBRANCH   6   7
ENDBRANCH   3   6
ENDBRANCH   2   3
TORSDOF 4
ENDMDL
MODEL       27
REMARK 921   NORMALIZED FREE ENERGY PREDICTED BY IDOCK:   -4.66 KCAL/MOL
REMARK 922        TOTAL FREE ENERGY PREDICTED BY IDOCK:   -6.16 KCAL/MOL
REMARK 923 INTER-LIGAND FREE ENERGY PREDICTED BY IDOCK:   -5.91 KCAL/MOL
REMARK 924 INTRA-LIGAND FREE ENERGY PREDICTED BY IDOCK:   -0.25 KCAL/MOL
REMARK 927      BINDING AFFINITY PREDICTED BY RF-SCORE:    0.00 PKD
ROOT
HETATM    1  C   UNL     1      -8.679  18.926  67.722  1.00  0.00    -0.318 C  
HETATM    2  C   UNL     1      -8.584  17.553  67.085  1.00  0.00    -0.225 C  
ENDROOT
BRANCH   2   3
HETATM    3  S   UNL     1     -10.178  16.982  66.514  1.00  0.00    -0.310 S  
HETATM    4  O   UNL     1     -10.599  17.838  65.422  1.00  0.00    -0.659 OA 
HETATM    5  O   UNL     1     -11.029  16.771  67.668  1.00  0.00    -0.290 OA 
BRANCH   3   6
HETATM    6  C   UNL     1      -9.817  15.388  65.816  1.00  0.00    -0.364 C  
BRANCH   6   7
HETATM    7  C   UNL     1     -10.683  14.332  66.483  1.00  0.00    -0.297 C  
BRANCH   7   8
HETATM    8  N   UNL     1     -10.486  13.008  65.912  1.00  0.00    -0.277 NA 
HETATM    9  C   UNL     1      -9.438  12.154  66.227  1.00  0.00    -0.232 A  
HETATM   10  N   UNL     1      -9.480  11.066  65.483  1.00  0.00    -0.208 NA 
HETATM   11  C   UNL     1      -8.396  12.416  67.257  1.00  0.00    -0.184 C  
HETATM   12  C   UNL     1     -10.580  11.190  64.680  1.00  0.00    -0.318 A  
HETATM   13  C   UNL     1     -11.229  12.368  64.948  1.00  0.00    -0.311 A  
HETATM   14  N   UNL     1     -12.445  12.828  64.370  1.00  0.00    -0.412 N  
HETATM   15  O   UNL     1     -12.958  13.845  64.846  1.00  0.00    -0.711 OA 
HETATM   16  O   UNL     1     -12.916  12.144  63.455  1.00  0.00    -0.794 OA 
ENDBRANCH   7   8
ENDBRANCH   6   7
ENDBRANCH   3   6
ENDBRANCH   2   3
TORSDOF 4
ENDMDL
MODEL       28
REMARK 921   NORMALIZED FREE ENERGY PREDICTED BY IDOCK:   -4.59 KCAL/MOL
REMARK 922        TOTAL FREE ENERGY PREDICTED BY IDOCK:   -6.08 KCAL/MOL
REMARK 923 INTER-LIGAND FREE ENERGY PREDICTED BY IDOCK:   -5.81 KCAL/MOL
REMARK 924 INTRA-LIGAND FREE ENERGY PREDICTED BY IDOCK:   -0.26 KCAL/MOL
REMARK 927      BINDING AFFINITY PREDICTED BY RF-SCORE:    0.00 PKD
ROOT
HETATM    1  C   UNL     1     -11.483  10.581  70.539  1.00  0.00    -0.433 C  
HETATM    2  C   UNL     1     -12.093  11.837  69.945  1.00  0.00    -0.287 C  
ENDROOT
BRANCH   2   3
HETATM    3  S   UNL     1     -11.301  12.288  68.409  1.00  0.00    -0.319 S  
HETATM    4  O   UNL     1     -12.043  11.677  67.323  1.00  0.00    -0.595 OA 
HETATM    5  O   UNL     1      -9.874  12.077  68.549  1.00  0.00    -0.209 OA 
BRANCH   3   6
HETATM    6  C   UNL     1     -11.576  14.041  68.304  1.00  0.00    -0.329 C  
BRANCH   6   7
HETATM    7  C   UNL     1     -10.282  14.737  67.916  1.00  0.00    -0.229 C  
BRANCH   7   8
HETATM    8  N   UNL     1     -10.489  15.790  66.934  1.00  0.00    -0.311 NA 
HETATM    9  C   UNL     1     -10.673  15.584  65.574  1.00  0.00    -0.381 A  
HETATM   10  N   UNL     1     -10.743  16.734  64.931  1.00  0.00    -0.715 NA 
HETATM   11  C   UNL     1     -10.773  14.255  64.911  1.00  0.00    -0.448 C  
HETATM   12  C   UNL     1     -10.627  17.713  65.878  1.00  0.00    -0.203 A  
HETATM   13  C   UNL     1     -10.496  17.153  67.122  1.00  0.00    -0.291 A  
HETATM   14  N   UNL     1     -10.413  17.837  68.367  1.00  0.00    -0.368 N  
HETATM   15  O   UNL     1     -10.451  17.159  69.399  1.00  0.00    -0.321 OA 
HETATM   16  O   UNL     1     -10.351  19.070  68.317  1.00  0.00    -0.373 OA 
ENDBRANCH   7   8
ENDBRANCH   6   7
ENDBRANCH   3   6
ENDBRANCH   2   3
TORSDOF 4
ENDMDL
MODEL       29
REMARK 921   NORMALIZED FREE ENERGY PREDICTED BY IDOCK:   -4.58 KCAL/MOL
REMARK 922        TOTAL FREE ENERGY PREDICTED BY IDOCK:   -6.07 KCAL/MOL
REMARK 923 INTER-LIGAND FREE ENERGY PREDICTED BY IDOCK:   -6.06 KCAL/MOL
REMARK 924 INTRA-LIGAND FREE ENERGY PREDICTED BY IDOCK:   -0.01 KCAL/MOL
REMARK 927      BINDING AFFINITY PREDICTED BY RF-SCORE:    0.00 PKD
ROOT
HETATM    1  C   UNL     1      -8.543  17.794  68.528  1.00  0.00    -0.291 C  
HETATM    2  C   UNL     1      -8.552  16.287  68.697  1.00  0.00    -0.222 C  
ENDROOT
BRANCH   2   3
HETATM    3  S   UNL     1     -10.188  15.679  69.076  1.00  0.00    -0.241 S  
HETATM    4  O   UNL     1     -11.144  16.431  68.287  1.00  0.00    -0.347 OA 
HETATM    5  O   UNL     1     -10.320  15.584  70.517  1.00  0.00    -0.260 OA 
BRANCH   3   6
HETATM    6  C   UNL     1     -10.170  14.023  68.431  1.00  0.00    -0.239 C  
BRANCH   6   7
HETATM    7  C   UNL     1      -9.756  14.050  66.968  1.00  0.00    -0.256 C  
BRANCH   7   8
HETATM    8  N   UNL     1     -10.868  13.781  66.069  1.00  0.00    -0.281 NA 
HETATM    9  C   UNL     1     -11.621  12.614  66.062  1.00  0.00    -0.393 A  
HETATM   10  N   UNL     1     -12.497  12.629  65.076  1.00  0.00    -0.563 NA 
HETATM   11  C   UNL     1     -11.470  11.488  67.023  1.00  0.00    -0.290 C  
HETATM   12  C   UNL     1     -12.339  13.826  64.437  1.00  0.00    -0.344 A  
HETATM   13  C   UNL     1     -11.358  14.563  65.049  1.00  0.00    -0.377 A  
HETATM   14  N   UNL     1     -10.946  15.884  64.721  1.00  0.00    -0.448 N  
HETATM   15  O   UNL     1     -10.150  16.443  65.482  1.00  0.00    -0.508 OA 
HETATM   16  O   UNL     1     -11.452  16.387  63.712  1.00  0.00    -1.002 OA 
ENDBRANCH   7   8
ENDBRANCH   6   7
ENDBRANCH   3   6
ENDBRANCH   2   3
TORSDOF 4
ENDMDL
MODEL       30
REMARK 921   NORMALIZED FREE ENERGY PREDICTED BY IDOCK:   -4.57 KCAL/MOL
REMARK 922        TOTAL FREE ENERGY PREDICTED BY IDOCK:   -6.05 KCAL/MOL
REMARK 923 INTER-LIGAND FREE ENERGY PREDICTED BY IDOCK:   -5.88 KCAL/MOL
REMARK 924 INTRA-LIGAND FREE ENERGY PREDICTED BY IDOCK:   -0.17 KCAL/MOL
REMARK 927      BINDING AFFINITY PREDICTED BY RF-SCORE:    0.00 PKD
ROOT
HETATM    1  C   UNL     1     -10.040  11.639  66.543  1.00  0.00    -0.239 C  
HETATM    2  C   UNL     1     -10.403  12.899  65.780  1.00  0.00    -0.284 C  
ENDROOT
BRANCH   2   3
HETATM    3  S   UNL     1     -11.491  13.950  66.729  1.00  0.00    -0.371 S  
HETATM    4  O   UNL     1     -12.660  14.238  65.920  1.00  0.00    -0.450 OA 
HETATM    5  O   UNL     1     -10.704  15.019  67.311  1.00  0.00    -0.285 OA 
BRANCH   3   6
HETATM    6  C   UNL     1     -12.026  12.895  68.057  1.00  0.00    -0.275 C  
BRANCH   6   7
HETATM    7  C   UNL     1     -11.473  13.415  69.374  1.00  0.00    -0.274 C  
BRANCH   7   8
HETATM    8  N   UNL     1     -12.254  12.973  70.519  1.00  0.00    -0.354 NA 
HETATM    9  C   UNL     1     -12.359  11.657  70.950  1.00  0.00    -0.336 A  
HETATM   10  N   UNL     1     -13.208  11.559  71.955  1.00  0.00    -0.456 NA 
HETATM   11  C   UNL     1     -11.626  10.500  70.366  1.00  0.00    -0.430 C  
HETATM   12  C   UNL     1     -13.654  12.826  72.207  1.00  0.00    -0.465 A  
HETATM   13  C   UNL     1     -13.059  13.716  71.351  1.00  0.00    -0.319 A  
HETATM   14  N   UNL     1     -13.213  15.130  71.338  1.00  0.00    -0.411 N  
HETATM   15  O   UNL     1     -12.478  15.782  70.589  1.00  0.00    -0.420 OA 
HETATM   16  O   UNL     1     -14.051  15.602  72.115  1.00  0.00    -0.513 OA 
ENDBRANCH   7   8
ENDBRANCH   6   7
ENDBRANCH   3   6
ENDBRANCH   2   3
TORSDOF 4
ENDMDL
MODEL       31
REMARK 921   NORMALIZED FREE ENERGY PREDICTED BY IDOCK:   -4.56 KCAL/MOL
REMARK 922        TOTAL FREE ENERGY PREDICTED BY IDOCK:   -6.04 KCAL/MOL
REMARK 923 INTER-LIGAND FREE ENERGY PREDICTED BY IDOCK:   -5.48 KCAL/MOL
REMARK 924 INTRA-LIGAND FREE ENERGY PREDICTED BY IDOCK:   -0.56 KCAL/MOL
REMARK 927      BINDING AFFINITY PREDICTED BY RF-SCORE:    0.00 PKD
ROOT
HETATM    1  C   UNL     1      -8.634  14.633  68.297  1.00  0.00    -0.167 C  
HETATM    2  C   UNL     1      -9.362  15.436  69.358  1.00  0.00    -0.266 C  
ENDROOT
BRANCH   2   3
HETATM    3  S   UNL     1     -10.857  16.172  68.713  1.00  0.00    -0.332 S  
HETATM    4  O   UNL     1     -10.615  17.587  68.514  1.00  0.00    -0.357 OA 
HETATM    5  O   UNL     1     -11.976  15.711  69.511  1.00  0.00    -0.359 OA 
BRANCH   3   6
HETATM    6  C   UNL     1     -11.012  15.439  67.100  1.00  0.00    -0.317 C  
BRANCH   6   7
HETATM    7  C   UNL     1     -12.161  14.444  67.101  1.00  0.00    -0.333 C  
BRANCH   7   8
HETATM    8  N   UNL     1     -11.758  13.128  66.630  1.00  0.00    -0.356 NA 
HETATM    9  C   UNL     1     -11.322  12.091  67.444  1.00  0.00    -0.327 A  
HETATM   10  N   UNL     1     -10.943  11.055  66.721  1.00  0.00    -0.251 NA 
HETATM   11  C   UNL     1     -11.277  12.126  68.932  1.00  0.00    -0.320 C  
HETATM   12  C   UNL     1     -11.150  11.401  65.414  1.00  0.00    -0.128 A  
HETATM   13  C   UNL     1     -11.676  12.664  65.337  1.00  0.00    -0.387 A  
HETATM   14  N   UNL     1     -12.087  13.353  64.163  1.00  0.00    -0.429 N  
HETATM   15  O   UNL     1     -12.679  14.428  64.304  1.00  0.00    -0.657 OA 
HETATM   16  O   UNL     1     -11.852  12.797  63.084  1.00  0.00    -0.493 OA 
ENDBRANCH   7   8
ENDBRANCH   6   7
ENDBRANCH   3   6
ENDBRANCH   2   3
TORSDOF 4
ENDMDL
MODEL       32
REMARK 921   NORMALIZED FREE ENERGY PREDICTED BY IDOCK:   -4.51 KCAL/MOL
REMARK 922        TOTAL FREE ENERGY PREDICTED BY IDOCK:   -5.98 KCAL/MOL
REMARK 923 INTER-LIGAND FREE ENERGY PREDICTED BY IDOCK:   -5.62 KCAL/MOL
REMARK 924 INTRA-LIGAND FREE ENERGY PREDICTED BY IDOCK:   -0.36 KCAL/MOL
REMARK 927      BINDING AFFINITY PREDICTED BY RF-SCORE:    0.00 PKD
ROOT
HETATM    1  C   UNL     1     -11.280   6.575  70.262  1.00  0.00    -0.433 C  
HETATM    2  C   UNL     1     -12.512   7.072  70.994  1.00  0.00    -0.326 C  
ENDROOT
BRANCH   2   3
HETATM    3  S   UNL     1     -12.110   8.374  72.149  1.00  0.00    -0.392 S  
HETATM    4  O   UNL     1     -11.044   7.899  73.011  1.00  0.00    -0.402 OA 
HETATM    5  O   UNL     1     -13.344   8.892  72.704  1.00  0.00    -0.433 OA 
BRANCH   3   6
HETATM    6  C   UNL     1     -11.415   9.641  71.113  1.00  0.00    -0.384 C  
BRANCH   6   7
HETATM    7  C   UNL     1     -12.529  10.356  70.366  1.00  0.00    -0.268 C  
BRANCH   7   8
HETATM    8  N   UNL     1     -12.103  11.635  69.821  1.00  0.00    -0.303 NA 
HETATM    9  C   UNL     1     -11.445  11.804  68.610  1.00  0.00    -0.288 A  
HETATM   10  N   UNL     1     -11.110  13.067  68.431  1.00  0.00    -0.247 NA 
HETATM   11  C   UNL     1     -11.144  10.719  67.636  1.00  0.00    -0.384 C  
HETATM   12  C   UNL     1     -11.569  13.747  69.525  1.00  0.00    -0.297 A  
HETATM   13  C   UNL     1     -12.208  12.887  70.381  1.00  0.00    -0.304 A  
HETATM   14  N   UNL     1     -12.874  13.220  71.593  1.00  0.00    -0.331 N  
HETATM   15  O   UNL     1     -13.523  12.332  72.154  1.00  0.00    -0.509 OA 
HETATM   16  O   UNL     1     -12.783  14.394  71.969  1.00  0.00    -0.318 OA 
ENDBRANCH   7   8
ENDBRANCH   6   7
ENDBRANCH   3   6
ENDBRANCH   2   3
TORSDOF 4
ENDMDL
MODEL       33
REMARK 921   NORMALIZED FREE ENERGY PREDICTED BY IDOCK:   -4.51 KCAL/MOL
REMARK 922        TOTAL FREE ENERGY PREDICTED BY IDOCK:   -5.98 KCAL/MOL
REMARK 923 INTER-LIGAND FREE ENERGY PREDICTED BY IDOCK:   -5.67 KCAL/MOL
REMARK 924 INTRA-LIGAND FREE ENERGY PREDICTED BY IDOCK:   -0.31 KCAL/MOL
REMARK 927      BINDING AFFINITY PREDICTED BY RF-SCORE:    0.00 PKD
ROOT
HETATM    1  C   UNL     1     -14.306   7.712  71.642  1.00  0.00    -0.613 C  
HETATM    2  C   UNL     1     -13.319   8.723  72.196  1.00  0.00    -0.423 C  
ENDROOT
BRANCH   2   3
HETATM    3  S   UNL     1     -11.677   8.461  71.545  1.00  0.00    -0.308 S  
HETATM    4  O   UNL     1     -11.781   7.585  70.394  1.00  0.00    -0.212 OA 
HETATM    5  O   UNL     1     -10.792   8.141  72.648  1.00  0.00    -0.337 OA 
BRANCH   3   6
HETATM    6  C   UNL     1     -11.215  10.066  70.937  1.00  0.00    -0.341 C  
BRANCH   6   7
HETATM    7  C   UNL     1     -12.446  10.782  70.406  1.00  0.00    -0.347 C  
BRANCH   7   8
HETATM    8  N   UNL     1     -12.151  12.131  69.947  1.00  0.00    -0.284 NA 
HETATM    9  C   UNL     1     -11.571  12.447  68.726  1.00  0.00    -0.326 A  
HETATM   10  N   UNL     1     -11.347  13.743  68.634  1.00  0.00    -0.268 NA 
HETATM   11  C   UNL     1     -11.234  11.468  67.655  1.00  0.00    -0.343 C  
HETATM   12  C   UNL     1     -11.802  14.296  69.798  1.00  0.00    -0.324 A  
HETATM   13  C   UNL     1     -12.326  13.324  70.610  1.00  0.00    -0.339 A  
HETATM   14  N   UNL     1     -12.955  13.506  71.873  1.00  0.00    -0.349 N  
HETATM   15  O   UNL     1     -13.502  12.526  72.389  1.00  0.00    -0.529 OA 
HETATM   16  O   UNL     1     -12.939  14.651  72.339  1.00  0.00    -0.325 OA 
ENDBRANCH   7   8
ENDBRANCH   6   7
ENDBRANCH   3   6
ENDBRANCH   2   3
TORSDOF 4
ENDMDL
MODEL       34
REMARK 921   NORMALIZED FREE ENERGY PREDICTED BY IDOCK:   -4.51 KCAL/MOL
REMARK 922        TOTAL FREE ENERGY PREDICTED BY IDOCK:   -5.97 KCAL/MOL
REMARK 923 INTER-LIGAND FREE ENERGY PREDICTED BY IDOCK:   -5.64 KCAL/MOL
REMARK 924 INTRA-LIGAND FREE ENERGY PREDICTED BY IDOCK:   -0.33 KCAL/MOL
REMARK 927      BINDING AFFINITY PREDICTED BY RF-SCORE:    0.00 PKD
ROOT
HETATM    1  C   UNL     1      -6.652  19.927  69.833  1.00  0.00    -0.329 C  
HETATM    2  C   UNL     1      -6.996  18.792  68.887  1.00  0.00    -0.308 C  
ENDROOT
BRANCH   2   3
HETATM    3  S   UNL     1      -8.686  18.899  68.320  1.00  0.00    -0.343 S  
HETATM    4  O   UNL     1      -8.669  19.076  66.881  1.00  0.00    -0.285 OA 
HETATM    5  O   UNL     1      -9.400  19.826  69.177  1.00  0.00    -0.271 OA 
BRANCH   3   6
HETATM    6  C   UNL     1      -9.329  17.273  68.637  1.00  0.00    -0.267 C  
BRANCH   6   7
HETATM    7  C   UNL     1     -10.743  17.168  68.087  1.00  0.00    -0.366 C  
BRANCH   7   8
HETATM    8  N   UNL     1     -11.173  15.789  67.916  1.00  0.00    -0.336 NA 
HETATM    9  C   UNL     1     -11.784  15.019  68.898  1.00  0.00    -0.328 A  
HETATM   10  N   UNL     1     -11.974  13.785  68.474  1.00  0.00    -0.370 NA 
HETATM   11  C   UNL     1     -12.173  15.502  70.251  1.00  0.00    -0.432 C  
HETATM   12  C   UNL     1     -11.504  13.741  67.191  1.00  0.00    -0.340 A  
HETATM   13  C   UNL     1     -11.031  14.973  66.819  1.00  0.00    -0.323 A  
HETATM   14  N   UNL     1     -10.521  15.347  65.545  1.00  0.00    -0.350 N  
HETATM   15  O   UNL     1     -10.281  16.543  65.351  1.00  0.00    -0.566 OA 
HETATM   16  O   UNL     1     -10.395  14.443  64.712  1.00  0.00    -0.431 OA 
ENDBRANCH   7   8
ENDBRANCH   6   7
ENDBRANCH   3   6
ENDBRANCH   2   3
TORSDOF 4
ENDMDL
MODEL       35
REMARK 921   NORMALIZED FREE ENERGY PREDICTED BY IDOCK:   -4.41 KCAL/MOL
REMARK 922        TOTAL FREE ENERGY PREDICTED BY IDOCK:   -5.85 KCAL/MOL
REMARK 923 INTER-LIGAND FREE ENERGY PREDICTED BY IDOCK:   -5.75 KCAL/MOL
REMARK 924 INTRA-LIGAND FREE ENERGY PREDICTED BY IDOCK:   -0.10 KCAL/MOL
REMARK 927      BINDING AFFINITY PREDICTED BY RF-SCORE:    0.00 PKD
ROOT
HETATM    1  C   UNL     1      -7.579  15.232  67.103  1.00  0.00    -0.224 C  
HETATM    2  C   UNL     1      -8.389  16.246  66.319  1.00  0.00    -0.308 C  
ENDROOT
BRANCH   2   3
HETATM    3  S   UNL     1     -10.035  15.645  65.973  1.00  0.00    -0.362 S  
HETATM    4  O   UNL     1      -9.927  14.281  65.494  1.00  0.00    -0.334 OA 
HETATM    5  O   UNL     1     -10.739  16.652  65.204  1.00  0.00    -0.621 OA 
BRANCH   3   6
HETATM    6  C   UNL     1     -10.791  15.573  67.580  1.00  0.00    -0.306 C  
BRANCH   6   7
HETATM    7  C   UNL     1     -11.999  14.652  67.534  1.00  0.00    -0.278 C  
BRANCH   7   8
HETATM    8  N   UNL     1     -12.060  13.755  68.678  1.00  0.00    -0.355 NA 
HETATM    9  C   UNL     1     -12.244  14.157  69.994  1.00  0.00    -0.357 A  
HETATM   10  N   UNL     1     -12.165  13.127  70.814  1.00  0.00    -0.348 NA 
HETATM   11  C   UNL     1     -12.493  15.556  70.440  1.00  0.00    -0.443 C  
HETATM   12  C   UNL     1     -11.948  12.027  70.032  1.00  0.00    -0.324 A  
HETATM   13  C   UNL     1     -11.906  12.389  68.710  1.00  0.00    -0.311 A  
HETATM   14  N   UNL     1     -11.763  11.526  67.588  1.00  0.00    -0.257 N  
HETATM   15  O   UNL     1     -11.900  12.018  66.463  1.00  0.00    -0.585 OA 
HETATM   16  O   UNL     1     -11.552  10.333  67.831  1.00  0.00    -0.338 OA 
ENDBRANCH   7   8
ENDBRANCH   6   7
ENDBRANCH   3   6
ENDBRANCH   2   3
TORSDOF 4
ENDMDL
MODEL       36
REMARK 921   NORMALIZED FREE ENERGY PREDICTED BY IDOCK:   -4.37 KCAL/MOL
REMARK 922        TOTAL FREE ENERGY PREDICTED BY IDOCK:   -5.81 KCAL/MOL
REMARK 923 INTER-LIGAND FREE ENERGY PREDICTED BY IDOCK:   -5.49 KCAL/MOL
REMARK 924 INTRA-LIGAND FREE ENERGY PREDICTED BY IDOCK:   -0.32 KCAL/MOL
REMARK 927      BINDING AFFINITY PREDICTED BY RF-SCORE:    0.00 PKD
ROOT
HETATM    1  C   UNL     1      -9.775  17.336  68.689  1.00  0.00    -0.301 C  
HETATM    2  C   UNL     1     -10.561  17.854  67.499  1.00  0.00    -0.376 C  
ENDROOT
BRANCH   2   3
HETATM    3  S   UNL     1     -10.027  17.088  65.977  1.00  0.00    -0.229 S  
HETATM    4  O   UNL     1      -8.647  17.466  65.740  1.00  0.00    -0.526 OA 
HETATM    5  O   UNL     1     -11.045  17.312  64.969  1.00  0.00    -0.614 OA 
BRANCH   3   6
HETATM    6  C   UNL     1     -10.031  15.354  66.366  1.00  0.00    -0.278 C  
BRANCH   6   7
HETATM    7  C   UNL     1     -11.464  14.861  66.479  1.00  0.00    -0.286 C  
BRANCH   7   8
HETATM    8  N   UNL     1     -11.548  13.509  67.011  1.00  0.00    -0.339 NA 
HETATM    9  C   UNL     1     -11.811  13.192  68.337  1.00  0.00    -0.351 A  
HETATM   10  N   UNL     1     -11.734  11.890  68.532  1.00  0.00    -0.315 NA 
HETATM   11  C   UNL     1     -12.131  14.174  69.409  1.00  0.00    -0.372 C  
HETATM   12  C   UNL     1     -11.438  11.335  67.317  1.00  0.00    -0.186 A  
HETATM   13  C   UNL     1     -11.346  12.314  66.361  1.00  0.00    -0.354 A  
HETATM   14  N   UNL     1     -11.117  12.135  64.969  1.00  0.00    -0.312 N  
HETATM   15  O   UNL     1     -11.217  13.126  64.238  1.00  0.00    -0.355 OA 
HETATM   16  O   UNL     1     -10.875  10.983  64.592  1.00  0.00    -0.296 OA 
ENDBRANCH   7   8
ENDBRANCH   6   7
ENDBRANCH   3   6
ENDBRANCH   2   3
TORSDOF 4
ENDMDL
MODEL       37
REMARK 921   NORMALIZED FREE ENERGY PREDICTED BY IDOCK:   -4.37 KCAL/MOL
REMARK 922        TOTAL FREE ENERGY PREDICTED BY IDOCK:   -5.80 KCAL/MOL
REMARK 923 INTER-LIGAND FREE ENERGY PREDICTED BY IDOCK:   -5.47 KCAL/MOL
REMARK 924 INTRA-LIGAND FREE ENERGY PREDICTED BY IDOCK:   -0.34 KCAL/MOL
REMARK 927      BINDING AFFINITY PREDICTED BY RF-SCORE:    0.00 PKD
ROOT
HETATM    1  C   UNL     1      -9.976  15.629  65.981  1.00  0.00    -0.359 C  
HETATM    2  C   UNL     1     -10.633  15.162  67.266  1.00  0.00    -0.286 C  
ENDROOT
BRANCH   2   3
HETATM    3  S   UNL     1     -10.019  16.061  68.682  1.00  0.00    -0.230 S  
HETATM    4  O   UNL     1     -10.639  17.371  68.689  1.00  0.00    -0.357 OA 
HETATM    5  O   UNL     1      -8.577  15.917  68.726  1.00  0.00    -0.185 OA 
BRANCH   3   6
HETATM    6  C   UNL     1     -10.688  15.161  70.061  1.00  0.00    -0.238 C  
BRANCH   6   7
HETATM    7  C   UNL     1     -12.105  14.716  69.739  1.00  0.00    -0.324 C  
BRANCH   7   8
HETATM    8  N   UNL     1     -12.658  13.836  70.757  1.00  0.00    -0.346 NA 
HETATM    9  C   UNL     1     -13.337  14.261  71.892  1.00  0.00    -0.388 A  
HETATM   10  N   UNL     1     -13.636  13.238  72.669  1.00  0.00    -0.662 NA 
HETATM   11  C   UNL     1     -13.682  15.674  72.209  1.00  0.00    -0.584 C  
HETATM   12  C   UNL     1     -13.171  12.121  72.033  1.00  0.00    -0.391 A  
HETATM   13  C   UNL     1     -12.588  12.465  70.840  1.00  0.00    -0.246 A  
HETATM   14  N   UNL     1     -12.045  11.584  69.865  1.00  0.00    -0.319 N  
HETATM   15  O   UNL     1     -11.699  12.068  68.782  1.00  0.00    -0.282 OA 
HETATM   16  O   UNL     1     -12.000  10.386  70.165  1.00  0.00    -0.270 OA 
ENDBRANCH   7   8
ENDBRANCH   6   7
ENDBRANCH   3   6
ENDBRANCH   2   3
TORSDOF 4
ENDMDL
MODEL       38
REMARK 921   NORMALIZED FREE ENERGY PREDICTED BY IDOCK:   -4.35 KCAL/MOL
REMARK 922        TOTAL FREE ENERGY PREDICTED BY IDOCK:   -5.78 KCAL/MOL
REMARK 923 INTER-LIGAND FREE ENERGY PREDICTED BY IDOCK:   -5.45 KCAL/MOL
REMARK 924 INTRA-LIGAND FREE ENERGY PREDICTED BY IDOCK:   -0.33 KCAL/MOL
REMARK 927      BINDING AFFINITY PREDICTED BY RF-SCORE:    0.00 PKD
ROOT
HETATM    1  C   UNL     1     -11.964  10.963  70.717  1.00  0.00    -0.449 C  
HETATM    2  C   UNL     1     -11.225   9.666  70.450  1.00  0.00    -0.283 C  
ENDROOT
BRANCH   2   3
HETATM    3  S   UNL     1     -10.326   9.728  68.907  1.00  0.00    -0.219 S  
HETATM    4  O   UNL     1     -10.372   8.411  68.304  1.00  0.00    -0.204 OA 
HETATM    5  O   UNL     1      -9.063  10.399  69.140  1.00  0.00    -0.176 OA 
BRANCH   3   6
HETATM    6  C   UNL     1     -11.322  10.798  67.895  1.00  0.00    -0.299 C  
BRANCH   6   7
HETATM    7  C   UNL     1     -10.421  11.721  67.090  1.00  0.00    -0.220 C  
BRANCH   7   8
HETATM    8  N   UNL     1     -10.756  11.730  65.674  1.00  0.00    -0.272 NA 
HETATM    9  C   UNL     1     -10.273  10.827  64.737  1.00  0.00    -0.334 A  
HETATM   10  N   UNL     1     -10.683  11.146  63.525  1.00  0.00    -0.341 NA 
HETATM   11  C   UNL     1      -9.404   9.656  65.039  1.00  0.00    -0.319 C  
HETATM   12  C   UNL     1     -11.464  12.259  63.662  1.00  0.00    -0.490 A  
HETATM   13  C   UNL     1     -11.544  12.620  64.982  1.00  0.00    -0.345 A  
HETATM   14  N   UNL     1     -12.310  13.682  65.537  1.00  0.00    -0.450 N  
HETATM   15  O   UNL     1     -12.377  13.761  66.768  1.00  0.00    -0.403 OA 
HETATM   16  O   UNL     1     -12.887  14.425  64.735  1.00  0.00    -0.647 OA 
ENDBRANCH   7   8
ENDBRANCH   6   7
ENDBRANCH   3   6
ENDBRANCH   2   3
TORSDOF 4
ENDMDL
MODEL       39
REMARK 921   NORMALIZED FREE ENERGY PREDICTED BY IDOCK:   -4.34 KCAL/MOL
REMARK 922        TOTAL FREE ENERGY PREDICTED BY IDOCK:   -5.77 KCAL/MOL
REMARK 923 INTER-LIGAND FREE ENERGY PREDICTED BY IDOCK:   -5.55 KCAL/MOL
REMARK 924 INTRA-LIGAND FREE ENERGY PREDICTED BY IDOCK:   -0.22 KCAL/MOL
REMARK 927      BINDING AFFINITY PREDICTED BY RF-SCORE:    0.00 PKD
ROOT
HETATM    1  C   UNL     1     -10.482  11.177  64.121  1.00  0.00    -0.442 C  
HETATM    2  C   UNL     1     -10.560  12.687  64.002  1.00  0.00    -0.427 C  
ENDROOT
BRANCH   2   3
HETATM    3  S   UNL     1     -12.245  13.268  64.116  1.00  0.00    -0.383 S  
HETATM    4  O   UNL     1     -13.025  12.261  64.809  1.00  0.00    -0.713 OA 
HETATM    5  O   UNL     1     -12.650  13.760  62.814  1.00  0.00    -0.447 OA 
BRANCH   3   6
HETATM    6  C   UNL     1     -12.124  14.669  65.203  1.00  0.00    -0.308 C  
BRANCH   6   7
HETATM    7  C   UNL     1     -12.232  14.205  66.646  1.00  0.00    -0.418 C  
BRANCH   7   8
HETATM    8  N   UNL     1     -10.934  14.095  67.295  1.00  0.00    -0.292 NA 
HETATM    9  C   UNL     1     -10.050  15.148  67.488  1.00  0.00    -0.232 A  
HETATM   10  N   UNL     1      -8.922  14.721  68.022  1.00  0.00    -0.170 NA 
HETATM   11  C   UNL     1     -10.318  16.571  67.141  1.00  0.00    -0.298 C  
HETATM   12  C   UNL     1      -9.067  13.374  68.204  1.00  0.00    -0.207 A  
HETATM   13  C   UNL     1     -10.310  12.973  67.788  1.00  0.00    -0.226 A  
HETATM   14  N   UNL     1     -10.863  11.665  67.872  1.00  0.00    -0.199 N  
HETATM   15  O   UNL     1     -12.056  11.526  67.584  1.00  0.00    -0.623 OA 
HETATM   16  O   UNL     1     -10.109  10.770  68.271  1.00  0.00    -0.161 OA 
ENDBRANCH   7   8
ENDBRANCH   6   7
ENDBRANCH   3   6
ENDBRANCH   2   3
TORSDOF 4
ENDMDL
MODEL       40
REMARK 921   NORMALIZED FREE ENERGY PREDICTED BY IDOCK:   -4.31 KCAL/MOL
REMARK 922        TOTAL FREE ENERGY PREDICTED BY IDOCK:   -5.73 KCAL/MOL
REMARK 923 INTER-LIGAND FREE ENERGY PREDICTED BY IDOCK:   -5.48 KCAL/MOL
REMARK 924 INTRA-LIGAND FREE ENERGY PREDICTED BY IDOCK:   -0.25 KCAL/MOL
REMARK 927      BINDING AFFINITY PREDICTED BY RF-SCORE:    0.00 PKD
ROOT
HETATM    1  C   UNL     1     -14.403   7.276  71.582  1.00  0.00    -0.583 C  
HETATM    2  C   UNL     1     -13.722   8.594  71.897  1.00  0.00    -0.421 C  
ENDROOT
BRANCH   2   3
HETATM    3  S   UNL     1     -11.964   8.513  71.594  1.00  0.00    -0.338 S  
HETATM    4  O   UNL     1     -11.748   7.727  70.395  1.00  0.00    -0.176 OA 
HETATM    5  O   UNL     1     -11.299   8.176  72.837  1.00  0.00    -0.387 OA 
BRANCH   3   6
HETATM    6  C   UNL     1     -11.538  10.193  71.198  1.00  0.00    -0.346 C  
BRANCH   6   7
HETATM    7  C   UNL     1     -12.716  10.870  70.517  1.00  0.00    -0.280 C  
BRANCH   7   8
HETATM    8  N   UNL     1     -12.408  12.226  70.089  1.00  0.00    -0.193 NA 
HETATM    9  C   UNL     1     -12.545  13.359  70.879  1.00  0.00    -0.327 A  
HETATM   10  N   UNL     1     -12.275  14.449  70.186  1.00  0.00    -0.323 NA 
HETATM   11  C   UNL     1     -12.945  13.365  72.313  1.00  0.00    -0.393 C  
HETATM   12  C   UNL     1     -11.936  14.032  68.929  1.00  0.00    -0.352 A  
HETATM   13  C   UNL     1     -11.986  12.664  68.856  1.00  0.00    -0.242 A  
HETATM   14  N   UNL     1     -11.641  11.852  67.740  1.00  0.00    -0.327 N  
HETATM   15  O   UNL     1     -11.604  10.629  67.909  1.00  0.00    -0.491 OA 
HETATM   16  O   UNL     1     -11.364  12.442  66.690  1.00  0.00    -0.299 OA 
ENDBRANCH   7   8
ENDBRANCH   6   7
ENDBRANCH   3   6
ENDBRANCH   2   3
TORSDOF 4
ENDMDL
MODEL       41
REMARK 921   NORMALIZED FREE ENERGY PREDICTED BY IDOCK:   -4.31 KCAL/MOL
REMARK 922        TOTAL FREE ENERGY PREDICTED BY IDOCK:   -5.73 KCAL/MOL
REMARK 923 INTER-LIGAND FREE ENERGY PREDICTED BY IDOCK:   -5.55 KCAL/MOL
REMARK 924 INTRA-LIGAND FREE ENERGY PREDICTED BY IDOCK:   -0.18 KCAL/MOL
REMARK 927      BINDING AFFINITY PREDICTED BY RF-SCORE:    0.00 PKD
ROOT
HETATM    1  C   UNL     1     -10.658   7.568  67.031  1.00  0.00    -0.409 C  
HETATM    2  C   UNL     1     -10.547   9.002  67.513  1.00  0.00    -0.237 C  
ENDROOT
BRANCH   2   3
HETATM    3  S   UNL     1      -9.574   9.998  66.394  1.00  0.00    -0.208 S  
HETATM    4  O   UNL     1      -9.571   9.349  65.097  1.00  0.00    -0.256 OA 
HETATM    5  O   UNL     1      -8.332  10.349  67.055  1.00  0.00    -0.125 OA 
BRANCH   3   6
HETATM    6  C   UNL     1     -10.532  11.486  66.228  1.00  0.00    -0.251 C  
BRANCH   6   7
HETATM    7  C   UNL     1      -9.976  12.326  65.091  1.00  0.00    -0.215 C  
BRANCH   7   8
HETATM    8  N   UNL     1     -10.877  13.399  64.698  1.00  0.00    -0.371 NA 
HETATM    9  C   UNL     1     -12.023  13.234  63.931  1.00  0.00    -0.483 A  
HETATM   10  N   UNL     1     -12.580  14.400  63.666  1.00  0.00    -0.723 NA 
HETATM   11  C   UNL     1     -12.561  11.929  63.458  1.00  0.00    -0.579 C  
HETATM   12  C   UNL     1     -11.809  15.345  64.281  1.00  0.00    -0.199 A  
HETATM   13  C   UNL     1     -10.769  14.747  64.945  1.00  0.00    -0.417 A  
HETATM   14  N   UNL     1      -9.788  15.384  65.755  1.00  0.00    -0.349 N  
HETATM   15  O   UNL     1      -9.017  14.663  66.397  1.00  0.00    -0.244 OA 
HETATM   16  O   UNL     1      -9.811  16.619  65.784  1.00  0.00    -0.482 OA 
ENDBRANCH   7   8
ENDBRANCH   6   7
ENDBRANCH   3   6
ENDBRANCH   2   3
TORSDOF 4
ENDMDL
MODEL       42
REMARK 921   NORMALIZED FREE ENERGY PREDICTED BY IDOCK:   -4.30 KCAL/MOL
REMARK 922        TOTAL FREE ENERGY PREDICTED BY IDOCK:   -5.72 KCAL/MOL
REMARK 923 INTER-LIGAND FREE ENERGY PREDICTED BY IDOCK:   -5.40 KCAL/MOL
REMARK 924 INTRA-LIGAND FREE ENERGY PREDICTED BY IDOCK:   -0.32 KCAL/MOL
REMARK 927      BINDING AFFINITY PREDICTED BY RF-SCORE:    0.00 PKD
ROOT
HETATM    1  C   UNL     1      -8.145  16.771  66.418  1.00  0.00    -0.355 C  
HETATM    2  C   UNL     1      -8.329  16.913  67.917  1.00  0.00    -0.198 C  
ENDROOT
BRANCH   2   3
HETATM    3  S   UNL     1      -9.980  17.460  68.327  1.00  0.00    -0.341 S  
HETATM    4  O   UNL     1     -10.845  17.170  67.200  1.00  0.00    -0.225 OA 
HETATM    5  O   UNL     1      -9.896  18.798  68.879  1.00  0.00    -0.386 OA 
BRANCH   3   6
HETATM    6  C   UNL     1     -10.459  16.367  69.645  1.00  0.00    -0.278 C  
BRANCH   6   7
HETATM    7  C   UNL     1     -11.787  15.712  69.305  1.00  0.00    -0.363 C  
BRANCH   7   8
HETATM    8  N   UNL     1     -11.851  14.324  69.738  1.00  0.00    -0.304 NA 
HETATM    9  C   UNL     1     -11.256  13.257  69.079  1.00  0.00    -0.270 A  
HETATM   10  N   UNL     1     -11.565  12.115  69.662  1.00  0.00    -0.303 NA 
HETATM   11  C   UNL     1     -10.389  13.366  67.874  1.00  0.00    -0.238 C  
HETATM   12  C   UNL     1     -12.356  12.430  70.732  1.00  0.00    -0.286 A  
HETATM   13  C   UNL     1     -12.522  13.788  70.813  1.00  0.00    -0.370 A  
HETATM   14  N   UNL     1     -13.222  14.509  71.820  1.00  0.00    -0.330 N  
HETATM   15  O   UNL     1     -13.137  15.741  71.809  1.00  0.00    -0.462 OA 
HETATM   16  O   UNL     1     -13.833  13.837  72.658  1.00  0.00    -0.691 OA 
ENDBRANCH   7   8
ENDBRANCH   6   7
ENDBRANCH   3   6
ENDBRANCH   2   3
TORSDOF 4
ENDMDL
MODEL       43
REMARK 921   NORMALIZED FREE ENERGY PREDICTED BY IDOCK:   -4.29 KCAL/MOL
REMARK 922        TOTAL FREE ENERGY PREDICTED BY IDOCK:   -5.71 KCAL/MOL
REMARK 923 INTER-LIGAND FREE ENERGY PREDICTED BY IDOCK:   -5.29 KCAL/MOL
REMARK 924 INTRA-LIGAND FREE ENERGY PREDICTED BY IDOCK:   -0.42 KCAL/MOL
REMARK 927      BINDING AFFINITY PREDICTED BY RF-SCORE:    0.00 PKD
ROOT
HETATM    1  C   UNL     1     -11.732  12.967  69.391  1.00  0.00    -0.382 C  
HETATM    2  C   UNL     1     -11.873  14.315  68.710  1.00  0.00    -0.341 C  
ENDROOT
BRANCH   2   3
HETATM    3  S   UNL     1     -11.297  14.260  67.020  1.00  0.00    -0.356 S  
HETATM    4  O   UNL     1     -12.445  14.059  66.158  1.00  0.00    -0.467 OA 
HETATM    5  O   UNL     1     -10.151  13.375  66.955  1.00  0.00    -0.247 OA 
BRANCH   3   6
HETATM    6  C   UNL     1     -10.714  15.914  66.732  1.00  0.00    -0.281 C  
BRANCH   6   7
HETATM    7  C   UNL     1     -10.680  16.679  68.045  1.00  0.00    -0.350 C  
BRANCH   7   8
HETATM    8  N   UNL     1      -9.419  17.373  68.253  1.00  0.00    -0.280 NA 
HETATM    9  C   UNL     1      -8.267  16.792  68.768  1.00  0.00    -0.250 A  
HETATM   10  N   UNL     1      -7.317  17.694  68.923  1.00  0.00    -0.258 NA 
HETATM   11  C   UNL     1      -8.109  15.352  69.110  1.00  0.00    -0.233 C  
HETATM   12  C   UNL     1      -7.836  18.881  68.486  1.00  0.00    -0.337 A  
HETATM   13  C   UNL     1      -9.122  18.699  68.044  1.00  0.00    -0.305 A  
HETATM   14  N   UNL     1      -9.973  19.676  67.458  1.00  0.00    -0.363 N  
HETATM   15  O   UNL     1     -11.046  19.292  66.982  1.00  0.00    -0.391 OA 
HETATM   16  O   UNL     1      -9.550  20.837  67.435  1.00  0.00    -0.452 OA 
ENDBRANCH   7   8
ENDBRANCH   6   7
ENDBRANCH   3   6
ENDBRANCH   2   3
TORSDOF 4
ENDMDL
MODEL       44
REMARK 921   NORMALIZED FREE ENERGY PREDICTED BY IDOCK:   -4.28 KCAL/MOL
REMARK 922        TOTAL FREE ENERGY PREDICTED BY IDOCK:   -5.70 KCAL/MOL
REMARK 923 INTER-LIGAND FREE ENERGY PREDICTED BY IDOCK:   -5.42 KCAL/MOL
REMARK 924 INTRA-LIGAND FREE ENERGY PREDICTED BY IDOCK:   -0.28 KCAL/MOL
REMARK 927      BINDING AFFINITY PREDICTED BY RF-SCORE:    0.00 PKD
ROOT
HETATM    1  C   UNL     1     -11.249  11.673  64.710  1.00  0.00    -0.300 C  
HETATM    2  C   UNL     1     -10.753  13.051  64.314  1.00  0.00    -0.407 C  
ENDROOT
BRANCH   2   3
HETATM    3  S   UNL     1     -11.799  14.340  64.972  1.00  0.00    -0.416 S  
HETATM    4  O   UNL     1     -12.391  13.856  66.205  1.00  0.00    -0.452 OA 
HETATM    5  O   UNL     1     -12.626  14.853  63.898  1.00  0.00    -0.831 OA 
BRANCH   3   6
HETATM    6  C   UNL     1     -10.646  15.618  65.417  1.00  0.00    -0.415 C  
BRANCH   6   7
HETATM    7  C   UNL     1     -10.997  16.166  66.790  1.00  0.00    -0.080 C  
BRANCH   7   8
HETATM    8  N   UNL     1      -9.950  17.017  67.334  1.00  0.00    -0.270 NA 
HETATM    9  C   UNL     1      -9.749  18.348  66.993  1.00  0.00    -0.310 A  
HETATM   10  N   UNL     1      -8.671  18.825  67.583  1.00  0.00    -0.277 NA 
HETATM   11  C   UNL     1     -10.619  19.143  66.082  1.00  0.00    -0.524 C  
HETATM   12  C   UNL     1      -8.163  17.807  68.340  1.00  0.00    -0.298 A  
HETATM   13  C   UNL     1      -8.951  16.692  68.222  1.00  0.00    -0.214 A  
HETATM   14  N   UNL     1      -8.793  15.452  68.902  1.00  0.00    -0.195 N  
HETATM   15  O   UNL     1      -9.690  14.613  68.783  1.00  0.00    -0.215 OA 
HETATM   16  O   UNL     1      -7.778  15.329  69.598  1.00  0.00    -0.219 OA 
ENDBRANCH   7   8
ENDBRANCH   6   7
ENDBRANCH   3   6
ENDBRANCH   2   3
TORSDOF 4
ENDMDL
MODEL       45
REMARK 921   NORMALIZED FREE ENERGY PREDICTED BY IDOCK:   -4.27 KCAL/MOL
REMARK 922        TOTAL FREE ENERGY PREDICTED BY IDOCK:   -5.68 KCAL/MOL
REMARK 923 INTER-LIGAND FREE ENERGY PREDICTED BY IDOCK:   -5.15 KCAL/MOL
REMARK 924 INTRA-LIGAND FREE ENERGY PREDICTED BY IDOCK:   -0.53 KCAL/MOL
REMARK 927      BINDING AFFINITY PREDICTED BY RF-SCORE:    0.00 PKD
ROOT
HETATM    1  C   UNL     1      -8.335  12.604  66.767  1.00  0.00    -0.011 C  
HETATM    2  C   UNL     1      -9.420  11.552  66.635  1.00  0.00    -0.193 C  
ENDROOT
BRANCH   2   3
HETATM    3  S   UNL     1     -10.674  11.742  67.892  1.00  0.00    -0.216 S  
HETATM    4  O   UNL     1     -10.282  10.954  69.044  1.00  0.00    -0.198 OA 
HETATM    5  O   UNL     1     -11.973  11.565  67.273  1.00  0.00    -0.605 OA 
BRANCH   3   6
HETATM    6  C   UNL     1     -10.532  13.451  68.358  1.00  0.00    -0.250 C  
BRANCH   6   7
HETATM    7  C   UNL     1     -11.640  14.254  67.698  1.00  0.00    -0.368 C  
BRANCH   7   8
HETATM    8  N   UNL     1     -11.128  15.314  66.843  1.00  0.00    -0.314 NA 
HETATM    9  C   UNL     1     -10.988  15.227  65.464  1.00  0.00    -0.359 A  
HETATM   10  N   UNL     1     -10.413  16.312  64.982  1.00  0.00    -0.634 NA 
HETATM   11  C   UNL     1     -11.416  14.072  64.628  1.00  0.00    -0.389 C  
HETATM   12  C   UNL     1     -10.189  17.136  66.049  1.00  0.00    -0.321 A  
HETATM   13  C   UNL     1     -10.646  16.552  67.202  1.00  0.00    -0.270 A  
HETATM   14  N   UNL     1     -10.653  17.118  68.507  1.00  0.00    -0.362 N  
HETATM   15  O   UNL     1     -11.244  16.500  69.398  1.00  0.00    -0.286 OA 
HETATM   16  O   UNL     1     -10.096  18.213  68.638  1.00  0.00    -0.370 OA 
ENDBRANCH   7   8
ENDBRANCH   6   7
ENDBRANCH   3   6
ENDBRANCH   2   3
TORSDOF 4
ENDMDL
MODEL       46
REMARK 921   NORMALIZED FREE ENERGY PREDICTED BY IDOCK:   -4.26 KCAL/MOL
REMARK 922        TOTAL FREE ENERGY PREDICTED BY IDOCK:   -5.67 KCAL/MOL
REMARK 923 INTER-LIGAND FREE ENERGY PREDICTED BY IDOCK:   -5.29 KCAL/MOL
REMARK 924 INTRA-LIGAND FREE ENERGY PREDICTED BY IDOCK:   -0.38 KCAL/MOL
REMARK 927      BINDING AFFINITY PREDICTED BY RF-SCORE:    0.00 PKD
ROOT
HETATM    1  C   UNL     1     -10.905  11.247  64.042  1.00  0.00    -0.414 C  
HETATM    2  C   UNL     1     -10.477  12.702  64.101  1.00  0.00    -0.413 C  
ENDROOT
BRANCH   2   3
HETATM    3  S   UNL     1     -11.764  13.737  64.782  1.00  0.00    -0.402 S  
HETATM    4  O   UNL     1     -12.295  13.081  65.961  1.00  0.00    -0.439 OA 
HETATM    5  O   UNL     1     -12.637  14.153  63.702  1.00  0.00    -0.831 OA 
BRANCH   3   6
HETATM    6  C   UNL     1     -10.881  15.175  65.340  1.00  0.00    -0.381 C  
BRANCH   6   7
HETATM    7  C   UNL     1     -11.067  15.336  66.840  1.00  0.00    -0.288 C  
BRANCH   7   8
HETATM    8  N   UNL     1      -9.803  15.475  67.547  1.00  0.00    -0.220 NA 
HETATM    9  C   UNL     1      -9.016  14.417  67.983  1.00  0.00    -0.183 A  
HETATM   10  N   UNL     1      -7.978  14.857  68.669  1.00  0.00    -0.136 NA 
HETATM   11  C   UNL     1      -9.292  12.977  67.727  1.00  0.00    -0.199 C  
HETATM   12  C   UNL     1      -8.066  16.221  68.669  1.00  0.00    -0.213 A  
HETATM   13  C   UNL     1      -9.169  16.624  67.960  1.00  0.00    -0.223 A  
HETATM   14  N   UNL     1      -9.568  17.960  67.678  1.00  0.00    -0.266 N  
HETATM   15  O   UNL     1     -10.509  18.125  66.895  1.00  0.00    -0.368 OA 
HETATM   16  O   UNL     1      -8.909  18.858  68.213  1.00  0.00    -0.310 OA 
ENDBRANCH   7   8
ENDBRANCH   6   7
ENDBRANCH   3   6
ENDBRANCH   2   3
TORSDOF 4
ENDMDL
MODEL       47
REMARK 921   NORMALIZED FREE ENERGY PREDICTED BY IDOCK:   -4.25 KCAL/MOL
REMARK 922        TOTAL FREE ENERGY PREDICTED BY IDOCK:   -5.66 KCAL/MOL
REMARK 923 INTER-LIGAND FREE ENERGY PREDICTED BY IDOCK:   -5.37 KCAL/MOL
REMARK 924 INTRA-LIGAND FREE ENERGY PREDICTED BY IDOCK:   -0.29 KCAL/MOL
REMARK 927      BINDING AFFINITY PREDICTED BY RF-SCORE:    0.00 PKD
ROOT
HETATM    1  C   UNL     1     -12.269  14.190  64.954  1.00  0.00    -0.451 C  
HETATM    2  C   UNL     1     -12.375  14.081  66.463  1.00  0.00    -0.404 C  
ENDROOT
BRANCH   2   3
HETATM    3  S   UNL     1     -10.789  13.738  67.209  1.00  0.00    -0.288 S  
HETATM    4  O   UNL     1      -9.850  13.422  66.150  1.00  0.00    -0.284 OA 
HETATM    5  O   UNL     1     -10.992  12.831  68.322  1.00  0.00    -0.230 OA 
BRANCH   3   6
HETATM    6  C   UNL     1     -10.303  15.310  67.882  1.00  0.00    -0.246 C  
BRANCH   6   7
HETATM    7  C   UNL     1      -9.398  16.029  66.896  1.00  0.00    -0.228 C  
BRANCH   7   8
HETATM    8  N   UNL     1      -9.131  17.405  67.285  1.00  0.00    -0.234 NA 
HETATM    9  C   UNL     1      -8.256  17.792  68.291  1.00  0.00    -0.285 A  
HETATM   10  N   UNL     1      -8.295  19.098  68.470  1.00  0.00    -0.354 NA 
HETATM   11  C   UNL     1      -7.388  16.872  69.076  1.00  0.00    -0.231 C  
HETATM   12  C   UNL     1      -9.190  19.585  67.558  1.00  0.00    -0.315 A  
HETATM   13  C   UNL     1      -9.697  18.562  66.800  1.00  0.00    -0.333 A  
HETATM   14  N   UNL     1     -10.603  18.669  65.709  1.00  0.00    -0.393 N  
HETATM   15  O   UNL     1     -10.830  17.650  65.048  1.00  0.00    -0.758 OA 
HETATM   16  O   UNL     1     -11.064  19.793  65.481  1.00  0.00    -0.340 OA 
ENDBRANCH   7   8
ENDBRANCH   6   7
ENDBRANCH   3   6
ENDBRANCH   2   3
TORSDOF 4
ENDMDL
MODEL       48
REMARK 921   NORMALIZED FREE ENERGY PREDICTED BY IDOCK:   -4.25 KCAL/MOL
REMARK 922        TOTAL FREE ENERGY PREDICTED BY IDOCK:   -5.66 KCAL/MOL
REMARK 923 INTER-LIGAND FREE ENERGY PREDICTED BY IDOCK:   -5.51 KCAL/MOL
REMARK 924 INTRA-LIGAND FREE ENERGY PREDICTED BY IDOCK:   -0.15 KCAL/MOL
REMARK 927      BINDING AFFINITY PREDICTED BY RF-SCORE:    0.00 PKD
ROOT
HETATM    1  C   UNL     1     -12.102  10.810  69.837  1.00  0.00    -0.410 C  
HETATM    2  C   UNL     1     -10.752  10.554  69.195  1.00  0.00    -0.231 C  
ENDROOT
BRANCH   2   3
HETATM    3  S   UNL     1     -10.222  11.943  68.205  1.00  0.00    -0.208 S  
HETATM    4  O   UNL     1      -8.782  11.869  68.056  1.00  0.00    -0.158 OA 
HETATM    5  O   UNL     1     -10.858  13.140  68.718  1.00  0.00    -0.251 OA 
BRANCH   3   6
HETATM    6  C   UNL     1     -10.928  11.604  66.610  1.00  0.00    -0.299 C  
BRANCH   6   7
HETATM    7  C   UNL     1     -10.192  12.402  65.547  1.00  0.00    -0.274 C  
BRANCH   7   8
HETATM    8  N   UNL     1     -11.014  13.458  64.974  1.00  0.00    -0.303 NA 
HETATM    9  C   UNL     1     -12.130  13.251  64.174  1.00  0.00    -0.432 A  
HETATM   10  N   UNL     1     -12.610  14.399  63.735  1.00  0.00    -0.770 NA 
HETATM   11  C   UNL     1     -12.716  11.924  63.842  1.00  0.00    -0.413 C  
HETATM   12  C   UNL     1     -11.817  15.377  64.266  1.00  0.00    -0.199 A  
HETATM   13  C   UNL     1     -10.843  14.820  65.054  1.00  0.00    -0.425 A  
HETATM   14  N   UNL     1      -9.868  15.508  65.828  1.00  0.00    -0.344 N  
HETATM   15  O   UNL     1      -9.168  14.840  66.596  1.00  0.00    -0.247 OA 
HETATM   16  O   UNL     1      -9.825  16.737  65.699  1.00  0.00    -0.544 OA 
ENDBRANCH   7   8
ENDBRANCH   6   7
ENDBRANCH   3   6
ENDBRANCH   2   3
TORSDOF 4
ENDMDL
MODEL       49
REMARK 921   NORMALIZED FREE ENERGY PREDICTED BY IDOCK:   -4.25 KCAL/MOL
REMARK 922        TOTAL FREE ENERGY PREDICTED BY IDOCK:   -5.65 KCAL/MOL
REMARK 923 INTER-LIGAND FREE ENERGY PREDICTED BY IDOCK:   -5.25 KCAL/MOL
REMARK 924 INTRA-LIGAND FREE ENERGY PREDICTED BY IDOCK:   -0.40 KCAL/MOL
REMARK 927      BINDING AFFINITY PREDICTED BY RF-SCORE:    0.00 PKD
ROOT
HETATM    1  C   UNL     1     -11.844  13.215  63.620  1.00  0.00    -0.549 C  
HETATM    2  C   UNL     1     -12.034  14.110  64.830  1.00  0.00    -0.431 C  
ENDROOT
BRANCH   2   3
HETATM    3  S   UNL     1     -10.469  14.662  65.489  1.00  0.00    -0.384 S  
HETATM    4  O   UNL     1     -10.208  15.994  64.978  1.00  0.00    -0.513 OA 
HETATM    5  O   UNL     1      -9.500  13.597  65.323  1.00  0.00     0.077 OA 
BRANCH   3   6
HETATM    6  C   UNL     1     -10.791  14.827  67.229  1.00  0.00    -0.309 C  
BRANCH   6   7
HETATM    7  C   UNL     1     -12.134  14.197  67.560  1.00  0.00    -0.328 C  
BRANCH   7   8
HETATM    8  N   UNL     1     -12.107  13.452  68.809  1.00  0.00    -0.310 NA 
HETATM    9  C   UNL     1     -12.350  13.994  70.064  1.00  0.00    -0.337 A  
HETATM   10  N   UNL     1     -12.164  13.092  71.009  1.00  0.00    -0.249 NA 
HETATM   11  C   UNL     1     -12.759  15.401  70.329  1.00  0.00    -0.338 C  
HETATM   12  C   UNL     1     -11.816  11.933  70.372  1.00  0.00    -0.239 A  
HETATM   13  C   UNL     1     -11.801  12.126  69.015  1.00  0.00    -0.306 A  
HETATM   14  N   UNL     1     -11.550  11.150  68.012  1.00  0.00    -0.288 N  
HETATM   15  O   UNL     1     -11.728  11.476  66.834  1.00  0.00    -0.533 OA 
HETATM   16  O   UNL     1     -11.208  10.028  68.404  1.00  0.00    -0.218 OA 
ENDBRANCH   7   8
ENDBRANCH   6   7
ENDBRANCH   3   6
ENDBRANCH   2   3
TORSDOF 4
ENDMDL
MODEL       50
REMARK 921   NORMALIZED FREE ENERGY PREDICTED BY IDOCK:   -4.24 KCAL/MOL
REMARK 922        TOTAL FREE ENERGY PREDICTED BY IDOCK:   -5.65 KCAL/MOL
REMARK 923 INTER-LIGAND FREE ENERGY PREDICTED BY IDOCK:   -5.25 KCAL/MOL
REMARK 924 INTRA-LIGAND FREE ENERGY PREDICTED BY IDOCK:   -0.40 KCAL/MOL
REMARK 927      BINDING AFFINITY PREDICTED BY RF-SCORE:    0.00 PKD
ROOT
HETATM    1  C   UNL     1      -7.777  17.453  66.951  1.00  0.00    -0.249 C  
HETATM    2  C   UNL     1      -8.262  18.827  67.375  1.00  0.00    -0.263 C  
ENDROOT
BRANCH   2   3
HETATM    3  S   UNL     1      -9.901  18.755  68.081  1.00  0.00    -0.373 S  
HETATM    4  O   UNL     1     -10.863  18.858  67.002  1.00  0.00    -0.427 OA 
HETATM    5  O   UNL     1      -9.952  19.657  69.215  1.00  0.00    -0.436 OA 
BRANCH   3   6
HETATM    6  C   UNL     1     -10.004  17.096  68.712  1.00  0.00    -0.315 C  
BRANCH   6   7
HETATM    7  C   UNL     1     -11.403  16.550  68.484  1.00  0.00    -0.231 C  
BRANCH   7   8
HETATM    8  N   UNL     1     -11.396  15.162  68.047  1.00  0.00    -0.326 NA 
HETATM    9  C   UNL     1     -11.165  14.740  66.745  1.00  0.00    -0.344 A  
HETATM   10  N   UNL     1     -11.312  13.433  66.643  1.00  0.00    -0.313 NA 
HETATM   11  C   UNL     1     -10.804  15.627  65.604  1.00  0.00    -0.336 C  
HETATM   12  C   UNL     1     -11.623  12.981  67.895  1.00  0.00    -0.342 A  
HETATM   13  C   UNL     1     -11.654  14.028  68.780  1.00  0.00    -0.331 A  
HETATM   14  N   UNL     1     -11.877  13.958  70.184  1.00  0.00    -0.301 N  
HETATM   15  O   UNL     1     -11.718  14.991  70.842  1.00  0.00    -0.288 OA 
HETATM   16  O   UNL     1     -12.176  12.850  70.642  1.00  0.00    -0.372 OA 
ENDBRANCH   7   8
ENDBRANCH   6   7
ENDBRANCH   3   6
ENDBRANCH   2   3
TORSDOF 4
ENDMDL
MODEL       51
REMARK 921   NORMALIZED FREE ENERGY PREDICTED BY IDOCK:   -4.23 KCAL/MOL
REMARK 922        TOTAL FREE ENERGY PREDICTED BY IDOCK:   -5.64 KCAL/MOL
REMARK 923 INTER-LIGAND FREE ENERGY PREDICTED BY IDOCK:   -5.35 KCAL/MOL
REMARK 924 INTRA-LIGAND FREE ENERGY PREDICTED BY IDOCK:   -0.29 KCAL/MOL
REMARK 927      BINDING AFFINITY PREDICTED BY RF-SCORE:    0.00 PKD
ROOT
HETATM    1  C   UNL     1      -8.120  19.380  68.774  1.00  0.00    -0.388 C  
HETATM    2  C   UNL     1      -8.492  17.962  68.386  1.00  0.00    -0.297 C  
ENDROOT
BRANCH   2   3
HETATM    3  S   UNL     1      -9.795  17.937  67.164  1.00  0.00    -0.323 S  
HETATM    4  O   UNL     1      -9.182  17.888  65.851  1.00  0.00    -0.519 OA 
HETATM    5  O   UNL     1     -10.758  18.967  67.500  1.00  0.00    -0.450 OA 
BRANCH   3   6
HETATM    6  C   UNL     1     -10.578  16.364  67.431  1.00  0.00    -0.306 C  
BRANCH   6   7
HETATM    7  C   UNL     1      -9.925  15.313  66.548  1.00  0.00    -0.265 C  
BRANCH   7   8
HETATM    8  N   UNL     1     -10.736  14.113  66.417  1.00  0.00    -0.286 NA 
HETATM    9  C   UNL     1     -11.765  13.945  65.499  1.00  0.00    -0.349 A  
HETATM   10  N   UNL     1     -12.372  12.788  65.682  1.00  0.00    -0.594 NA 
HETATM   11  C   UNL     1     -12.149  14.927  64.448  1.00  0.00    -0.417 C  
HETATM   12  C   UNL     1     -11.726  12.173  66.718  1.00  0.00    -0.305 A  
HETATM   13  C   UNL     1     -10.698  12.961  67.168  1.00  0.00    -0.253 A  
HETATM   14  N   UNL     1      -9.756  12.645  68.186  1.00  0.00    -0.216 N  
HETATM   15  O   UNL     1      -8.806  13.418  68.350  1.00  0.00    -0.178 OA 
HETATM   16  O   UNL     1      -9.943  11.591  68.804  1.00  0.00    -0.205 OA 
ENDBRANCH   7   8
ENDBRANCH   6   7
ENDBRANCH   3   6
ENDBRANCH   2   3
TORSDOF 4
ENDMDL
MODEL       52
REMARK 921   NORMALIZED FREE ENERGY PREDICTED BY IDOCK:   -4.22 KCAL/MOL
REMARK 922        TOTAL FREE ENERGY PREDICTED BY IDOCK:   -5.62 KCAL/MOL
REMARK 923 INTER-LIGAND FREE ENERGY PREDICTED BY IDOCK:   -5.33 KCAL/MOL
REMARK 924 INTRA-LIGAND FREE ENERGY PREDICTED BY IDOCK:   -0.29 KCAL/MOL
REMARK 927      BINDING AFFINITY PREDICTED BY RF-SCORE:    0.00 PKD
ROOT
HETATM    1  C   UNL     1     -10.294   8.451  66.771  1.00  0.00    -0.357 C  
HETATM    2  C   UNL     1      -9.550   9.773  66.780  1.00  0.00    -0.177 C  
ENDROOT
BRANCH   2   3
HETATM    3  S   UNL     1     -10.349  10.968  67.839  1.00  0.00    -0.195 S  
HETATM    4  O   UNL     1      -9.942  10.704  69.206  1.00  0.00    -0.218 OA 
HETATM    5  O   UNL     1     -11.751  11.036  67.478  1.00  0.00    -0.565 OA 
BRANCH   3   6
HETATM    6  C   UNL     1      -9.598  12.507  67.362  1.00  0.00    -0.192 C  
BRANCH   6   7
HETATM    7  C   UNL     1      -9.496  12.576  65.847  1.00  0.00    -0.107 C  
BRANCH   7   8
HETATM    8  N   UNL     1     -10.449  13.510  65.267  1.00  0.00    -0.320 NA 
HETATM    9  C   UNL     1     -10.423  14.886  65.446  1.00  0.00    -0.384 A  
HETATM   10  N   UNL     1     -11.466  15.454  64.871  1.00  0.00    -0.346 NA 
HETATM   11  C   UNL     1      -9.373  15.637  66.188  1.00  0.00    -0.382 C  
HETATM   12  C   UNL     1     -12.179  14.445  64.286  1.00  0.00    -0.423 A  
HETATM   13  C   UNL     1     -11.556  13.242  64.495  1.00  0.00    -0.369 A  
HETATM   14  N   UNL     1     -11.951  11.971  63.992  1.00  0.00    -0.405 N  
HETATM   15  O   UNL     1     -11.179  11.022  64.160  1.00  0.00    -0.156 OA 
HETATM   16  O   UNL     1     -13.027  11.927  63.386  1.00  0.00    -0.730 OA 
ENDBRANCH   7   8
ENDBRANCH   6   7
ENDBRANCH   3   6
ENDBRANCH   2   3
TORSDOF 4
ENDMDL
MODEL       53
REMARK 921   NORMALIZED FREE ENERGY PREDICTED BY IDOCK:   -4.21 KCAL/MOL
REMARK 922        TOTAL FREE ENERGY PREDICTED BY IDOCK:   -5.61 KCAL/MOL
REMARK 923 INTER-LIGAND FREE ENERGY PREDICTED BY IDOCK:   -5.39 KCAL/MOL
REMARK 924 INTRA-LIGAND FREE ENERGY PREDICTED BY IDOCK:   -0.21 KCAL/MOL
REMARK 927      BINDING AFFINITY PREDICTED BY RF-SCORE:    0.00 PKD
ROOT
HETATM    1  C   UNL     1     -12.429  12.089  63.321  1.00  0.00    -0.544 C  
HETATM    2  C   UNL     1     -11.153  12.800  63.729  1.00  0.00    -0.427 C  
ENDROOT
BRANCH   2   3
HETATM    3  S   UNL     1     -11.444  13.963  65.053  1.00  0.00    -0.357 S  
HETATM    4  O   UNL     1     -12.877  14.103  65.225  1.00  0.00    -0.670 OA 
HETATM    5  O   UNL     1     -10.602  15.123  64.838  1.00  0.00    -0.411 OA 
BRANCH   3   6
HETATM    6  C   UNL     1     -10.829  13.114  66.489  1.00  0.00    -0.280 C  
BRANCH   6   7
HETATM    7  C   UNL     1     -11.878  12.136  66.991  1.00  0.00    -0.216 C  
BRANCH   7   8
HETATM    8  N   UNL     1     -11.294  11.011  67.705  1.00  0.00    -0.434 NA 
HETATM    9  C   UNL     1     -10.551   9.995  67.117  1.00  0.00    -0.232 A  
HETATM   10  N   UNL     1     -10.235   9.072  68.005  1.00  0.00    -0.202 NA 
HETATM   11  C   UNL     1     -10.160   9.936  65.682  1.00  0.00    -0.307 C  
HETATM   12  C   UNL     1     -10.756   9.490  69.198  1.00  0.00    -0.210 A  
HETATM   13  C   UNL     1     -11.389  10.696  69.040  1.00  0.00    -0.277 A  
HETATM   14  N   UNL     1     -11.999  11.485  70.055  1.00  0.00    -0.339 N  
HETATM   15  O   UNL     1     -12.388  12.616  69.748  1.00  0.00    -0.165 OA 
HETATM   16  O   UNL     1     -12.054  10.986  71.185  1.00  0.00    -0.321 OA 
ENDBRANCH   7   8
ENDBRANCH   6   7
ENDBRANCH   3   6
ENDBRANCH   2   3
TORSDOF 4
ENDMDL
MODEL       54
REMARK 921   NORMALIZED FREE ENERGY PREDICTED BY IDOCK:   -4.17 KCAL/MOL
REMARK 922        TOTAL FREE ENERGY PREDICTED BY IDOCK:   -5.56 KCAL/MOL
REMARK 923 INTER-LIGAND FREE ENERGY PREDICTED BY IDOCK:   -5.37 KCAL/MOL
REMARK 924 INTRA-LIGAND FREE ENERGY PREDICTED BY IDOCK:   -0.19 KCAL/MOL
REMARK 927      BINDING AFFINITY PREDICTED BY RF-SCORE:    0.00 PKD
ROOT
HETATM    1  C   UNL     1     -10.117   6.086  71.101  1.00  0.00    -0.241 C  
HETATM    2  C   UNL     1     -10.419   7.363  70.340  1.00  0.00    -0.221 C  
ENDROOT
BRANCH   2   3
HETATM    3  S   UNL     1     -10.543   8.767  71.437  1.00  0.00    -0.308 S  
HETATM    4  O   UNL     1      -9.320   8.844  72.212  1.00  0.00    -0.360 OA 
HETATM    5  O   UNL     1     -11.838   8.728  72.087  1.00  0.00    -0.355 OA 
BRANCH   3   6
HETATM    6  C   UNL     1     -10.543  10.156  70.327  1.00  0.00    -0.264 C  
BRANCH   6   7
HETATM    7  C   UNL     1     -11.974  10.575  70.036  1.00  0.00    -0.288 C  
BRANCH   7   8
HETATM    8  N   UNL     1     -12.118  12.018  69.913  1.00  0.00    -0.290 NA 
HETATM    9  C   UNL     1     -11.691  12.771  68.828  1.00  0.00    -0.323 A  
HETATM   10  N   UNL     1     -11.878  14.058  69.048  1.00  0.00    -0.334 NA 
HETATM   11  C   UNL     1     -11.094  12.219  67.581  1.00  0.00    -0.318 C  
HETATM   12  C   UNL     1     -12.456  14.158  70.282  1.00  0.00    -0.353 A  
HETATM   13  C   UNL     1     -12.637  12.911  70.822  1.00  0.00    -0.232 A  
HETATM   14  N   UNL     1     -13.263  12.593  72.059  1.00  0.00    -0.460 N  
HETATM   15  O   UNL     1     -13.471  11.402  72.309  1.00  0.00    -0.351 OA 
HETATM   16  O   UNL     1     -13.589  13.547  72.775  1.00  0.00    -0.672 OA 
ENDBRANCH   7   8
ENDBRANCH   6   7
ENDBRANCH   3   6
ENDBRANCH   2   3
TORSDOF 4
ENDMDL
MODEL       55
REMARK 921   NORMALIZED FREE ENERGY PREDICTED BY IDOCK:   -4.16 KCAL/MOL
REMARK 922        TOTAL FREE ENERGY PREDICTED BY IDOCK:   -5.54 KCAL/MOL
REMARK 923 INTER-LIGAND FREE ENERGY PREDICTED BY IDOCK:   -5.27 KCAL/MOL
REMARK 924 INTRA-LIGAND FREE ENERGY PREDICTED BY IDOCK:   -0.27 KCAL/MOL
REMARK 927      BINDING AFFINITY PREDICTED BY RF-SCORE:    0.00 PKD
ROOT
HETATM    1  C   UNL     1     -10.512  16.900  66.666  1.00  0.00    -0.257 C  
HETATM    2  C   UNL     1     -10.846  15.421  66.635  1.00  0.00    -0.302 C  
ENDROOT
BRANCH   2   3
HETATM    3  S   UNL     1     -11.614  14.953  65.092  1.00  0.00    -0.296 S  
HETATM    4  O   UNL     1     -11.354  16.000  64.123  1.00  0.00    -0.522 OA 
HETATM    5  O   UNL     1     -12.966  14.511  65.368  1.00  0.00    -0.470 OA 
BRANCH   3   6
HETATM    6  C   UNL     1     -10.679  13.530  64.583  1.00  0.00    -0.416 C  
BRANCH   6   7
HETATM    7  C   UNL     1     -11.514  12.275  64.777  1.00  0.00    -0.329 C  
BRANCH   7   8
HETATM    8  N   UNL     1     -10.742  11.171  65.327  1.00  0.00    -0.241 NA 
HETATM    9  C   UNL     1      -9.846  10.392  64.608  1.00  0.00    -0.338 A  
HETATM   10  N   UNL     1      -9.370   9.415  65.356  1.00  0.00    -0.247 NA 
HETATM   11  C   UNL     1      -9.466  10.609  63.185  1.00  0.00    -0.360 C  
HETATM   12  C   UNL     1      -9.940   9.561  66.590  1.00  0.00    -0.247 A  
HETATM   13  C   UNL     1     -10.769  10.653  66.601  1.00  0.00    -0.181 A  
HETATM   14  N   UNL     1     -11.491  11.172  67.711  1.00  0.00    -0.294 N  
HETATM   15  O   UNL     1     -12.067  12.254  67.567  1.00  0.00    -0.514 OA 
HETATM   16  O   UNL     1     -11.450  10.511  68.755  1.00  0.00    -0.260 OA 
ENDBRANCH   7   8
ENDBRANCH   6   7
ENDBRANCH   3   6
ENDBRANCH   2   3
TORSDOF 4
ENDMDL
MODEL       56
REMARK 921   NORMALIZED FREE ENERGY PREDICTED BY IDOCK:   -4.15 KCAL/MOL
REMARK 922        TOTAL FREE ENERGY PREDICTED BY IDOCK:   -5.53 KCAL/MOL
REMARK 923 INTER-LIGAND FREE ENERGY PREDICTED BY IDOCK:   -5.23 KCAL/MOL
REMARK 924 INTRA-LIGAND FREE ENERGY PREDICTED BY IDOCK:   -0.31 KCAL/MOL
REMARK 927      BINDING AFFINITY PREDICTED BY RF-SCORE:    0.00 PKD
ROOT
HETATM    1  C   UNL     1      -9.515  11.734  66.090  1.00  0.00    -0.240 C  
HETATM    2  C   UNL     1     -10.480  12.803  65.614  1.00  0.00    -0.278 C  
ENDROOT
BRANCH   2   3
HETATM    3  S   UNL     1     -11.364  13.543  66.978  1.00  0.00    -0.339 S  
HETATM    4  O   UNL     1     -12.553  14.185  66.450  1.00  0.00    -0.427 OA 
HETATM    5  O   UNL     1     -10.418  14.279  67.793  1.00  0.00    -0.242 OA 
BRANCH   3   6
HETATM    6  C   UNL     1     -11.908  12.140  67.924  1.00  0.00    -0.269 C  
BRANCH   6   7
HETATM    7  C   UNL     1     -11.095  12.043  69.205  1.00  0.00    -0.215 C  
BRANCH   7   8
HETATM    8  N   UNL     1     -11.759  11.250  70.228  1.00  0.00    -0.331 NA 
HETATM    9  C   UNL     1     -11.642   9.874  70.368  1.00  0.00    -0.282 A  
HETATM   10  N   UNL     1     -12.431   9.432  71.328  1.00  0.00    -0.327 NA 
HETATM   11  C   UNL     1     -10.755   8.999  69.552  1.00  0.00    -0.215 C  
HETATM   12  C   UNL     1     -13.063  10.528  71.844  1.00  0.00    -0.462 A  
HETATM   13  C   UNL     1     -12.643  11.663  71.198  1.00  0.00    -0.335 A  
HETATM   14  N   UNL     1     -13.019  13.004  71.487  1.00  0.00    -0.352 N  
HETATM   15  O   UNL     1     -12.420  13.908  70.896  1.00  0.00    -0.335 OA 
HETATM   16  O   UNL     1     -13.894  13.160  72.345  1.00  0.00    -0.577 OA 
ENDBRANCH   7   8
ENDBRANCH   6   7
ENDBRANCH   3   6
ENDBRANCH   2   3
TORSDOF 4
ENDMDL
MODEL       57
REMARK 921   NORMALIZED FREE ENERGY PREDICTED BY IDOCK:   -4.13 KCAL/MOL
REMARK 922        TOTAL FREE ENERGY PREDICTED BY IDOCK:   -5.50 KCAL/MOL
REMARK 923 INTER-LIGAND FREE ENERGY PREDICTED BY IDOCK:   -5.34 KCAL/MOL
REMARK 924 INTRA-LIGAND FREE ENERGY PREDICTED BY IDOCK:   -0.16 KCAL/MOL
REMARK 927      BINDING AFFINITY PREDICTED BY RF-SCORE:    0.00 PKD
ROOT
HETATM    1  C   UNL     1     -10.652  10.170  68.865  1.00  0.00    -0.237 C  
HETATM    2  C   UNL     1     -10.132  11.499  68.354  1.00  0.00    -0.204 C  
ENDROOT
BRANCH   2   3
HETATM    3  S   UNL     1     -10.563  11.756  66.639  1.00  0.00    -0.251 S  
HETATM    4  O   UNL     1     -12.004  11.648  66.515  1.00  0.00    -0.474 OA 
HETATM    5  O   UNL     1      -9.681  10.951  65.819  1.00  0.00    -0.203 OA 
BRANCH   3   6
HETATM    6  C   UNL     1     -10.144  13.462  66.362  1.00  0.00    -0.292 C  
BRANCH   6   7
HETATM    7  C   UNL     1     -11.361  14.334  66.622  1.00  0.00    -0.349 C  
BRANCH   7   8
HETATM    8  N   UNL     1     -11.074  15.436  67.527  1.00  0.00    -0.320 NA 
HETATM    9  C   UNL     1     -11.231  15.394  68.906  1.00  0.00    -0.292 A  
HETATM   10  N   UNL     1     -10.977  16.572  69.443  1.00  0.00    -0.309 NA 
HETATM   11  C   UNL     1     -11.636  14.194  69.689  1.00  0.00    -0.349 C  
HETATM   12  C   UNL     1     -10.628  17.398  68.412  1.00  0.00    -0.355 A  
HETATM   13  C   UNL     1     -10.655  16.711  67.226  1.00  0.00    -0.281 A  
HETATM   14  N   UNL     1     -10.295  17.202  65.940  1.00  0.00    -0.332 N  
HETATM   15  O   UNL     1     -10.239  16.391  65.010  1.00  0.00    -0.566 OA 
HETATM   16  O   UNL     1     -10.024  18.406  65.864  1.00  0.00    -0.526 OA 
ENDBRANCH   7   8
ENDBRANCH   6   7
ENDBRANCH   3   6
ENDBRANCH   2   3
TORSDOF 4
ENDMDL
MODEL       58
REMARK 921   NORMALIZED FREE ENERGY PREDICTED BY IDOCK:   -4.12 KCAL/MOL
REMARK 922        TOTAL FREE ENERGY PREDICTED BY IDOCK:   -5.49 KCAL/MOL
REMARK 923 INTER-LIGAND FREE ENERGY PREDICTED BY IDOCK:   -5.11 KCAL/MOL
REMARK 924 INTRA-LIGAND FREE ENERGY PREDICTED BY IDOCK:   -0.38 KCAL/MOL
REMARK 927      BINDING AFFINITY PREDICTED BY RF-SCORE:    0.00 PKD
ROOT
HETATM    1  C   UNL     1      -9.562  10.679  66.053  1.00  0.00    -0.244 C  
HETATM    2  C   UNL     1     -10.532   9.968  66.976  1.00  0.00    -0.238 C  
ENDROOT
BRANCH   2   3
HETATM    3  S   UNL     1     -10.876  10.935  68.438  1.00  0.00    -0.244 S  
HETATM    4  O   UNL     1     -10.020  10.458  69.507  1.00  0.00    -0.227 OA 
HETATM    5  O   UNL     1     -12.313  11.011  68.610  1.00  0.00    -0.539 OA 
BRANCH   3   6
HETATM    6  C   UNL     1     -10.303  12.559  68.000  1.00  0.00    -0.222 C  
BRANCH   6   7
HETATM    7  C   UNL     1     -11.481  13.415  67.564  1.00  0.00    -0.323 C  
BRANCH   7   8
HETATM    8  N   UNL     1     -11.225  14.838  67.723  1.00  0.00    -0.300 NA 
HETATM    9  C   UNL     1     -10.669  15.660  66.752  1.00  0.00    -0.300 A  
HETATM   10  N   UNL     1     -10.478  16.878  67.221  1.00  0.00    -0.315 NA 
HETATM   11  C   UNL     1     -10.324  15.241  65.366  1.00  0.00    -0.421 C  
HETATM   12  C   UNL     1     -10.932  16.869  68.511  1.00  0.00    -0.290 A  
HETATM   13  C   UNL     1     -11.421  15.629  68.831  1.00  0.00    -0.361 A  
HETATM   14  N   UNL     1     -12.037  15.239  70.053  1.00  0.00    -0.334 N  
HETATM   15  O   UNL     1     -12.553  14.118  70.103  1.00  0.00    -0.345 OA 
HETATM   16  O   UNL     1     -12.042  16.076  70.962  1.00  0.00    -0.408 OA 
ENDBRANCH   7   8
ENDBRANCH   6   7
ENDBRANCH   3   6
ENDBRANCH   2   3
TORSDOF 4
ENDMDL
MODEL       59
REMARK 921   NORMALIZED FREE ENERGY PREDICTED BY IDOCK:   -4.11 KCAL/MOL
REMARK 922        TOTAL FREE ENERGY PREDICTED BY IDOCK:   -5.49 KCAL/MOL
REMARK 923 INTER-LIGAND FREE ENERGY PREDICTED BY IDOCK:   -5.19 KCAL/MOL
REMARK 924 INTRA-LIGAND FREE ENERGY PREDICTED BY IDOCK:   -0.29 KCAL/MOL
REMARK 927      BINDING AFFINITY PREDICTED BY RF-SCORE:    0.00 PKD
ROOT
HETATM    1  C   UNL     1      -6.045  18.057  66.375  1.00  0.00    -0.223 C  
HETATM    2  C   UNL     1      -7.321  18.875  66.300  1.00  0.00    -0.254 C  
ENDROOT
BRANCH   2   3
HETATM    3  S   UNL     1      -8.427  18.490  67.648  1.00  0.00    -0.266 S  
HETATM    4  O   UNL     1      -9.530  19.431  67.610  1.00  0.00    -0.299 OA 
HETATM    5  O   UNL     1      -7.639  18.313  68.852  1.00  0.00    -0.285 OA 
BRANCH   3   6
HETATM    6  C   UNL     1      -9.084  16.901  67.200  1.00  0.00    -0.217 C  
BRANCH   6   7
HETATM    7  C   UNL     1     -10.601  16.971  67.154  1.00  0.00    -0.245 C  
BRANCH   7   8
HETATM    8  N   UNL     1     -11.222  15.657  67.216  1.00  0.00    -0.244 NA 
HETATM    9  C   UNL     1     -11.569  14.995  68.386  1.00  0.00    -0.331 A  
HETATM   10  N   UNL     1     -12.029  13.787  68.123  1.00  0.00    -0.374 NA 
HETATM   11  C   UNL     1     -11.442  15.554  69.760  1.00  0.00    -0.339 C  
HETATM   12  C   UNL     1     -12.006  13.654  66.763  1.00  0.00    -0.414 A  
HETATM   13  C   UNL     1     -11.538  14.804  66.183  1.00  0.00    -0.292 A  
HETATM   14  N   UNL     1     -11.426  15.081  64.792  1.00  0.00    -0.412 N  
HETATM   15  O   UNL     1     -11.124  16.231  64.458  1.00  0.00    -0.672 OA 
HETATM   16  O   UNL     1     -11.682  14.150  64.021  1.00  0.00    -0.328 OA 
ENDBRANCH   7   8
ENDBRANCH   6   7
ENDBRANCH   3   6
ENDBRANCH   2   3
TORSDOF 4
ENDMDL
MODEL       60
REMARK 921   NORMALIZED FREE ENERGY PREDICTED BY IDOCK:   -4.09 KCAL/MOL
REMARK 922        TOTAL FREE ENERGY PREDICTED BY IDOCK:   -5.46 KCAL/MOL
REMARK 923 INTER-LIGAND FREE ENERGY PREDICTED BY IDOCK:   -5.19 KCAL/MOL
REMARK 924 INTRA-LIGAND FREE ENERGY PREDICTED BY IDOCK:   -0.27 KCAL/MOL
REMARK 927      BINDING AFFINITY PREDICTED BY RF-SCORE:    0.00 PKD
ROOT
HETATM    1  C   UNL     1      -8.494   9.055  64.671  1.00  0.00    -0.194 C  
HETATM    2  C   UNL     1      -8.926  10.480  64.959  1.00  0.00    -0.201 C  
ENDROOT
BRANCH   2   3
HETATM    3  S   UNL     1      -9.558  10.651  66.621  1.00  0.00    -0.180 S  
HETATM    4  O   UNL     1      -8.431  10.669  67.534  1.00  0.00    -0.121 OA 
HETATM    5  O   UNL     1     -10.646   9.708  66.797  1.00  0.00    -0.209 OA 
BRANCH   3   6
HETATM    6  C   UNL     1     -10.259  12.284  66.628  1.00  0.00    -0.216 C  
BRANCH   6   7
HETATM    7  C   UNL     1      -9.838  13.024  65.369  1.00  0.00    -0.112 C  
BRANCH   7   8
HETATM    8  N   UNL     1     -10.829  13.999  64.938  1.00  0.00    -0.387 NA 
HETATM    9  C   UNL     1     -12.004  13.695  64.264  1.00  0.00    -0.445 A  
HETATM   10  N   UNL     1     -12.651  14.795  63.930  1.00  0.00    -0.772 NA 
HETATM   11  C   UNL     1     -12.482  12.321  63.948  1.00  0.00    -0.586 C  
HETATM   12  C   UNL     1     -11.908  15.839  64.406  1.00  0.00    -0.148 A  
HETATM   13  C   UNL     1     -10.794  15.369  65.054  1.00  0.00    -0.444 A  
HETATM   14  N   UNL     1      -9.811  16.137  65.738  1.00  0.00    -0.338 N  
HETATM   15  O   UNL     1      -8.959  15.528  66.392  1.00  0.00    -0.278 OA 
HETATM   16  O   UNL     1      -9.914  17.366  65.655  1.00  0.00    -0.559 OA 
ENDBRANCH   7   8
ENDBRANCH   6   7
ENDBRANCH   3   6
ENDBRANCH   2   3
TORSDOF 4
ENDMDL
MODEL       61
REMARK 921   NORMALIZED FREE ENERGY PREDICTED BY IDOCK:   -4.06 KCAL/MOL
REMARK 922        TOTAL FREE ENERGY PREDICTED BY IDOCK:   -5.43 KCAL/MOL
REMARK 923 INTER-LIGAND FREE ENERGY PREDICTED BY IDOCK:   -5.44 KCAL/MOL
REMARK 924 INTRA-LIGAND FREE ENERGY PREDICTED BY IDOCK:    0.02 KCAL/MOL
REMARK 927      BINDING AFFINITY PREDICTED BY RF-SCORE:    0.00 PKD
ROOT
HETATM    1  C   UNL     1     -11.712  13.087  67.998  1.00  0.00    -0.397 C  
HETATM    2  C   UNL     1     -10.557  13.772  68.705  1.00  0.00    -0.253 C  
ENDROOT
BRANCH   2   3
HETATM    3  S   UNL     1     -11.029  15.378  69.328  1.00  0.00    -0.283 S  
HETATM    4  O   UNL     1     -11.203  15.272  70.764  1.00  0.00    -0.294 OA 
HETATM    5  O   UNL     1     -12.085  15.904  68.486  1.00  0.00    -0.208 OA 
BRANCH   3   6
HETATM    6  C   UNL     1      -9.579  16.368  69.051  1.00  0.00    -0.264 C  
BRANCH   6   7
HETATM    7  C   UNL     1      -9.214  16.335  67.576  1.00  0.00    -0.205 C  
BRANCH   7   8
HETATM    8  N   UNL     1      -9.695  17.504  66.857  1.00  0.00    -0.279 NA 
HETATM    9  C   UNL     1      -9.496  18.820  67.254  1.00  0.00    -0.301 A  
HETATM   10  N   UNL     1     -10.126  19.652  66.448  1.00  0.00    -0.430 NA 
HETATM   11  C   UNL     1      -8.691  19.251  68.429  1.00  0.00    -0.395 C  
HETATM   12  C   UNL     1     -10.731  18.883  65.494  1.00  0.00    -0.001 A  
HETATM   13  C   UNL     1     -10.456  17.557  65.712  1.00  0.00    -0.207 A  
HETATM   14  N   UNL     1     -10.849  16.454  64.904  1.00  0.00    -0.347 N  
HETATM   15  O   UNL     1     -10.378  15.346  65.177  1.00  0.00    -0.382 OA 
HETATM   16  O   UNL     1     -11.605  16.703  63.958  1.00  0.00    -1.197 OA 
ENDBRANCH   7   8
ENDBRANCH   6   7
ENDBRANCH   3   6
ENDBRANCH   2   3
TORSDOF 4
ENDMDL
MODEL       62
REMARK 921   NORMALIZED FREE ENERGY PREDICTED BY IDOCK:   -4.04 KCAL/MOL
REMARK 922        TOTAL FREE ENERGY PREDICTED BY IDOCK:   -5.40 KCAL/MOL
REMARK 923 INTER-LIGAND FREE ENERGY PREDICTED BY IDOCK:   -5.06 KCAL/MOL
REMARK 924 INTRA-LIGAND FREE ENERGY PREDICTED BY IDOCK:   -0.34 KCAL/MOL
REMARK 927      BINDING AFFINITY PREDICTED BY RF-SCORE:    0.00 PKD
ROOT
HETATM    1  C   UNL     1      -9.046  12.092  67.255  1.00  0.00    -0.181 C  
HETATM    2  C   UNL     1      -9.695  12.950  68.325  1.00  0.00    -0.217 C  
ENDROOT
BRANCH   2   3
HETATM    3  S   UNL     1     -11.472  12.767  68.323  1.00  0.00    -0.338 S  
HETATM    4  O   UNL     1     -11.942  12.934  66.962  1.00  0.00    -0.381 OA 
HETATM    5  O   UNL     1     -12.016  13.566  69.404  1.00  0.00    -0.311 OA 
BRANCH   3   6
HETATM    6  C   UNL     1     -11.709  11.058  68.750  1.00  0.00    -0.314 C  
BRANCH   6   7
HETATM    7  C   UNL     1     -11.208  10.811  70.163  1.00  0.00    -0.267 C  
BRANCH   7   8
HETATM    8  N   UNL     1     -11.391   9.432  70.586  1.00  0.00    -0.276 NA 
HETATM    9  C   UNL     1     -10.567   8.373  70.228  1.00  0.00    -0.227 A  
HETATM   10  N   UNL     1     -11.041   7.233  70.692  1.00  0.00    -0.257 NA 
HETATM   11  C   UNL     1      -9.319   8.489  69.426  1.00  0.00    -0.154 C  
HETATM   12  C   UNL     1     -12.179   7.540  71.383  1.00  0.00    -0.335 A  
HETATM   13  C   UNL     1     -12.399   8.893  71.353  1.00  0.00    -0.313 A  
HETATM   14  N   UNL     1     -13.441   9.609  72.006  1.00  0.00    -0.427 N  
HETATM   15  O   UNL     1     -13.389  10.843  71.988  1.00  0.00    -0.448 OA 
HETATM   16  O   UNL     1     -14.301   8.932  72.580  1.00  0.00    -0.613 OA 
ENDBRANCH   7   8
ENDBRANCH   6   7
ENDBRANCH   3   6
ENDBRANCH   2   3
TORSDOF 4
ENDMDL
MODEL       63
REMARK 921   NORMALIZED FREE ENERGY PREDICTED BY IDOCK:   -4.03 KCAL/MOL
REMARK 922        TOTAL FREE ENERGY PREDICTED BY IDOCK:   -5.39 KCAL/MOL
REMARK 923 INTER-LIGAND FREE ENERGY PREDICTED BY IDOCK:   -5.00 KCAL/MOL
REMARK 924 INTRA-LIGAND FREE ENERGY PREDICTED BY IDOCK:   -0.39 KCAL/MOL
REMARK 927      BINDING AFFINITY PREDICTED BY RF-SCORE:    0.00 PKD
ROOT
HETATM    1  C   UNL     1      -8.307  16.873  68.168  1.00  0.00    -0.212 C  
HETATM    2  C   UNL     1      -9.142  15.813  68.860  1.00  0.00    -0.225 C  
ENDROOT
BRANCH   2   3
HETATM    3  S   UNL     1     -10.852  15.886  68.349  1.00  0.00    -0.333 S  
HETATM    4  O   UNL     1     -10.975  16.911  67.331  1.00  0.00    -0.221 OA 
HETATM    5  O   UNL     1     -11.685  15.909  69.536  1.00  0.00    -0.342 OA 
BRANCH   3   6
HETATM    6  C   UNL     1     -11.108  14.322  67.546  1.00  0.00    -0.298 C  
BRANCH   6   7
HETATM    7  C   UNL     1     -10.289  14.266  66.267  1.00  0.00    -0.294 C  
BRANCH   7   8
HETATM    8  N   UNL     1     -10.978  13.565  65.194  1.00  0.00    -0.308 NA 
HETATM    9  C   UNL     1     -11.907  14.140  64.337  1.00  0.00    -0.428 A  
HETATM   10  N   UNL     1     -12.423  13.234  63.530  1.00  0.00    -0.756 NA 
HETATM   11  C   UNL     1     -12.286  15.580  64.320  1.00  0.00    -0.078 C  
HETATM   12  C   UNL     1     -11.815  12.049  63.840  1.00  0.00    -0.448 A  
HETATM   13  C   UNL     1     -10.901  12.237  64.845  1.00  0.00    -0.302 A  
HETATM   14  N   UNL     1     -10.024  11.264  65.400  1.00  0.00    -0.237 N  
HETATM   15  O   UNL     1      -9.163  11.654  66.196  1.00  0.00    -0.215 OA 
HETATM   16  O   UNL     1     -10.169  10.101  65.008  1.00  0.00    -0.309 OA 
ENDBRANCH   7   8
ENDBRANCH   6   7
ENDBRANCH   3   6
ENDBRANCH   2   3
TORSDOF 4
ENDMDL
MODEL       64
REMARK 921   NORMALIZED FREE ENERGY PREDICTED BY IDOCK:   -3.98 KCAL/MOL
REMARK 922        TOTAL FREE ENERGY PREDICTED BY IDOCK:   -5.33 KCAL/MOL
REMARK 923 INTER-LIGAND FREE ENERGY PREDICTED BY IDOCK:   -5.10 KCAL/MOL
REMARK 924 INTRA-LIGAND FREE ENERGY PREDICTED BY IDOCK:   -0.23 KCAL/MOL
REMARK 927      BINDING AFFINITY PREDICTED BY RF-SCORE:    0.00 PKD
ROOT
HETATM    1  C   UNL     1     -11.640  12.611  64.365  1.00  0.00    -0.415 C  
HETATM    2  C   UNL     1     -11.863  12.780  65.856  1.00  0.00    -0.437 C  
ENDROOT
BRANCH   2   3
HETATM    3  S   UNL     1     -10.604  11.942  66.806  1.00  0.00    -0.238 S  
HETATM    4  O   UNL     1      -9.821  12.945  67.503  1.00  0.00    -0.202 OA 
HETATM    5  O   UNL     1      -9.966  10.957  65.955  1.00  0.00    -0.221 OA 
BRANCH   3   6
HETATM    6  C   UNL     1     -11.536  11.063  68.038  1.00  0.00    -0.249 C  
BRANCH   6   7
HETATM    7  C   UNL     1     -10.954  11.342  69.414  1.00  0.00    -0.228 C  
BRANCH   7   8
HETATM    8  N   UNL     1     -11.952  11.829  70.353  1.00  0.00    -0.356 NA 
HETATM    9  C   UNL     1     -12.304  13.161  70.520  1.00  0.00    -0.304 A  
HETATM   10  N   UNL     1     -13.170  13.297  71.506  1.00  0.00    -0.335 NA 
HETATM   11  C   UNL     1     -11.782  14.297  69.711  1.00  0.00    -0.367 C  
HETATM   12  C   UNL     1     -13.411  12.039  71.984  1.00  0.00    -0.341 A  
HETATM   13  C   UNL     1     -12.690  11.117  71.270  1.00  0.00    -0.426 A  
HETATM   14  N   UNL     1     -12.719   9.702  71.420  1.00  0.00    -0.350 N  
HETATM   15  O   UNL     1     -12.115   9.024  70.584  1.00  0.00    -0.186 OA 
HETATM   16  O   UNL     1     -13.386   9.260  72.362  1.00  0.00    -0.445 OA 
ENDBRANCH   7   8
ENDBRANCH   6   7
ENDBRANCH   3   6
ENDBRANCH   2   3
TORSDOF 4
ENDMDL
MODEL       65
REMARK 921   NORMALIZED FREE ENERGY PREDICTED BY IDOCK:   -3.98 KCAL/MOL
REMARK 922        TOTAL FREE ENERGY PREDICTED BY IDOCK:   -5.32 KCAL/MOL
REMARK 923 INTER-LIGAND FREE ENERGY PREDICTED BY IDOCK:   -4.97 KCAL/MOL
REMARK 924 INTRA-LIGAND FREE ENERGY PREDICTED BY IDOCK:   -0.36 KCAL/MOL
REMARK 927      BINDING AFFINITY PREDICTED BY RF-SCORE:    0.00 PKD
ROOT
HETATM    1  C   UNL     1     -11.999  10.561  71.059  1.00  0.00    -0.466 C  
HETATM    2  C   UNL     1     -12.218  10.889  69.594  1.00  0.00    -0.283 C  
ENDROOT
BRANCH   2   3
HETATM    3  S   UNL     1     -10.704  10.747  68.657  1.00  0.00    -0.227 S  
HETATM    4  O   UNL     1     -11.022  10.153  67.373  1.00  0.00    -0.292 OA 
HETATM    5  O   UNL     1      -9.687  10.171  69.513  1.00  0.00    -0.216 OA 
BRANCH   3   6
HETATM    6  C   UNL     1     -10.251  12.438  68.350  1.00  0.00    -0.225 C  
BRANCH   6   7
HETATM    7  C   UNL     1     -11.496  13.248  68.025  1.00  0.00    -0.309 C  
BRANCH   7   8
HETATM    8  N   UNL     1     -11.248  14.681  68.041  1.00  0.00    -0.280 NA 
HETATM    9  C   UNL     1     -10.785  15.420  66.961  1.00  0.00    -0.321 A  
HETATM   10  N   UNL     1     -10.573  16.675  67.308  1.00  0.00    -0.310 NA 
HETATM   11  C   UNL     1     -10.549  14.886  65.591  1.00  0.00    -0.358 C  
HETATM   12  C   UNL     1     -10.919  16.774  68.627  1.00  0.00    -0.298 A  
HETATM   13  C   UNL     1     -11.363  15.563  69.091  1.00  0.00    -0.328 A  
HETATM   14  N   UNL     1     -11.871  15.274  70.388  1.00  0.00    -0.296 N  
HETATM   15  O   UNL     1     -12.365  14.158  70.576  1.00  0.00    -0.320 OA 
HETATM   16  O   UNL     1     -11.813  16.186  71.220  1.00  0.00    -0.436 OA 
ENDBRANCH   7   8
ENDBRANCH   6   7
ENDBRANCH   3   6
ENDBRANCH   2   3
TORSDOF 4
ENDMDL
MODEL       66
REMARK 921   NORMALIZED FREE ENERGY PREDICTED BY IDOCK:   -3.98 KCAL/MOL
REMARK 922        TOTAL FREE ENERGY PREDICTED BY IDOCK:   -5.32 KCAL/MOL
REMARK 923 INTER-LIGAND FREE ENERGY PREDICTED BY IDOCK:   -5.34 KCAL/MOL
REMARK 924 INTRA-LIGAND FREE ENERGY PREDICTED BY IDOCK:    0.02 KCAL/MOL
REMARK 927      BINDING AFFINITY PREDICTED BY RF-SCORE:    0.00 PKD
ROOT
HETATM    1  C   UNL     1      -6.677  19.804  69.497  1.00  0.00    -0.372 C  
HETATM    2  C   UNL     1      -6.114  18.478  69.024  1.00  0.00    -0.233 C  
ENDROOT
BRANCH   2   3
HETATM    3  S   UNL     1      -7.398  17.405  68.400  1.00  0.00    -0.237 S  
HETATM    4  O   UNL     1      -7.571  16.314  69.340  1.00  0.00    -0.230 OA 
HETATM    5  O   UNL     1      -7.140  17.147  66.998  1.00  0.00    -0.158 OA 
BRANCH   3   6
HETATM    6  C   UNL     1      -8.859  18.413  68.499  1.00  0.00    -0.314 C  
BRANCH   6   7
HETATM    7  C   UNL     1     -10.093  17.532  68.394  1.00  0.00    -0.358 C  
BRANCH   7   8
HETATM    8  N   UNL     1     -10.388  17.148  67.022  1.00  0.00    -0.315 NA 
HETATM    9  C   UNL     1     -10.582  18.036  65.971  1.00  0.00    -0.251 A  
HETATM   10  N   UNL     1     -10.921  17.393  64.871  1.00  0.00    -0.851 NA 
HETATM   11  C   UNL     1     -10.437  19.515  66.058  1.00  0.00    -0.611 C  
HETATM   12  C   UNL     1     -10.932  16.063  65.189  1.00  0.00    -0.348 A  
HETATM   13  C   UNL     1     -10.580  15.889  66.503  1.00  0.00    -0.297 A  
HETATM   14  N   UNL     1     -10.415  14.655  67.191  1.00  0.00    -0.266 N  
HETATM   15  O   UNL     1      -9.947  14.692  68.333  1.00  0.00    -0.214 OA 
HETATM   16  O   UNL     1     -10.718  13.630  66.569  1.00  0.00    -0.282 OA 
ENDBRANCH   7   8
ENDBRANCH   6   7
ENDBRANCH   3   6
ENDBRANCH   2   3
TORSDOF 4
ENDMDL
MODEL       67
REMARK 921   NORMALIZED FREE ENERGY PREDICTED BY IDOCK:   -3.98 KCAL/MOL
REMARK 922        TOTAL FREE ENERGY PREDICTED BY IDOCK:   -5.32 KCAL/MOL
REMARK 923 INTER-LIGAND FREE ENERGY PREDICTED BY IDOCK:   -5.08 KCAL/MOL
REMARK 924 INTRA-LIGAND FREE ENERGY PREDICTED BY IDOCK:   -0.24 KCAL/MOL
REMARK 927      BINDING AFFINITY PREDICTED BY RF-SCORE:    0.00 PKD
ROOT
HETATM    1  C   UNL     1     -11.698   6.673  70.941  1.00  0.00    -0.431 C  
HETATM    2  C   UNL     1     -11.027   7.766  70.132  1.00  0.00    -0.241 C  
ENDROOT
BRANCH   2   3
HETATM    3  S   UNL     1     -10.852   9.270  71.080  1.00  0.00    -0.365 S  
HETATM    4  O   UNL     1      -9.645   9.164  71.876  1.00  0.00    -0.310 OA 
HETATM    5  O   UNL     1     -12.128   9.574  71.697  1.00  0.00    -0.354 OA 
BRANCH   3   6
HETATM    6  C   UNL     1     -10.549  10.505  69.839  1.00  0.00    -0.211 C  
BRANCH   6   7
HETATM    7  C   UNL     1     -11.866  10.926  69.207  1.00  0.00    -0.324 C  
BRANCH   7   8
HETATM    8  N   UNL     1     -11.840  12.299  68.727  1.00  0.00    -0.317 NA 
HETATM    9  C   UNL     1     -12.139  13.417  69.495  1.00  0.00    -0.278 A  
HETATM   10  N   UNL     1     -12.116  14.511  68.759  1.00  0.00    -0.265 NA 
HETATM   11  C   UNL     1     -12.452  13.401  70.950  1.00  0.00    -0.439 C  
HETATM   12  C   UNL     1     -11.777  14.118  67.494  1.00  0.00    -0.386 A  
HETATM   13  C   UNL     1     -11.576  12.762  67.458  1.00  0.00    -0.356 A  
HETATM   14  N   UNL     1     -11.151  11.986  66.345  1.00  0.00    -0.303 N  
HETATM   15  O   UNL     1     -10.878  10.798  66.543  1.00  0.00    -0.218 OA 
HETATM   16  O   UNL     1     -11.047  12.579  65.265  1.00  0.00    -0.283 OA 
ENDBRANCH   7   8
ENDBRANCH   6   7
ENDBRANCH   3   6
ENDBRANCH   2   3
TORSDOF 4
ENDMDL
MODEL       68
REMARK 921   NORMALIZED FREE ENERGY PREDICTED BY IDOCK:   -3.97 KCAL/MOL
REMARK 922        TOTAL FREE ENERGY PREDICTED BY IDOCK:   -5.31 KCAL/MOL
REMARK 923 INTER-LIGAND FREE ENERGY PREDICTED BY IDOCK:   -4.95 KCAL/MOL
REMARK 924 INTRA-LIGAND FREE ENERGY PREDICTED BY IDOCK:   -0.36 KCAL/MOL
REMARK 927      BINDING AFFINITY PREDICTED BY RF-SCORE:    0.00 PKD
ROOT
HETATM    1  C   UNL     1     -10.239   8.045  67.433  1.00  0.00    -0.330 C  
HETATM    2  C   UNL     1      -9.967   7.873  68.915  1.00  0.00    -0.190 C  
ENDROOT
BRANCH   2   3
HETATM    3  S   UNL     1     -10.282   9.381  69.820  1.00  0.00    -0.237 S  
HETATM    4  O   UNL     1      -9.087   9.717  70.568  1.00  0.00    -0.242 OA 
HETATM    5  O   UNL     1     -11.567   9.259  70.481  1.00  0.00    -0.267 OA 
BRANCH   3   6
HETATM    6  C   UNL     1     -10.453  10.600  68.538  1.00  0.00    -0.191 C  
BRANCH   6   7
HETATM    7  C   UNL     1     -11.869  11.153  68.546  1.00  0.00    -0.260 C  
BRANCH   7   8
HETATM    8  N   UNL     1     -11.910  12.583  68.284  1.00  0.00    -0.333 NA 
HETATM    9  C   UNL     1     -11.852  13.163  67.024  1.00  0.00    -0.379 A  
HETATM   10  N   UNL     1     -11.820  14.479  67.115  1.00  0.00    -0.402 NA 
HETATM   11  C   UNL     1     -11.824  12.419  65.735  1.00  0.00    -0.467 C  
HETATM   12  C   UNL     1     -11.879  14.775  68.448  1.00  0.00    -0.286 A  
HETATM   13  C   UNL     1     -11.962  13.622  69.185  1.00  0.00    -0.351 A  
HETATM   14  N   UNL     1     -12.104  13.513  70.596  1.00  0.00    -0.338 N  
HETATM   15  O   UNL     1     -12.315  12.392  71.068  1.00  0.00    -0.349 OA 
HETATM   16  O   UNL     1     -12.045  14.566  71.240  1.00  0.00    -0.331 OA 
ENDBRANCH   7   8
ENDBRANCH   6   7
ENDBRANCH   3   6
ENDBRANCH   2   3
TORSDOF 4
ENDMDL
MODEL       69
REMARK 921   NORMALIZED FREE ENERGY PREDICTED BY IDOCK:   -3.95 KCAL/MOL
REMARK 922        TOTAL FREE ENERGY PREDICTED BY IDOCK:   -5.28 KCAL/MOL
REMARK 923 INTER-LIGAND FREE ENERGY PREDICTED BY IDOCK:   -4.98 KCAL/MOL
REMARK 924 INTRA-LIGAND FREE ENERGY PREDICTED BY IDOCK:   -0.30 KCAL/MOL
REMARK 927      BINDING AFFINITY PREDICTED BY RF-SCORE:    0.00 PKD
ROOT
HETATM    1  C   UNL     1      -7.732   8.008  65.900  1.00  0.00    -0.092 C  
HETATM    2  C   UNL     1      -8.967   8.887  65.854  1.00  0.00    -0.200 C  
ENDROOT
BRANCH   2   3
HETATM    3  S   UNL     1     -10.013   8.623  67.278  1.00  0.00    -0.243 S  
HETATM    4  O   UNL     1      -9.171   8.594  68.458  1.00  0.00    -0.138 OA 
HETATM    5  O   UNL     1     -10.922   7.533  66.983  1.00  0.00    -0.306 OA 
BRANCH   3   6
HETATM    6  C   UNL     1     -10.976  10.115  67.362  1.00  0.00    -0.229 C  
BRANCH   6   7
HETATM    7  C   UNL     1     -10.323  11.191  66.509  1.00  0.00    -0.243 C  
BRANCH   7   8
HETATM    8  N   UNL     1     -11.200  12.329  66.281  1.00  0.00    -0.306 NA 
HETATM    9  C   UNL     1     -11.454  13.335  67.204  1.00  0.00    -0.341 A  
HETATM   10  N   UNL     1     -12.358  14.177  66.743  1.00  0.00    -0.394 NA 
HETATM   11  C   UNL     1     -10.809  13.459  68.540  1.00  0.00    -0.285 C  
HETATM   12  C   UNL     1     -12.691  13.738  65.492  1.00  0.00    -0.488 A  
HETATM   13  C   UNL     1     -11.970  12.615  65.178  1.00  0.00    -0.428 A  
HETATM   14  N   UNL     1     -11.985  11.901  63.947  1.00  0.00    -0.413 N  
HETATM   15  O   UNL     1     -11.153  11.001  63.795  1.00  0.00    -0.229 OA 
HETATM   16  O   UNL     1     -12.811  12.269  63.105  1.00  0.00    -0.646 OA 
ENDBRANCH   7   8
ENDBRANCH   6   7
ENDBRANCH   3   6
ENDBRANCH   2   3
TORSDOF 4
ENDMDL
MODEL       70
REMARK 921   NORMALIZED FREE ENERGY PREDICTED BY IDOCK:   -3.94 KCAL/MOL
REMARK 922        TOTAL FREE ENERGY PREDICTED BY IDOCK:   -5.28 KCAL/MOL
REMARK 923 INTER-LIGAND FREE ENERGY PREDICTED BY IDOCK:   -4.97 KCAL/MOL
REMARK 924 INTRA-LIGAND FREE ENERGY PREDICTED BY IDOCK:   -0.31 KCAL/MOL
REMARK 927      BINDING AFFINITY PREDICTED BY RF-SCORE:    0.00 PKD
ROOT
HETATM    1  C   UNL     1     -11.050  12.604  64.858  1.00  0.00    -0.331 C  
HETATM    2  C   UNL     1     -11.453  12.347  66.297  1.00  0.00    -0.371 C  
ENDROOT
BRANCH   2   3
HETATM    3  S   UNL     1     -10.155  11.519  67.204  1.00  0.00    -0.200 S  
HETATM    4  O   UNL     1      -9.591  12.463  68.149  1.00  0.00    -0.208 OA 
HETATM    5  O   UNL     1      -9.312  10.816  66.258  1.00  0.00    -0.171 OA 
BRANCH   3   6
HETATM    6  C   UNL     1     -11.033  10.297  68.151  1.00  0.00    -0.274 C  
BRANCH   6   7
HETATM    7  C   UNL     1     -10.565  10.341  69.596  1.00  0.00    -0.256 C  
BRANCH   7   8
HETATM    8  N   UNL     1     -11.671  10.345  70.541  1.00  0.00    -0.318 NA 
HETATM    9  C   UNL     1     -12.373  11.475  70.939  1.00  0.00    -0.359 A  
HETATM   10  N   UNL     1     -13.257  11.174  71.870  1.00  0.00    -0.454 NA 
HETATM   11  C   UNL     1     -12.164  12.849  70.405  1.00  0.00    -0.381 C  
HETATM   12  C   UNL     1     -13.157   9.826  72.075  1.00  0.00    -0.452 A  
HETATM   13  C   UNL     1     -12.204   9.291  71.247  1.00  0.00    -0.334 A  
HETATM   14  N   UNL     1     -11.852   7.919  71.117  1.00  0.00    -0.289 N  
HETATM   15  O   UNL     1     -11.074   7.610  70.208  1.00  0.00    -0.260 OA 
HETATM   16  O   UNL     1     -12.388   7.133  71.905  1.00  0.00    -0.315 OA 
ENDBRANCH   7   8
ENDBRANCH   6   7
ENDBRANCH   3   6
ENDBRANCH   2   3
TORSDOF 4
ENDMDL
MODEL       71
REMARK 921   NORMALIZED FREE ENERGY PREDICTED BY IDOCK:   -3.94 KCAL/MOL
REMARK 922        TOTAL FREE ENERGY PREDICTED BY IDOCK:   -5.28 KCAL/MOL
REMARK 923 INTER-LIGAND FREE ENERGY PREDICTED BY IDOCK:   -4.92 KCAL/MOL
REMARK 924 INTRA-LIGAND FREE ENERGY PREDICTED BY IDOCK:   -0.36 KCAL/MOL
REMARK 927      BINDING AFFINITY PREDICTED BY RF-SCORE:    0.00 PKD
ROOT
HETATM    1  C   UNL     1      -7.249  10.308  67.444  1.00  0.00    -0.092 C  
HETATM    2  C   UNL     1      -8.128   9.146  67.020  1.00  0.00    -0.109 C  
ENDROOT
BRANCH   2   3
HETATM    3  S   UNL     1      -9.862   9.532  67.207  1.00  0.00    -0.189 S  
HETATM    4  O   UNL     1     -10.040  10.207  68.478  1.00  0.00    -0.158 OA 
HETATM    5  O   UNL     1     -10.633   8.351  66.875  1.00  0.00    -0.305 OA 
BRANCH   3   6
HETATM    6  C   UNL     1     -10.153  10.738  65.934  1.00  0.00    -0.256 C  
BRANCH   6   7
HETATM    7  C   UNL     1     -11.132  11.785  66.438  1.00  0.00    -0.307 C  
BRANCH   7   8
HETATM    8  N   UNL     1     -10.771  13.131  66.023  1.00  0.00    -0.274 NA 
HETATM    9  C   UNL     1      -9.830  13.933  66.657  1.00  0.00    -0.284 A  
HETATM   10  N   UNL     1      -9.787  15.130  66.105  1.00  0.00    -0.280 NA 
HETATM   11  C   UNL     1      -8.980  13.517  67.806  1.00  0.00    -0.201 C  
HETATM   12  C   UNL     1     -10.693  15.116  65.082  1.00  0.00    -0.422 A  
HETATM   13  C   UNL     1     -11.291  13.885  64.997  1.00  0.00    -0.334 A  
HETATM   14  N   UNL     1     -12.239  13.456  64.027  1.00  0.00    -0.421 N  
HETATM   15  O   UNL     1     -12.553  12.262  64.020  1.00  0.00    -0.567 OA 
HETATM   16  O   UNL     1     -12.645  14.313  63.235  1.00  0.00    -0.716 OA 
ENDBRANCH   7   8
ENDBRANCH   6   7
ENDBRANCH   3   6
ENDBRANCH   2   3
TORSDOF 4
ENDMDL
MODEL       72
REMARK 921   NORMALIZED FREE ENERGY PREDICTED BY IDOCK:   -3.93 KCAL/MOL
REMARK 922        TOTAL FREE ENERGY PREDICTED BY IDOCK:   -5.26 KCAL/MOL
REMARK 923 INTER-LIGAND FREE ENERGY PREDICTED BY IDOCK:   -4.89 KCAL/MOL
REMARK 924 INTRA-LIGAND FREE ENERGY PREDICTED BY IDOCK:   -0.37 KCAL/MOL
REMARK 927      BINDING AFFINITY PREDICTED BY RF-SCORE:    0.00 PKD
ROOT
HETATM    1  C   UNL     1     -10.718  19.540  66.926  1.00  0.00    -0.576 C  
HETATM    2  C   UNL     1      -9.351  19.363  66.294  1.00  0.00    -0.355 C  
ENDROOT
BRANCH   2   3
HETATM    3  S   UNL     1      -8.609  17.807  66.760  1.00  0.00    -0.261 S  
HETATM    4  O   UNL     1      -8.160  17.914  68.135  1.00  0.00    -0.250 OA 
HETATM    5  O   UNL     1      -7.699  17.399  65.708  1.00  0.00    -0.508 OA 
BRANCH   3   6
HETATM    6  C   UNL     1      -9.982  16.678  66.748  1.00  0.00    -0.279 C  
BRANCH   6   7
HETATM    7  C   UNL     1      -9.720  15.568  65.743  1.00  0.00    -0.348 C  
BRANCH   7   8
HETATM    8  N   UNL     1     -10.254  14.286  66.177  1.00  0.00    -0.296 NA 
HETATM    9  C   UNL     1     -11.508  13.792  65.841  1.00  0.00    -0.322 A  
HETATM   10  N   UNL     1     -11.742  12.649  66.457  1.00  0.00    -0.386 NA 
HETATM   11  C   UNL     1     -12.472  14.450  64.917  1.00  0.00    -0.368 C  
HETATM   12  C   UNL     1     -10.624  12.372  67.193  1.00  0.00    -0.224 A  
HETATM   13  C   UNL     1      -9.684  13.354  67.014  1.00  0.00    -0.239 A  
HETATM   14  N   UNL     1      -8.370  13.395  67.556  1.00  0.00    -0.178 N  
HETATM   15  O   UNL     1      -7.613  14.287  67.161  1.00  0.00    -0.145 OA 
HETATM   16  O   UNL     1      -8.074  12.501  68.357  1.00  0.00    -0.151 OA 
ENDBRANCH   7   8
ENDBRANCH   6   7
ENDBRANCH   3   6
ENDBRANCH   2   3
TORSDOF 4
ENDMDL
MODEL       73
REMARK 921   NORMALIZED FREE ENERGY PREDICTED BY IDOCK:   -3.93 KCAL/MOL
REMARK 922        TOTAL FREE ENERGY PREDICTED BY IDOCK:   -5.26 KCAL/MOL
REMARK 923 INTER-LIGAND FREE ENERGY PREDICTED BY IDOCK:   -4.99 KCAL/MOL
REMARK 924 INTRA-LIGAND FREE ENERGY PREDICTED BY IDOCK:   -0.26 KCAL/MOL
REMARK 927      BINDING AFFINITY PREDICTED BY RF-SCORE:    0.00 PKD
ROOT
HETATM    1  C   UNL     1      -8.525   9.371  70.492  1.00  0.00    -0.251 C  
HETATM    2  C   UNL     1      -9.684   9.695  69.569  1.00  0.00    -0.203 C  
ENDROOT
BRANCH   2   3
HETATM    3  S   UNL     1      -9.337   9.212  67.885  1.00  0.00    -0.137 S  
HETATM    4  O   UNL     1     -10.285   8.182  67.506  1.00  0.00    -0.203 OA 
HETATM    5  O   UNL     1      -7.909   8.996  67.755  1.00  0.00    -0.100 OA 
BRANCH   3   6
HETATM    6  C   UNL     1      -9.747  10.666  66.948  1.00  0.00    -0.179 C  
BRANCH   6   7
HETATM    7  C   UNL     1     -11.257  10.788  66.831  1.00  0.00    -0.032 C  
BRANCH   7   8
HETATM    8  N   UNL     1     -11.694  12.165  66.663  1.00  0.00    -0.562 NA 
HETATM    9  C   UNL     1     -11.888  13.070  67.698  1.00  0.00    -0.351 A  
HETATM   10  N   UNL     1     -12.371  14.209  67.240  1.00  0.00    -0.269 NA 
HETATM   11  C   UNL     1     -11.601  12.807  69.135  1.00  0.00    -0.373 C  
HETATM   12  C   UNL     1     -12.478  14.066  65.885  1.00  0.00    -0.481 A  
HETATM   13  C   UNL     1     -12.041  12.823  65.505  1.00  0.00    -0.465 A  
HETATM   14  N   UNL     1     -11.935  12.318  64.180  1.00  0.00    -0.409 N  
HETATM   15  O   UNL     1     -11.376  11.227  64.023  1.00  0.00    -0.297 OA 
HETATM   16  O   UNL     1     -12.380  13.036  63.277  1.00  0.00    -0.682 OA 
ENDBRANCH   7   8
ENDBRANCH   6   7
ENDBRANCH   3   6
ENDBRANCH   2   3
TORSDOF 4
ENDMDL
MODEL       74
REMARK 921   NORMALIZED FREE ENERGY PREDICTED BY IDOCK:   -3.93 KCAL/MOL
REMARK 922        TOTAL FREE ENERGY PREDICTED BY IDOCK:   -5.26 KCAL/MOL
REMARK 923 INTER-LIGAND FREE ENERGY PREDICTED BY IDOCK:   -4.88 KCAL/MOL
REMARK 924 INTRA-LIGAND FREE ENERGY PREDICTED BY IDOCK:   -0.37 KCAL/MOL
REMARK 927      BINDING AFFINITY PREDICTED BY RF-SCORE:    0.00 PKD
ROOT
HETATM    1  C   UNL     1      -8.583   9.281  63.849  1.00  0.00    -0.208 C  
HETATM    2  C   UNL     1      -8.114  10.172  64.984  1.00  0.00    -0.149 C  
ENDROOT
BRANCH   2   3
HETATM    3  S   UNL     1      -9.469  10.652  66.044  1.00  0.00    -0.204 S  
HETATM    4  O   UNL     1      -8.916  11.276  67.230  1.00  0.00    -0.146 OA 
HETATM    5  O   UNL     1     -10.389   9.537  66.146  1.00  0.00    -0.233 OA 
BRANCH   3   6
HETATM    6  C   UNL     1     -10.282  11.932  65.116  1.00  0.00    -0.277 C  
BRANCH   6   7
HETATM    7  C   UNL     1     -11.641  12.223  65.732  1.00  0.00    -0.388 C  
BRANCH   7   8
HETATM    8  N   UNL     1     -11.605  13.348  66.654  1.00  0.00    -0.344 NA 
HETATM    9  C   UNL     1     -11.418  14.673  66.285  1.00  0.00    -0.351 A  
HETATM   10  N   UNL     1     -11.343  15.449  67.349  1.00  0.00    -0.290 NA 
HETATM   11  C   UNL     1     -11.309  15.169  64.886  1.00  0.00    -0.402 C  
HETATM   12  C   UNL     1     -11.504  14.634  68.434  1.00  0.00    -0.311 A  
HETATM   13  C   UNL     1     -11.693  13.338  68.027  1.00  0.00    -0.359 A  
HETATM   14  N   UNL     1     -11.958  12.209  68.851  1.00  0.00    -0.282 N  
HETATM   15  O   UNL     1     -12.252  11.147  68.293  1.00  0.00    -0.613 OA 
HETATM   16  O   UNL     1     -11.914  12.393  70.072  1.00  0.00    -0.328 OA 
ENDBRANCH   7   8
ENDBRANCH   6   7
ENDBRANCH   3   6
ENDBRANCH   2   3
TORSDOF 4
ENDMDL
MODEL       75
REMARK 921   NORMALIZED FREE ENERGY PREDICTED BY IDOCK:   -3.92 KCAL/MOL
REMARK 922        TOTAL FREE ENERGY PREDICTED BY IDOCK:   -5.25 KCAL/MOL
REMARK 923 INTER-LIGAND FREE ENERGY PREDICTED BY IDOCK:   -4.97 KCAL/MOL
REMARK 924 INTRA-LIGAND FREE ENERGY PREDICTED BY IDOCK:   -0.28 KCAL/MOL
REMARK 927      BINDING AFFINITY PREDICTED BY RF-SCORE:    0.00 PKD
ROOT
HETATM    1  C   UNL     1     -12.371  10.472  71.103  1.00  0.00    -0.510 C  
HETATM    2  C   UNL     1     -11.739  11.471  70.152  1.00  0.00    -0.309 C  
ENDROOT
BRANCH   2   3
HETATM    3  S   UNL     1     -10.630  10.672  69.003  1.00  0.00    -0.234 S  
HETATM    4  O   UNL     1     -10.666   9.245  69.258  1.00  0.00    -0.225 OA 
HETATM    5  O   UNL     1      -9.375  11.397  68.997  1.00  0.00    -0.094 OA 
BRANCH   3   6
HETATM    6  C   UNL     1     -11.410  10.938  67.428  1.00  0.00    -0.195 C  
BRANCH   6   7
HETATM    7  C   UNL     1     -10.606  11.948  66.625  1.00  0.00    -0.238 C  
BRANCH   7   8
HETATM    8  N   UNL     1     -11.102  12.102  65.267  1.00  0.00    -0.312 NA 
HETATM    9  C   UNL     1     -12.153  12.929  64.892  1.00  0.00    -0.432 A  
HETATM   10  N   UNL     1     -12.428  12.786  63.610  1.00  0.00    -0.714 NA 
HETATM   11  C   UNL     1     -12.885  13.853  65.801  1.00  0.00    -0.437 C  
HETATM   12  C   UNL     1     -11.536  11.871  63.124  1.00  0.00    -0.142 A  
HETATM   13  C   UNL     1     -10.693  11.457  64.123  1.00  0.00    -0.371 A  
HETATM   14  N   UNL     1      -9.594  10.562  64.002  1.00  0.00    -0.287 N  
HETATM   15  O   UNL     1      -8.854  10.425  64.981  1.00  0.00    -0.174 OA 
HETATM   16  O   UNL     1      -9.441  10.020  62.902  1.00  0.00    -0.294 OA 
ENDBRANCH   7   8
ENDBRANCH   6   7
ENDBRANCH   3   6
ENDBRANCH   2   3
TORSDOF 4
ENDMDL
MODEL       76
REMARK 921   NORMALIZED FREE ENERGY PREDICTED BY IDOCK:   -3.91 KCAL/MOL
REMARK 922        TOTAL FREE ENERGY PREDICTED BY IDOCK:   -5.24 KCAL/MOL
REMARK 923 INTER-LIGAND FREE ENERGY PREDICTED BY IDOCK:   -4.95 KCAL/MOL
REMARK 924 INTRA-LIGAND FREE ENERGY PREDICTED BY IDOCK:   -0.28 KCAL/MOL
REMARK 927      BINDING AFFINITY PREDICTED BY RF-SCORE:    0.00 PKD
ROOT
HETATM    1  C   UNL     1     -11.028  12.209  63.950  1.00  0.00    -0.463 C  
HETATM    2  C   UNL     1     -10.516  13.371  64.780  1.00  0.00    -0.403 C  
ENDROOT
BRANCH   2   3
HETATM    3  S   UNL     1     -11.815  14.542  65.143  1.00  0.00    -0.364 S  
HETATM    4  O   UNL     1     -12.330  14.249  66.466  1.00  0.00    -0.445 OA 
HETATM    5  O   UNL     1     -12.700  14.614  63.997  1.00  0.00    -0.772 OA 
BRANCH   3   6
HETATM    6  C   UNL     1     -10.952  16.092  65.252  1.00  0.00    -0.299 C  
BRANCH   6   7
HETATM    7  C   UNL     1      -9.852  15.990  66.296  1.00  0.00    -0.308 C  
BRANCH   7   8
HETATM    8  N   UNL     1      -9.726  17.201  67.092  1.00  0.00    -0.254 NA 
HETATM    9  C   UNL     1     -10.553  17.545  68.153  1.00  0.00    -0.366 A  
HETATM   10  N   UNL     1     -10.247  18.741  68.618  1.00  0.00    -0.365 NA 
HETATM   11  C   UNL     1     -11.646  16.696  68.702  1.00  0.00     0.081 C  
HETATM   12  C   UNL     1      -9.192  19.186  67.871  1.00  0.00    -0.308 A  
HETATM   13  C   UNL     1      -8.838  18.241  66.943  1.00  0.00    -0.275 A  
HETATM   14  N   UNL     1      -7.752  18.303  66.025  1.00  0.00    -0.210 N  
HETATM   15  O   UNL     1      -7.498  17.288  65.368  1.00  0.00     0.047 OA 
HETATM   16  O   UNL     1      -7.119  19.363  65.989  1.00  0.00    -0.245 OA 
ENDBRANCH   7   8
ENDBRANCH   6   7
ENDBRANCH   3   6
ENDBRANCH   2   3
TORSDOF 4
ENDMDL
MODEL       77
REMARK 921   NORMALIZED FREE ENERGY PREDICTED BY IDOCK:   -3.89 KCAL/MOL
REMARK 922        TOTAL FREE ENERGY PREDICTED BY IDOCK:   -5.22 KCAL/MOL
REMARK 923 INTER-LIGAND FREE ENERGY PREDICTED BY IDOCK:   -4.85 KCAL/MOL
REMARK 924 INTRA-LIGAND FREE ENERGY PREDICTED BY IDOCK:   -0.36 KCAL/MOL
REMARK 927      BINDING AFFINITY PREDICTED BY RF-SCORE:    0.00 PKD
ROOT
HETATM    1  C   UNL     1      -9.680  15.465  65.813  1.00  0.00    -0.385 C  
HETATM    2  C   UNL     1      -9.731  16.520  66.901  1.00  0.00    -0.251 C  
ENDROOT
BRANCH   2   3
HETATM    3  S   UNL     1     -10.316  15.842  68.446  1.00  0.00    -0.249 S  
HETATM    4  O   UNL     1     -11.711  16.205  68.600  1.00  0.00    -0.362 OA 
HETATM    5  O   UNL     1      -9.347  16.152  69.479  1.00  0.00    -0.223 OA 
BRANCH   3   6
HETATM    6  C   UNL     1     -10.262  14.087  68.171  1.00  0.00    -0.243 C  
BRANCH   6   7
HETATM    7  C   UNL     1     -11.672  13.521  68.220  1.00  0.00    -0.359 C  
BRANCH   7   8
HETATM    8  N   UNL     1     -11.792  12.404  69.146  1.00  0.00    -0.310 NA 
HETATM    9  C   UNL     1     -12.220  12.506  70.462  1.00  0.00    -0.297 A  
HETATM   10  N   UNL     1     -12.137  11.339  71.073  1.00  0.00    -0.290 NA 
HETATM   11  C   UNL     1     -12.706  13.752  71.115  1.00  0.00    -0.438 C  
HETATM   12  C   UNL     1     -11.669  10.451  70.146  1.00  0.00    -0.312 A  
HETATM   13  C   UNL     1     -11.475  11.081  68.944  1.00  0.00    -0.296 A  
HETATM   14  N   UNL     1     -11.058  10.487  67.720  1.00  0.00    -0.309 N  
HETATM   15  O   UNL     1     -11.085  11.187  66.703  1.00  0.00    -0.270 OA 
HETATM   16  O   UNL     1     -10.738   9.294  67.765  1.00  0.00    -0.259 OA 
ENDBRANCH   7   8
ENDBRANCH   6   7
ENDBRANCH   3   6
ENDBRANCH   2   3
TORSDOF 4
ENDMDL
MODEL       78
REMARK 921   NORMALIZED FREE ENERGY PREDICTED BY IDOCK:   -3.89 KCAL/MOL
REMARK 922        TOTAL FREE ENERGY PREDICTED BY IDOCK:   -5.21 KCAL/MOL
REMARK 923 INTER-LIGAND FREE ENERGY PREDICTED BY IDOCK:   -4.83 KCAL/MOL
REMARK 924 INTRA-LIGAND FREE ENERGY PREDICTED BY IDOCK:   -0.38 KCAL/MOL
REMARK 927      BINDING AFFINITY PREDICTED BY RF-SCORE:    0.00 PKD
ROOT
HETATM    1  C   UNL     1     -10.646   7.712  67.149  1.00  0.00    -0.410 C  
HETATM    2  C   UNL     1      -9.621   8.494  66.350  1.00  0.00    -0.245 C  
ENDROOT
BRANCH   2   3
HETATM    3  S   UNL     1      -9.854  10.256  66.529  1.00  0.00    -0.222 S  
HETATM    4  O   UNL     1     -10.436  10.761  65.301  1.00  0.00    -0.270 OA 
HETATM    5  O   UNL     1      -8.636  10.827  67.068  1.00  0.00    -0.128 OA 
BRANCH   3   6
HETATM    6  C   UNL     1     -11.105  10.379  67.786  1.00  0.00    -0.299 C  
BRANCH   6   7
HETATM    7  C   UNL     1     -10.477  10.860  69.084  1.00  0.00    -0.221 C  
BRANCH   7   8
HETATM    8  N   UNL     1     -11.435  10.923  70.177  1.00  0.00    -0.313 NA 
HETATM    9  C   UNL     1     -11.785   9.853  70.990  1.00  0.00    -0.382 A  
HETATM   10  N   UNL     1     -12.742  10.196  71.830  1.00  0.00    -0.423 NA 
HETATM   11  C   UNL     1     -11.178   8.495  70.932  1.00  0.00    -0.304 C  
HETATM   12  C   UNL     1     -13.015  11.513  71.586  1.00  0.00    -0.394 A  
HETATM   13  C   UNL     1     -12.203  11.987  70.589  1.00  0.00    -0.316 A  
HETATM   14  N   UNL     1     -12.138  13.320  70.095  1.00  0.00    -0.348 N  
HETATM   15  O   UNL     1     -11.236  13.594  69.297  1.00  0.00    -0.255 OA 
HETATM   16  O   UNL     1     -12.973  14.115  70.540  1.00  0.00    -0.304 OA 
ENDBRANCH   7   8
ENDBRANCH   6   7
ENDBRANCH   3   6
ENDBRANCH   2   3
TORSDOF 4
ENDMDL
MODEL       79
REMARK 921   NORMALIZED FREE ENERGY PREDICTED BY IDOCK:   -3.89 KCAL/MOL
REMARK 922        TOTAL FREE ENERGY PREDICTED BY IDOCK:   -5.21 KCAL/MOL
REMARK 923 INTER-LIGAND FREE ENERGY PREDICTED BY IDOCK:   -4.98 KCAL/MOL
REMARK 924 INTRA-LIGAND FREE ENERGY PREDICTED BY IDOCK:   -0.23 KCAL/MOL
REMARK 927      BINDING AFFINITY PREDICTED BY RF-SCORE:    0.00 PKD
ROOT
HETATM    1  C   UNL     1      -9.718   6.599  69.523  1.00  0.00    -0.156 C  
HETATM    2  C   UNL     1     -10.384   7.921  69.193  1.00  0.00    -0.219 C  
ENDROOT
BRANCH   2   3
HETATM    3  S   UNL     1      -9.891   8.521  67.584  1.00  0.00    -0.187 S  
HETATM    4  O   UNL     1     -10.373   7.586  66.586  1.00  0.00    -0.264 OA 
HETATM    5  O   UNL     1      -8.491   8.894  67.643  1.00  0.00    -0.120 OA 
BRANCH   3   6
HETATM    6  C   UNL     1     -10.835  10.015  67.396  1.00  0.00    -0.249 C  
BRANCH   6   7
HETATM    7  C   UNL     1      -9.955  11.103  66.804  1.00  0.00    -0.208 C  
BRANCH   7   8
HETATM    8  N   UNL     1     -10.327  11.439  65.438  1.00  0.00    -0.268 NA 
HETATM    9  C   UNL     1      -9.716  10.929  64.300  1.00  0.00    -0.294 A  
HETATM   10  N   UNL     1     -10.212  11.488  63.213  1.00  0.00    -0.387 NA 
HETATM   11  C   UNL     1      -8.644   9.897  64.288  1.00  0.00    -0.199 C  
HETATM   12  C   UNL     1     -11.175  12.362  63.633  1.00  0.00    -0.474 A  
HETATM   13  C   UNL     1     -11.281  12.327  65.000  1.00  0.00    -0.321 A  
HETATM   14  N   UNL     1     -12.209  13.041  65.807  1.00  0.00    -0.454 N  
HETATM   15  O   UNL     1     -12.253  12.767  67.011  1.00  0.00    -0.431 OA 
HETATM   16  O   UNL     1     -12.933  13.858  65.228  1.00  0.00    -0.747 OA 
ENDBRANCH   7   8
ENDBRANCH   6   7
ENDBRANCH   3   6
ENDBRANCH   2   3
TORSDOF 4
ENDMDL
MODEL       80
REMARK 921   NORMALIZED FREE ENERGY PREDICTED BY IDOCK:   -3.87 KCAL/MOL
REMARK 922        TOTAL FREE ENERGY PREDICTED BY IDOCK:   -5.19 KCAL/MOL
REMARK 923 INTER-LIGAND FREE ENERGY PREDICTED BY IDOCK:   -4.83 KCAL/MOL
REMARK 924 INTRA-LIGAND FREE ENERGY PREDICTED BY IDOCK:   -0.36 KCAL/MOL
REMARK 927      BINDING AFFINITY PREDICTED BY RF-SCORE:    0.00 PKD
ROOT
HETATM    1  C   UNL     1      -8.796   9.598  63.407  1.00  0.00    -0.251 C  
HETATM    2  C   UNL     1      -7.817   9.803  64.548  1.00  0.00    -0.137 C  
ENDROOT
BRANCH   2   3
HETATM    3  S   UNL     1      -8.650   9.850  66.127  1.00  0.00    -0.130 S  
HETATM    4  O   UNL     1      -7.644   9.939  67.166  1.00  0.00    -0.091 OA 
HETATM    5  O   UNL     1      -9.654   8.804  66.147  1.00  0.00    -0.237 OA 
BRANCH   3   6
HETATM    6  C   UNL     1      -9.503  11.410  66.095  1.00  0.00    -0.216 C  
BRANCH   6   7
HETATM    7  C   UNL     1     -10.987  11.184  66.337  1.00  0.00    -0.186 C  
BRANCH   7   8
HETATM    8  N   UNL     1     -11.778  12.382  66.101  1.00  0.00    -0.454 NA 
HETATM    9  C   UNL     1     -12.332  12.742  64.880  1.00  0.00    -0.490 A  
HETATM   10  N   UNL     1     -12.916  13.921  64.960  1.00  0.00    -0.752 NA 
HETATM   11  C   UNL     1     -12.280  11.923  63.637  1.00  0.00    -0.586 C  
HETATM   12  C   UNL     1     -12.767  14.339  66.253  1.00  0.00    -0.044 A  
HETATM   13  C   UNL     1     -12.091  13.393  66.980  1.00  0.00    -0.339 A  
HETATM   14  N   UNL     1     -11.796  13.428  68.371  1.00  0.00    -0.356 N  
HETATM   15  O   UNL     1     -11.311  12.413  68.881  1.00  0.00    -0.254 OA 
HETATM   16  O   UNL     1     -12.089  14.467  68.972  1.00  0.00    -0.306 OA 
ENDBRANCH   7   8
ENDBRANCH   6   7
ENDBRANCH   3   6
ENDBRANCH   2   3
TORSDOF 4
ENDMDL
MODEL       81
REMARK 921   NORMALIZED FREE ENERGY PREDICTED BY IDOCK:   -3.87 KCAL/MOL
REMARK 922        TOTAL FREE ENERGY PREDICTED BY IDOCK:   -5.19 KCAL/MOL
REMARK 923 INTER-LIGAND FREE ENERGY PREDICTED BY IDOCK:   -4.89 KCAL/MOL
REMARK 924 INTRA-LIGAND FREE ENERGY PREDICTED BY IDOCK:   -0.30 KCAL/MOL
REMARK 927      BINDING AFFINITY PREDICTED BY RF-SCORE:    0.00 PKD
ROOT
HETATM    1  C   UNL     1     -10.704   7.497  73.019  1.00  0.00    -0.438 C  
HETATM    2  C   UNL     1      -9.762   8.361  72.203  1.00  0.00    -0.300 C  
ENDROOT
BRANCH   2   3
HETATM    3  S   UNL     1     -10.232   8.396  70.480  1.00  0.00    -0.200 S  
HETATM    4  O   UNL     1     -11.583   7.881  70.369  1.00  0.00    -0.211 OA 
HETATM    5  O   UNL     1      -9.151   7.829  69.698  1.00  0.00    -0.146 OA 
BRANCH   3   6
HETATM    6  C   UNL     1     -10.306  10.133  70.109  1.00  0.00    -0.224 C  
BRANCH   6   7
HETATM    7  C   UNL     1     -11.727  10.511  69.725  1.00  0.00    -0.281 C  
BRANCH   7   8
HETATM    8  N   UNL     1     -12.268  11.570  70.564  1.00  0.00    -0.377 NA 
HETATM    9  C   UNL     1     -13.050  11.369  71.694  1.00  0.00    -0.393 A  
HETATM   10  N   UNL     1     -13.463  12.519  72.189  1.00  0.00    -0.513 NA 
HETATM   11  C   UNL     1     -13.391  10.043  72.278  1.00  0.00    -0.387 C  
HETATM   12  C   UNL     1     -12.932  13.495  71.392  1.00  0.00    -0.339 A  
HETATM   13  C   UNL     1     -12.171  12.932  70.400  1.00  0.00    -0.304 A  
HETATM   14  N   UNL     1     -11.405  13.614  69.414  1.00  0.00    -0.261 N  
HETATM   15  O   UNL     1     -10.661  12.939  68.696  1.00  0.00    -0.246 OA 
HETATM   16  O   UNL     1     -11.517  14.845  69.381  1.00  0.00    -0.266 OA 
ENDBRANCH   7   8
ENDBRANCH   6   7
ENDBRANCH   3   6
ENDBRANCH   2   3
TORSDOF 4
ENDMDL
MODEL       82
REMARK 921   NORMALIZED FREE ENERGY PREDICTED BY IDOCK:   -3.86 KCAL/MOL
REMARK 922        TOTAL FREE ENERGY PREDICTED BY IDOCK:   -5.18 KCAL/MOL
REMARK 923 INTER-LIGAND FREE ENERGY PREDICTED BY IDOCK:   -4.93 KCAL/MOL
REMARK 924 INTRA-LIGAND FREE ENERGY PREDICTED BY IDOCK:   -0.25 KCAL/MOL
REMARK 927      BINDING AFFINITY PREDICTED BY RF-SCORE:    0.00 PKD
ROOT
HETATM    1  C   UNL     1     -10.573   8.787  69.187  1.00  0.00    -0.200 C  
HETATM    2  C   UNL     1      -9.909  10.111  68.860  1.00  0.00    -0.189 C  
ENDROOT
BRANCH   2   3
HETATM    3  S   UNL     1     -10.998  11.180  67.931  1.00  0.00    -0.276 S  
HETATM    4  O   UNL     1     -12.343  11.014  68.449  1.00  0.00    -0.528 OA 
HETATM    5  O   UNL     1     -10.716  11.008  66.520  1.00  0.00    -0.261 OA 
BRANCH   3   6
HETATM    6  C   UNL     1     -10.462  12.811  68.391  1.00  0.00    -0.243 C  
BRANCH   6   7
HETATM    7  C   UNL     1     -11.655  13.752  68.415  1.00  0.00    -0.334 C  
BRANCH   7   8
HETATM    8  N   UNL     1     -11.673  14.599  69.598  1.00  0.00    -0.295 NA 
HETATM    9  C   UNL     1     -12.145  14.213  70.845  1.00  0.00    -0.344 A  
HETATM   10  N   UNL     1     -12.114  15.225  71.691  1.00  0.00    -0.328 NA 
HETATM   11  C   UNL     1     -12.629  12.850  71.198  1.00  0.00    -0.373 C  
HETATM   12  C   UNL     1     -11.596  16.287  71.003  1.00  0.00    -0.303 A  
HETATM   13  C   UNL     1     -11.293  15.915  69.719  1.00  0.00    -0.347 A  
HETATM   14  N   UNL     1     -10.680  16.716  68.716  1.00  0.00    -0.324 N  
HETATM   15  O   UNL     1     -10.346  16.162  67.663  1.00  0.00    -0.273 OA 
HETATM   16  O   UNL     1     -10.491  17.905  68.996  1.00  0.00    -0.306 OA 
ENDBRANCH   7   8
ENDBRANCH   6   7
ENDBRANCH   3   6
ENDBRANCH   2   3
TORSDOF 4
ENDMDL
MODEL       83
REMARK 921   NORMALIZED FREE ENERGY PREDICTED BY IDOCK:   -3.83 KCAL/MOL
REMARK 922        TOTAL FREE ENERGY PREDICTED BY IDOCK:   -5.14 KCAL/MOL
REMARK 923 INTER-LIGAND FREE ENERGY PREDICTED BY IDOCK:   -4.91 KCAL/MOL
REMARK 924 INTRA-LIGAND FREE ENERGY PREDICTED BY IDOCK:   -0.23 KCAL/MOL
REMARK 927      BINDING AFFINITY PREDICTED BY RF-SCORE:    0.00 PKD
ROOT
HETATM    1  C   UNL     1     -11.843  13.805  70.446  1.00  0.00    -0.323 C  
HETATM    2  C   UNL     1     -11.886  12.388  69.907  1.00  0.00    -0.305 C  
ENDROOT
BRANCH   2   3
HETATM    3  S   UNL     1     -10.908  12.222  68.421  1.00  0.00    -0.241 S  
HETATM    4  O   UNL     1     -11.807  11.942  67.318  1.00  0.00    -0.576 OA 
HETATM    5  O   UNL     1      -9.785  11.351  68.707  1.00  0.00    -0.197 OA 
BRANCH   3   6
HETATM    6  C   UNL     1     -10.266  13.859  68.167  1.00  0.00    -0.249 C  
BRANCH   6   7
HETATM    7  C   UNL     1      -9.328  13.858  66.971  1.00  0.00    -0.251 C  
BRANCH   7   8
HETATM    8  N   UNL     1      -8.668  15.141  66.779  1.00  0.00    -0.260 NA 
HETATM    9  C   UNL     1      -7.382  15.445  67.205  1.00  0.00    -0.168 A  
HETATM   10  N   UNL     1      -7.097  16.710  66.968  1.00  0.00    -0.181 NA 
HETATM   11  C   UNL     1      -6.440  14.487  67.848  1.00  0.00    -0.175 C  
HETATM   12  C   UNL     1      -8.197  17.246  66.359  1.00  0.00    -0.282 A  
HETATM   13  C   UNL     1      -9.167  16.289  66.210  1.00  0.00    -0.328 A  
HETATM   14  N   UNL     1     -10.428  16.437  65.568  1.00  0.00    -0.362 N  
HETATM   15  O   UNL     1     -11.108  15.421  65.396  1.00  0.00    -0.343 OA 
HETATM   16  O   UNL     1     -10.727  17.576  65.193  1.00  0.00    -0.673 OA 
ENDBRANCH   7   8
ENDBRANCH   6   7
ENDBRANCH   3   6
ENDBRANCH   2   3
TORSDOF 4
ENDMDL
MODEL       84
REMARK 921   NORMALIZED FREE ENERGY PREDICTED BY IDOCK:   -3.83 KCAL/MOL
REMARK 922        TOTAL FREE ENERGY PREDICTED BY IDOCK:   -5.14 KCAL/MOL
REMARK 923 INTER-LIGAND FREE ENERGY PREDICTED BY IDOCK:   -4.94 KCAL/MOL
REMARK 924 INTRA-LIGAND FREE ENERGY PREDICTED BY IDOCK:   -0.20 KCAL/MOL
REMARK 927      BINDING AFFINITY PREDICTED BY RF-SCORE:    0.00 PKD
ROOT
HETATM    1  C   UNL     1     -11.841  10.477  70.528  1.00  0.00    -0.442 C  
HETATM    2  C   UNL     1     -11.720  11.548  69.461  1.00  0.00    -0.346 C  
ENDROOT
BRANCH   2   3
HETATM    3  S   UNL     1     -10.391  11.192  68.322  1.00  0.00    -0.189 S  
HETATM    4  O   UNL     1     -10.199   9.755  68.287  1.00  0.00    -0.167 OA 
HETATM    5  O   UNL     1      -9.287  12.085  68.611  1.00  0.00    -0.156 OA 
BRANCH   3   6
HETATM    6  C   UNL     1     -11.064  11.665  66.746  1.00  0.00    -0.309 C  
BRANCH   6   7
HETATM    7  C   UNL     1     -12.022  12.831  66.930  1.00  0.00    -0.310 C  
BRANCH   7   8
HETATM    8  N   UNL     1     -11.608  14.014  66.193  1.00  0.00    -0.353 NA 
HETATM    9  C   UNL     1     -11.566  14.114  64.808  1.00  0.00    -0.396 A  
HETATM   10  N   UNL     1     -11.064  15.276  64.438  1.00  0.00    -0.218 NA 
HETATM   11  C   UNL     1     -12.016  13.062  63.856  1.00  0.00    -0.551 C  
HETATM   12  C   UNL     1     -10.790  15.963  65.588  1.00  0.00    -0.284 A  
HETATM   13  C   UNL     1     -11.142  15.213  66.680  1.00  0.00    -0.308 A  
HETATM   14  N   UNL     1     -11.072  15.602  68.047  1.00  0.00    -0.325 N  
HETATM   15  O   UNL     1     -11.577  14.849  68.885  1.00  0.00    -0.284 OA 
HETATM   16  O   UNL     1     -10.543  16.694  68.285  1.00  0.00    -0.304 OA 
ENDBRANCH   7   8
ENDBRANCH   6   7
ENDBRANCH   3   6
ENDBRANCH   2   3
TORSDOF 4
ENDMDL
MODEL       85
REMARK 921   NORMALIZED FREE ENERGY PREDICTED BY IDOCK:   -3.83 KCAL/MOL
REMARK 922        TOTAL FREE ENERGY PREDICTED BY IDOCK:   -5.14 KCAL/MOL
REMARK 923 INTER-LIGAND FREE ENERGY PREDICTED BY IDOCK:   -4.85 KCAL/MOL
REMARK 924 INTRA-LIGAND FREE ENERGY PREDICTED BY IDOCK:   -0.29 KCAL/MOL
REMARK 927      BINDING AFFINITY PREDICTED BY RF-SCORE:    0.00 PKD
ROOT
HETATM    1  C   UNL     1      -9.795  10.245  64.681  1.00  0.00    -0.396 C  
HETATM    2  C   UNL     1     -10.091  10.611  66.122  1.00  0.00    -0.249 C  
ENDROOT
BRANCH   2   3
HETATM    3  S   UNL     1     -11.093  12.086  66.232  1.00  0.00    -0.329 S  
HETATM    4  O   UNL     1     -12.139  11.850  67.209  1.00  0.00    -0.582 OA 
HETATM    5  O   UNL     1     -11.414  12.523  64.887  1.00  0.00    -0.306 OA 
BRANCH   3   6
HETATM    6  C   UNL     1      -9.985  13.284  66.935  1.00  0.00    -0.250 C  
BRANCH   6   7
HETATM    7  C   UNL     1     -10.774  14.496  67.402  1.00  0.00    -0.282 C  
BRANCH   7   8
HETATM    8  N   UNL     1     -10.169  15.751  66.982  1.00  0.00    -0.274 NA 
HETATM    9  C   UNL     1     -10.331  16.334  65.733  1.00  0.00    -0.374 A  
HETATM   10  N   UNL     1      -9.588  17.417  65.621  1.00  0.00    -0.456 NA 
HETATM   11  C   UNL     1     -11.215  15.817  64.651  1.00  0.00    -0.373 C  
HETATM   12  C   UNL     1      -8.942  17.567  66.817  1.00  0.00    -0.256 A  
HETATM   13  C   UNL     1      -9.307  16.565  67.679  1.00  0.00    -0.212 A  
HETATM   14  N   UNL     1      -8.902  16.410  69.034  1.00  0.00    -0.257 N  
HETATM   15  O   UNL     1      -9.454  15.528  69.700  1.00  0.00    -0.273 OA 
HETATM   16  O   UNL     1      -8.052  17.203  69.452  1.00  0.00     0.018 OA 
ENDBRANCH   7   8
ENDBRANCH   6   7
ENDBRANCH   3   6
ENDBRANCH   2   3
TORSDOF 4
ENDMDL
MODEL       86
REMARK 921   NORMALIZED FREE ENERGY PREDICTED BY IDOCK:   -3.80 KCAL/MOL
REMARK 922        TOTAL FREE ENERGY PREDICTED BY IDOCK:   -5.10 KCAL/MOL
REMARK 923 INTER-LIGAND FREE ENERGY PREDICTED BY IDOCK:   -4.57 KCAL/MOL
REMARK 924 INTRA-LIGAND FREE ENERGY PREDICTED BY IDOCK:   -0.54 KCAL/MOL
REMARK 927      BINDING AFFINITY PREDICTED BY RF-SCORE:    0.00 PKD
ROOT
HETATM    1  C   UNL     1     -10.626   8.147  67.176  1.00  0.00    -0.355 C  
HETATM    2  C   UNL     1      -9.806   9.383  66.859  1.00  0.00    -0.201 C  
ENDROOT
BRANCH   2   3
HETATM    3  S   UNL     1     -10.548  10.857  67.543  1.00  0.00    -0.248 S  
HETATM    4  O   UNL     1     -11.363  11.472  66.514  1.00  0.00    -0.330 OA 
HETATM    5  O   UNL     1      -9.519  11.611  68.231  1.00  0.00    -0.181 OA 
BRANCH   3   6
HETATM    6  C   UNL     1     -11.660  10.221  68.776  1.00  0.00    -0.050 C  
BRANCH   6   7
HETATM    7  C   UNL     1     -11.114  10.527  70.161  1.00  0.00    -0.298 C  
BRANCH   7   8
HETATM    8  N   UNL     1     -11.156   9.371  71.044  1.00  0.00    -0.313 NA 
HETATM    9  C   UNL     1     -10.141   8.432  71.174  1.00  0.00    -0.196 A  
HETATM   10  N   UNL     1     -10.508   7.456  71.981  1.00  0.00    -0.196 NA 
HETATM   11  C   UNL     1      -8.816   8.499  70.499  1.00  0.00    -0.168 C  
HETATM   12  C   UNL     1     -11.770   7.760  72.408  1.00  0.00    -0.341 A  
HETATM   13  C   UNL     1     -12.178   8.951  71.863  1.00  0.00    -0.374 A  
HETATM   14  N   UNL     1     -13.400   9.635  72.113  1.00  0.00    -0.452 N  
HETATM   15  O   UNL     1     -13.527  10.772  71.647  1.00  0.00    -0.289 OA 
HETATM   16  O   UNL     1     -14.228   9.049  72.818  1.00  0.00    -0.572 OA 
ENDBRANCH   7   8
ENDBRANCH   6   7
ENDBRANCH   3   6
ENDBRANCH   2   3
TORSDOF 4
ENDMDL
MODEL       87
REMARK 921   NORMALIZED FREE ENERGY PREDICTED BY IDOCK:   -3.78 KCAL/MOL
REMARK 922        TOTAL FREE ENERGY PREDICTED BY IDOCK:   -5.08 KCAL/MOL
REMARK 923 INTER-LIGAND FREE ENERGY PREDICTED BY IDOCK:   -4.76 KCAL/MOL
REMARK 924 INTRA-LIGAND FREE ENERGY PREDICTED BY IDOCK:   -0.32 KCAL/MOL
REMARK 927      BINDING AFFINITY PREDICTED BY RF-SCORE:    0.00 PKD
ROOT
HETATM    1  C   UNL     1     -11.848   8.671  71.487  1.00  0.00    -0.366 C  
HETATM    2  C   UNL     1     -10.675   9.585  71.189  1.00  0.00    -0.338 C  
ENDROOT
BRANCH   2   3
HETATM    3  S   UNL     1      -9.979   9.255  69.578  1.00  0.00    -0.198 S  
HETATM    4  O   UNL     1     -10.869   8.350  68.877  1.00  0.00    -0.115 OA 
HETATM    5  O   UNL     1      -8.573   8.941  69.741  1.00  0.00    -0.123 OA 
BRANCH   3   6
HETATM    6  C   UNL     1     -10.084  10.827  68.756  1.00  0.00    -0.191 C  
BRANCH   6   7
HETATM    7  C   UNL     1     -11.513  11.069  68.298  1.00  0.00    -0.304 C  
BRANCH   7   8
HETATM    8  N   UNL     1     -11.731  12.435  67.849  1.00  0.00    -0.357 NA 
HETATM    9  C   UNL     1     -11.638  12.863  66.531  1.00  0.00    -0.371 A  
HETATM   10  N   UNL     1     -11.800  14.170  66.451  1.00  0.00    -0.405 NA 
HETATM   11  C   UNL     1     -11.384  11.984  65.357  1.00  0.00    -0.375 C  
HETATM   12  C   UNL     1     -12.024  14.610  67.725  1.00  0.00    -0.268 A  
HETATM   13  C   UNL     1     -12.012  13.554  68.599  1.00  0.00    -0.343 A  
HETATM   14  N   UNL     1     -12.269  13.593  69.998  1.00  0.00    -0.338 N  
HETATM   15  O   UNL     1     -12.363  12.516  70.595  1.00  0.00    -0.355 OA 
HETATM   16  O   UNL     1     -12.419  14.712  70.501  1.00  0.00    -0.312 OA 
ENDBRANCH   7   8
ENDBRANCH   6   7
ENDBRANCH   3   6
ENDBRANCH   2   3
TORSDOF 4
ENDMDL
MODEL       88
REMARK 921   NORMALIZED FREE ENERGY PREDICTED BY IDOCK:   -3.78 KCAL/MOL
REMARK 922        TOTAL FREE ENERGY PREDICTED BY IDOCK:   -5.07 KCAL/MOL
REMARK 923 INTER-LIGAND FREE ENERGY PREDICTED BY IDOCK:   -4.89 KCAL/MOL
REMARK 924 INTRA-LIGAND FREE ENERGY PREDICTED BY IDOCK:   -0.18 KCAL/MOL
REMARK 927      BINDING AFFINITY PREDICTED BY RF-SCORE:    0.00 PKD
ROOT
HETATM    1  C   UNL     1      -9.967   9.797  65.839  1.00  0.00    -0.345 C  
HETATM    2  C   UNL     1     -10.630   9.624  67.192  1.00  0.00    -0.228 C  
ENDROOT
BRANCH   2   3
HETATM    3  S   UNL     1      -9.496   9.970  68.528  1.00  0.00    -0.152 S  
HETATM    4  O   UNL     1      -8.804  11.207  68.224  1.00  0.00    -0.142 OA 
HETATM    5  O   UNL     1      -8.760   8.759  68.831  1.00  0.00    -0.131 OA 
BRANCH   3   6
HETATM    6  C   UNL     1     -10.571  10.300  69.904  1.00  0.00    -0.276 C  
BRANCH   6   7
HETATM    7  C   UNL     1     -11.780  11.089  69.428  1.00  0.00    -0.323 C  
BRANCH   7   8
HETATM    8  N   UNL     1     -12.343  11.932  70.472  1.00  0.00    -0.317 NA 
HETATM    9  C   UNL     1     -13.038  11.467  71.581  1.00  0.00    -0.373 A  
HETATM   10  N   UNL     1     -13.501  12.473  72.298  1.00  0.00    -0.509 NA 
HETATM   11  C   UNL     1     -13.249  10.034  71.926  1.00  0.00    -0.557 C  
HETATM   12  C   UNL     1     -13.089  13.616  71.672  1.00  0.00    -0.372 A  
HETATM   13  C   UNL     1     -12.352  13.305  70.559  1.00  0.00    -0.316 A  
HETATM   14  N   UNL     1     -11.697  14.213  69.681  1.00  0.00    -0.297 N  
HETATM   15  O   UNL     1     -10.952  13.741  68.816  1.00  0.00    -0.250 OA 
HETATM   16  O   UNL     1     -11.897  15.416  69.881  1.00  0.00    -0.304 OA 
ENDBRANCH   7   8
ENDBRANCH   6   7
ENDBRANCH   3   6
ENDBRANCH   2   3
TORSDOF 4
ENDMDL
MODEL       89
REMARK 921   NORMALIZED FREE ENERGY PREDICTED BY IDOCK:   -3.77 KCAL/MOL
REMARK 922        TOTAL FREE ENERGY PREDICTED BY IDOCK:   -5.07 KCAL/MOL
REMARK 923 INTER-LIGAND FREE ENERGY PREDICTED BY IDOCK:   -4.72 KCAL/MOL
REMARK 924 INTRA-LIGAND FREE ENERGY PREDICTED BY IDOCK:   -0.35 KCAL/MOL
REMARK 927      BINDING AFFINITY PREDICTED BY RF-SCORE:    0.00 PKD
ROOT
HETATM    1  C   UNL     1      -8.823  15.947  66.222  1.00  0.00    -0.386 C  
HETATM    2  C   UNL     1      -9.490  16.587  67.426  1.00  0.00    -0.228 C  
ENDROOT
BRANCH   2   3
HETATM    3  S   UNL     1     -10.276  15.366  68.466  1.00  0.00    -0.224 S  
HETATM    4  O   UNL     1     -11.712  15.513  68.330  1.00  0.00    -0.360 OA 
HETATM    5  O   UNL     1      -9.643  15.398  69.770  1.00  0.00    -0.266 OA 
BRANCH   3   6
HETATM    6  C   UNL     1      -9.836  13.826  67.695  1.00  0.00    -0.234 C  
BRANCH   6   7
HETATM    7  C   UNL     1     -11.087  13.148  67.160  1.00  0.00    -0.279 C  
BRANCH   7   8
HETATM    8  N   UNL     1     -10.814  11.829  66.610  1.00  0.00    -0.264 NA 
HETATM    9  C   UNL     1     -10.796  10.650  67.344  1.00  0.00    -0.296 A  
HETATM   10  N   UNL     1     -10.431   9.633  66.588  1.00  0.00    -0.197 NA 
HETATM   11  C   UNL     1     -11.134  10.531  68.789  1.00  0.00    -0.315 C  
HETATM   12  C   UNL     1     -10.225  10.139  65.334  1.00  0.00    -0.211 A  
HETATM   13  C   UNL     1     -10.481  11.486  65.321  1.00  0.00    -0.283 A  
HETATM   14  N   UNL     1     -10.443  12.355  64.195  1.00  0.00    -0.361 N  
HETATM   15  O   UNL     1     -10.853  13.511  64.348  1.00  0.00    -0.392 OA 
HETATM   16  O   UNL     1     -10.037  11.869  63.134  1.00  0.00    -0.425 OA 
ENDBRANCH   7   8
ENDBRANCH   6   7
ENDBRANCH   3   6
ENDBRANCH   2   3
TORSDOF 4
ENDMDL
MODEL       90
REMARK 921   NORMALIZED FREE ENERGY PREDICTED BY IDOCK:   -3.77 KCAL/MOL
REMARK 922        TOTAL FREE ENERGY PREDICTED BY IDOCK:   -5.06 KCAL/MOL
REMARK 923 INTER-LIGAND FREE ENERGY PREDICTED BY IDOCK:   -4.77 KCAL/MOL
REMARK 924 INTRA-LIGAND FREE ENERGY PREDICTED BY IDOCK:   -0.29 KCAL/MOL
REMARK 927      BINDING AFFINITY PREDICTED BY RF-SCORE:    0.00 PKD
ROOT
HETATM    1  C   UNL     1      -8.491  11.943  67.234  1.00  0.00    -0.172 C  
HETATM    2  C   UNL     1      -9.357  10.772  67.657  1.00  0.00    -0.147 C  
ENDROOT
BRANCH   2   3
HETATM    3  S   UNL     1     -10.826  11.317  68.515  1.00  0.00    -0.223 S  
HETATM    4  O   UNL     1     -10.770  10.812  69.873  1.00  0.00    -0.236 OA 
HETATM    5  O   UNL     1     -11.974  11.058  67.668  1.00  0.00    -0.583 OA 
BRANCH   3   6
HETATM    6  C   UNL     1     -10.616  13.080  68.607  1.00  0.00    -0.236 C  
BRANCH   6   7
HETATM    7  C   UNL     1     -11.961  13.740  68.862  1.00  0.00    -0.359 C  
BRANCH   7   8
HETATM    8  N   UNL     1     -11.890  14.774  69.884  1.00  0.00    -0.297 NA 
HETATM    9  C   UNL     1     -11.325  16.030  69.706  1.00  0.00    -0.331 A  
HETATM   10  N   UNL     1     -11.329  16.709  70.836  1.00  0.00    -0.071 NA 
HETATM   11  C   UNL     1     -10.779  16.553  68.423  1.00  0.00    -0.339 C  
HETATM   12  C   UNL     1     -11.921  15.904  71.769  1.00  0.00    -0.494 A  
HETATM   13  C   UNL     1     -12.298  14.717  71.196  1.00  0.00    -0.335 A  
HETATM   14  N   UNL     1     -13.000  13.648  71.819  1.00  0.00    -0.354 N  
HETATM   15  O   UNL     1     -13.386  12.719  71.103  1.00  0.00    -0.060 OA 
HETATM   16  O   UNL     1     -13.204  13.754  73.034  1.00  0.00    -0.534 OA 
ENDBRANCH   7   8
ENDBRANCH   6   7
ENDBRANCH   3   6
ENDBRANCH   2   3
TORSDOF 4
ENDMDL
MODEL       91
REMARK 921   NORMALIZED FREE ENERGY PREDICTED BY IDOCK:   -3.76 KCAL/MOL
REMARK 922        TOTAL FREE ENERGY PREDICTED BY IDOCK:   -5.05 KCAL/MOL
REMARK 923 INTER-LIGAND FREE ENERGY PREDICTED BY IDOCK:   -4.74 KCAL/MOL
REMARK 924 INTRA-LIGAND FREE ENERGY PREDICTED BY IDOCK:   -0.31 KCAL/MOL
REMARK 927      BINDING AFFINITY PREDICTED BY RF-SCORE:    0.00 PKD
ROOT
HETATM    1  C   UNL     1      -9.668  19.813  68.264  1.00  0.00    -0.499 C  
HETATM    2  C   UNL     1     -10.421  18.573  67.822  1.00  0.00    -0.408 C  
ENDROOT
BRANCH   2   3
HETATM    3  S   UNL     1     -10.020  18.126  66.140  1.00  0.00    -0.248 S  
HETATM    4  O   UNL     1      -8.576  18.094  66.014  1.00  0.00    -0.496 OA 
HETATM    5  O   UNL     1     -10.830  18.929  65.247  1.00  0.00    -0.559 OA 
BRANCH   3   6
HETATM    6  C   UNL     1     -10.590  16.447  66.015  1.00  0.00    -0.269 C  
BRANCH   6   7
HETATM    7  C   UNL     1     -10.888  15.904  67.403  1.00  0.00    -0.291 C  
BRANCH   7   8
HETATM    8  N   UNL     1     -10.475  14.518  67.560  1.00  0.00    -0.252 NA 
HETATM    9  C   UNL     1     -11.190  13.419  67.104  1.00  0.00    -0.302 A  
HETATM   10  N   UNL     1     -10.608  12.295  67.474  1.00  0.00    -0.215 NA 
HETATM   11  C   UNL     1     -12.447  13.481  66.308  1.00  0.00    -0.384 C  
HETATM   12  C   UNL     1      -9.484  12.652  68.165  1.00  0.00    -0.218 A  
HETATM   13  C   UNL     1      -9.369  14.017  68.207  1.00  0.00    -0.208 A  
HETATM   14  N   UNL     1      -8.307  14.773  68.777  1.00  0.00    -0.164 N  
HETATM   15  O   UNL     1      -8.302  15.993  68.585  1.00  0.00    -0.179 OA 
HETATM   16  O   UNL     1      -7.442  14.136  69.390  1.00  0.00    -0.050 OA 
ENDBRANCH   7   8
ENDBRANCH   6   7
ENDBRANCH   3   6
ENDBRANCH   2   3
TORSDOF 4
ENDMDL
MODEL       92
REMARK 921   NORMALIZED FREE ENERGY PREDICTED BY IDOCK:   -3.74 KCAL/MOL
REMARK 922        TOTAL FREE ENERGY PREDICTED BY IDOCK:   -5.03 KCAL/MOL
REMARK 923 INTER-LIGAND FREE ENERGY PREDICTED BY IDOCK:   -4.70 KCAL/MOL
REMARK 924 INTRA-LIGAND FREE ENERGY PREDICTED BY IDOCK:   -0.33 KCAL/MOL
REMARK 927      BINDING AFFINITY PREDICTED BY RF-SCORE:    0.00 PKD
ROOT
HETATM    1  C   UNL     1     -10.760   7.621  67.978  1.00  0.00    -0.152 C  
HETATM    2  C   UNL     1     -10.589   7.904  69.459  1.00  0.00    -0.219 C  
ENDROOT
BRANCH   2   3
HETATM    3  S   UNL     1     -10.367   9.649  69.772  1.00  0.00    -0.260 S  
HETATM    4  O   UNL     1      -8.956   9.955  69.641  1.00  0.00    -0.190 OA 
HETATM    5  O   UNL     1     -11.097   9.995  70.975  1.00  0.00    -0.343 OA 
BRANCH   3   6
HETATM    6  C   UNL     1     -11.196  10.421  68.402  1.00  0.00    -0.258 C  
BRANCH   6   7
HETATM    7  C   UNL     1     -10.299  11.490  67.801  1.00  0.00    -0.182 C  
BRANCH   7   8
HETATM    8  N   UNL     1     -11.024  12.398  66.926  1.00  0.00    -0.255 NA 
HETATM    9  C   UNL     1     -11.652  13.567  67.337  1.00  0.00    -0.356 A  
HETATM   10  N   UNL     1     -12.301  14.128  66.335  1.00  0.00    -0.454 NA 
HETATM   11  C   UNL     1     -11.615  14.123  68.718  1.00  0.00    -0.362 C  
HETATM   12  C   UNL     1     -12.083  13.335  65.243  1.00  0.00    -0.418 A  
HETATM   13  C   UNL     1     -11.277  12.278  65.579  1.00  0.00    -0.332 A  
HETATM   14  N   UNL     1     -10.773  11.272  64.709  1.00  0.00    -0.305 N  
HETATM   15  O   UNL     1      -9.937  10.485  65.164  1.00  0.00    -0.267 OA 
HETATM   16  O   UNL     1     -11.186  11.291  63.544  1.00  0.00    -0.344 OA 
ENDBRANCH   7   8
ENDBRANCH   6   7
ENDBRANCH   3   6
ENDBRANCH   2   3
TORSDOF 4
ENDMDL
MODEL       93
REMARK 921   NORMALIZED FREE ENERGY PREDICTED BY IDOCK:   -3.72 KCAL/MOL
REMARK 922        TOTAL FREE ENERGY PREDICTED BY IDOCK:   -5.01 KCAL/MOL
REMARK 923 INTER-LIGAND FREE ENERGY PREDICTED BY IDOCK:   -4.74 KCAL/MOL
REMARK 924 INTRA-LIGAND FREE ENERGY PREDICTED BY IDOCK:   -0.27 KCAL/MOL
REMARK 927      BINDING AFFINITY PREDICTED BY RF-SCORE:    0.00 PKD
ROOT
HETATM    1  C   UNL     1      -9.024   9.358  64.560  1.00  0.00    -0.227 C  
HETATM    2  C   UNL     1      -9.886   9.698  65.760  1.00  0.00    -0.302 C  
ENDROOT
BRANCH   2   3
HETATM    3  S   UNL     1     -10.117  11.462  65.923  1.00  0.00    -0.254 S  
HETATM    4  O   UNL     1     -10.728  11.952  64.703  1.00  0.00    -0.280 OA 
HETATM    5  O   UNL     1      -8.888  12.040  66.428  1.00  0.00    -0.192 OA 
BRANCH   3   6
HETATM    6  C   UNL     1     -11.339  11.598  67.207  1.00  0.00    -0.305 C  
BRANCH   6   7
HETATM    7  C   UNL     1     -10.679  12.076  68.490  1.00  0.00    -0.234 C  
BRANCH   7   8
HETATM    8  N   UNL     1     -11.484  13.058  69.199  1.00  0.00    -0.284 NA 
HETATM    9  C   UNL     1     -11.566  14.405  68.871  1.00  0.00    -0.306 A  
HETATM   10  N   UNL     1     -12.303  15.057  69.750  1.00  0.00    -0.274 NA 
HETATM   11  C   UNL     1     -10.915  15.045  67.695  1.00  0.00    -0.305 C  
HETATM   12  C   UNL     1     -12.731  14.130  70.658  1.00  0.00    -0.321 A  
HETATM   13  C   UNL     1     -12.259  12.887  70.322  1.00  0.00    -0.289 A  
HETATM   14  N   UNL     1     -12.536  11.657  70.981  1.00  0.00    -0.372 N  
HETATM   15  O   UNL     1     -12.144  10.616  70.443  1.00  0.00    -0.285 OA 
HETATM   16  O   UNL     1     -13.190  11.725  72.028  1.00  0.00    -0.506 OA 
ENDBRANCH   7   8
ENDBRANCH   6   7
ENDBRANCH   3   6
ENDBRANCH   2   3
TORSDOF 4
ENDMDL
MODEL       94
REMARK 921   NORMALIZED FREE ENERGY PREDICTED BY IDOCK:   -3.72 KCAL/MOL
REMARK 922        TOTAL FREE ENERGY PREDICTED BY IDOCK:   -5.01 KCAL/MOL
REMARK 923 INTER-LIGAND FREE ENERGY PREDICTED BY IDOCK:   -4.75 KCAL/MOL
REMARK 924 INTRA-LIGAND FREE ENERGY PREDICTED BY IDOCK:   -0.26 KCAL/MOL
REMARK 927      BINDING AFFINITY PREDICTED BY RF-SCORE:    0.00 PKD
ROOT
HETATM    1  C   UNL     1      -9.985   9.603  66.135  1.00  0.00    -0.346 C  
HETATM    2  C   UNL     1      -9.612  11.049  66.401  1.00  0.00    -0.198 C  
ENDROOT
BRANCH   2   3
HETATM    3  S   UNL     1     -10.826  11.861  67.430  1.00  0.00    -0.257 S  
HETATM    4  O   UNL     1     -11.925  12.282  66.584  1.00  0.00    -0.598 OA 
HETATM    5  O   UNL     1     -10.140  12.805  68.289  1.00  0.00    -0.229 OA 
BRANCH   3   6
HETATM    6  C   UNL     1     -11.437  10.546  68.459  1.00  0.00    -0.215 C  
BRANCH   6   7
HETATM    7  C   UNL     1     -10.709  10.564  69.793  1.00  0.00    -0.264 C  
BRANCH   7   8
HETATM    8  N   UNL     1     -11.236   9.582  70.728  1.00  0.00    -0.289 NA 
HETATM    9  C   UNL     1     -12.279   9.809  71.616  1.00  0.00    -0.404 A  
HETATM   10  N   UNL     1     -12.469   8.760  72.394  1.00  0.00    -0.376 NA 
HETATM   11  C   UNL     1     -13.081  11.060  71.699  1.00  0.00    -0.543 C  
HETATM   12  C   UNL     1     -11.556   7.820  72.003  1.00  0.00    -0.300 A  
HETATM   13  C   UNL     1     -10.804   8.296  70.961  1.00  0.00    -0.233 A  
HETATM   14  N   UNL     1      -9.798   7.597  70.238  1.00  0.00    -0.180 N  
HETATM   15  O   UNL     1      -9.333   8.138  69.230  1.00  0.00    -0.151 OA 
HETATM   16  O   UNL     1      -9.496   6.474  70.657  1.00  0.00    -0.165 OA 
ENDBRANCH   7   8
ENDBRANCH   6   7
ENDBRANCH   3   6
ENDBRANCH   2   3
TORSDOF 4
ENDMDL
MODEL       95
REMARK 921   NORMALIZED FREE ENERGY PREDICTED BY IDOCK:   -3.72 KCAL/MOL
REMARK 922        TOTAL FREE ENERGY PREDICTED BY IDOCK:   -5.01 KCAL/MOL
REMARK 923 INTER-LIGAND FREE ENERGY PREDICTED BY IDOCK:   -4.79 KCAL/MOL
REMARK 924 INTRA-LIGAND FREE ENERGY PREDICTED BY IDOCK:   -0.22 KCAL/MOL
REMARK 927      BINDING AFFINITY PREDICTED BY RF-SCORE:    0.00 PKD
ROOT
HETATM    1  C   UNL     1     -14.141   7.443  71.664  1.00  0.00    -0.552 C  
HETATM    2  C   UNL     1     -12.692   7.682  71.285  1.00  0.00    -0.275 C  
ENDROOT
BRANCH   2   3
HETATM    3  S   UNL     1     -12.210   9.378  71.572  1.00  0.00    -0.393 S  
HETATM    4  O   UNL     1     -10.798   9.396  71.900  1.00  0.00    -0.310 OA 
HETATM    5  O   UNL     1     -13.188   9.990  72.449  1.00  0.00    -0.364 OA 
BRANCH   3   6
HETATM    6  C   UNL     1     -12.382  10.130  69.971  1.00  0.00    -0.009 C  
BRANCH   6   7
HETATM    7  C   UNL     1     -11.070  10.787  69.573  1.00  0.00    -0.278 C  
BRANCH   7   8
HETATM    8  N   UNL     1     -10.951  10.969  68.135  1.00  0.00    -0.226 NA 
HETATM    9  C   UNL     1     -10.477  10.011  67.249  1.00  0.00    -0.254 A  
HETATM   10  N   UNL     1     -10.403  10.500  66.026  1.00  0.00    -0.237 NA 
HETATM   11  C   UNL     1     -10.095   8.619  67.611  1.00  0.00    -0.271 C  
HETATM   12  C   UNL     1     -10.852  11.789  66.098  1.00  0.00    -0.291 A  
HETATM   13  C   UNL     1     -11.220  12.090  67.384  1.00  0.00    -0.307 A  
HETATM   14  N   UNL     1     -11.795  13.305  67.851  1.00  0.00    -0.352 N  
HETATM   15  O   UNL     1     -12.201  13.337  69.017  1.00  0.00    -0.277 OA 
HETATM   16  O   UNL     1     -11.879  14.227  67.032  1.00  0.00    -0.394 OA 
ENDBRANCH   7   8
ENDBRANCH   6   7
ENDBRANCH   3   6
ENDBRANCH   2   3
TORSDOF 4
ENDMDL
MODEL       96
REMARK 921   NORMALIZED FREE ENERGY PREDICTED BY IDOCK:   -3.68 KCAL/MOL
REMARK 922        TOTAL FREE ENERGY PREDICTED BY IDOCK:   -4.95 KCAL/MOL
REMARK 923 INTER-LIGAND FREE ENERGY PREDICTED BY IDOCK:   -4.62 KCAL/MOL
REMARK 924 INTRA-LIGAND FREE ENERGY PREDICTED BY IDOCK:   -0.32 KCAL/MOL
REMARK 927      BINDING AFFINITY PREDICTED BY RF-SCORE:    0.00 PKD
ROOT
HETATM    1  C   UNL     1     -10.971   6.510  69.138  1.00  0.00    -0.380 C  
HETATM    2  C   UNL     1     -10.688   7.998  69.210  1.00  0.00    -0.129 C  
ENDROOT
BRANCH   2   3
HETATM    3  S   UNL     1     -10.163   8.643  67.629  1.00  0.00    -0.254 S  
HETATM    4  O   UNL     1     -10.733   7.810  66.589  1.00  0.00    -0.231 OA 
HETATM    5  O   UNL     1      -8.736   8.893  67.687  1.00  0.00    -0.124 OA 
BRANCH   3   6
HETATM    6  C   UNL     1     -10.979  10.220  67.538  1.00  0.00    -0.280 C  
BRANCH   6   7
HETATM    7  C   UNL     1     -10.375  11.041  66.411  1.00  0.00    -0.250 C  
BRANCH   7   8
HETATM    8  N   UNL     1     -10.459  12.473  66.658  1.00  0.00    -0.232 NA 
HETATM    9  C   UNL     1      -9.535  13.210  67.387  1.00  0.00    -0.214 A  
HETATM   10  N   UNL     1      -9.929  14.462  67.513  1.00  0.00    -0.223 NA 
HETATM   11  C   UNL     1      -8.269  12.676  67.960  1.00  0.00    -0.167 C  
HETATM   12  C   UNL     1     -11.117  14.562  66.843  1.00  0.00    -0.325 A  
HETATM   13  C   UNL     1     -11.448  13.353  66.286  1.00  0.00    -0.325 A  
HETATM   14  N   UNL     1     -12.572  13.067  65.463  1.00  0.00    -0.445 N  
HETATM   15  O   UNL     1     -12.624  11.955  64.928  1.00  0.00    -0.305 OA 
HETATM   16  O   UNL     1     -13.395  13.977  65.313  1.00  0.00    -0.741 OA 
ENDBRANCH   7   8
ENDBRANCH   6   7
ENDBRANCH   3   6
ENDBRANCH   2   3
TORSDOF 4
ENDMDL
MODEL       97
REMARK 921   NORMALIZED FREE ENERGY PREDICTED BY IDOCK:   -3.66 KCAL/MOL
REMARK 922        TOTAL FREE ENERGY PREDICTED BY IDOCK:   -4.93 KCAL/MOL
REMARK 923 INTER-LIGAND FREE ENERGY PREDICTED BY IDOCK:   -4.61 KCAL/MOL
REMARK 924 INTRA-LIGAND FREE ENERGY PREDICTED BY IDOCK:   -0.32 KCAL/MOL
REMARK 927      BINDING AFFINITY PREDICTED BY RF-SCORE:    0.00 PKD
ROOT
HETATM    1  C   UNL     1      -7.162  10.122  67.947  1.00  0.00    -0.086 C  
HETATM    2  C   UNL     1      -8.398  10.518  68.732  1.00  0.00    -0.136 C  
ENDROOT
BRANCH   2   3
HETATM    3  S   UNL     1      -9.574  11.389  67.709  1.00  0.00    -0.176 S  
HETATM    4  O   UNL     1     -10.674  10.490  67.418  1.00  0.00    -0.244 OA 
HETATM    5  O   UNL     1      -8.851  12.053  66.642  1.00  0.00    -0.198 OA 
BRANCH   3   6
HETATM    6  C   UNL     1     -10.206  12.649  68.792  1.00  0.00    -0.079 C  
BRANCH   6   7
HETATM    7  C   UNL     1     -11.725  12.615  68.782  1.00  0.00    -0.323 C  
BRANCH   7   8
HETATM    8  N   UNL     1     -12.292  12.640  70.121  1.00  0.00    -0.208 NA 
HETATM    9  C   UNL     1     -12.501  11.521  70.917  1.00  0.00    -0.366 A  
HETATM   10  N   UNL     1     -13.111  11.851  72.039  1.00  0.00    -0.424 NA 
HETATM   11  C   UNL     1     -12.102  10.130  70.567  1.00  0.00    -0.380 C  
HETATM   12  C   UNL     1     -13.290  13.206  71.997  1.00  0.00    -0.493 A  
HETATM   13  C   UNL     1     -12.769  13.715  70.835  1.00  0.00    -0.310 A  
HETATM   14  N   UNL     1     -12.702  15.083  70.451  1.00  0.00    -0.344 N  
HETATM   15  O   UNL     1     -12.060  15.364  69.434  1.00  0.00    -0.325 OA 
HETATM   16  O   UNL     1     -13.264  15.894  71.195  1.00  0.00    -0.518 OA 
ENDBRANCH   7   8
ENDBRANCH   6   7
ENDBRANCH   3   6
ENDBRANCH   2   3
TORSDOF 4
ENDMDL
MODEL       98
REMARK 921   NORMALIZED FREE ENERGY PREDICTED BY IDOCK:   -3.65 KCAL/MOL
REMARK 922        TOTAL FREE ENERGY PREDICTED BY IDOCK:   -4.92 KCAL/MOL
REMARK 923 INTER-LIGAND FREE ENERGY PREDICTED BY IDOCK:   -4.33 KCAL/MOL
REMARK 924 INTRA-LIGAND FREE ENERGY PREDICTED BY IDOCK:   -0.59 KCAL/MOL
REMARK 927      BINDING AFFINITY PREDICTED BY RF-SCORE:    0.00 PKD
ROOT
HETATM    1  C   UNL     1      -7.855  11.633  66.805  1.00  0.00    -0.130 C  
HETATM    2  C   UNL     1      -8.212  10.202  66.451  1.00  0.00    -0.122 C  
ENDROOT
BRANCH   2   3
HETATM    3  S   UNL     1      -9.304   9.479  67.665  1.00  0.00    -0.123 S  
HETATM    4  O   UNL     1      -8.504   8.687  68.579  1.00  0.00    -0.128 OA 
HETATM    5  O   UNL     1     -10.440   8.901  66.974  1.00  0.00    -0.274 OA 
BRANCH   3   6
HETATM    6  C   UNL     1      -9.893  10.887  68.577  1.00  0.00    -0.184 C  
BRANCH   6   7
HETATM    7  C   UNL     1     -11.361  11.121  68.260  1.00  0.00    -0.297 C  
BRANCH   7   8
HETATM    8  N   UNL     1     -11.606  12.440  67.699  1.00  0.00    -0.338 NA 
HETATM    9  C   UNL     1     -11.592  12.743  66.343  1.00  0.00    -0.378 A  
HETATM   10  N   UNL     1     -11.759  14.037  66.151  1.00  0.00    -0.367 NA 
HETATM   11  C   UNL     1     -11.408  11.756  65.244  1.00  0.00    -0.284 C  
HETATM   12  C   UNL     1     -11.907  14.596  67.389  1.00  0.00    -0.348 A  
HETATM   13  C   UNL     1     -11.843  13.625  68.356  1.00  0.00    -0.372 A  
HETATM   14  N   UNL     1     -12.016  13.797  69.757  1.00  0.00    -0.325 N  
HETATM   15  O   UNL     1     -12.074  12.781  70.458  1.00  0.00    -0.367 OA 
HETATM   16  O   UNL     1     -12.136  14.959  70.162  1.00  0.00    -0.289 OA 
ENDBRANCH   7   8
ENDBRANCH   6   7
ENDBRANCH   3   6
ENDBRANCH   2   3
TORSDOF 4
ENDMDL
MODEL       99
REMARK 921   NORMALIZED FREE ENERGY PREDICTED BY IDOCK:   -3.65 KCAL/MOL
REMARK 922        TOTAL FREE ENERGY PREDICTED BY IDOCK:   -4.91 KCAL/MOL
REMARK 923 INTER-LIGAND FREE ENERGY PREDICTED BY IDOCK:   -4.68 KCAL/MOL
REMARK 924 INTRA-LIGAND FREE ENERGY PREDICTED BY IDOCK:   -0.23 KCAL/MOL
REMARK 927      BINDING AFFINITY PREDICTED BY RF-SCORE:    0.00 PKD
ROOT
HETATM    1  C   UNL     1     -11.835  15.758  71.010  1.00  0.00    -0.460 C  
HETATM    2  C   UNL     1     -11.928  15.252  69.583  1.00  0.00    -0.338 C  
ENDROOT
BRANCH   2   3
HETATM    3  S   UNL     1     -10.514  15.754  68.615  1.00  0.00    -0.242 S  
HETATM    4  O   UNL     1      -9.480  16.206  69.525  1.00  0.00    -0.231 OA 
HETATM    5  O   UNL     1     -10.977  16.600  67.532  1.00  0.00    -0.266 OA 
BRANCH   3   6
HETATM    6  C   UNL     1      -9.946  14.231  67.897  1.00  0.00    -0.230 C  
BRANCH   6   7
HETATM    7  C   UNL     1     -11.068  13.596  67.093  1.00  0.00    -0.297 C  
BRANCH   7   8
HETATM    8  N   UNL     1     -10.824  12.191  66.808  1.00  0.00    -0.238 NA 
HETATM    9  C   UNL     1     -10.899  11.165  67.741  1.00  0.00    -0.239 A  
HETATM   10  N   UNL     1     -10.537  10.016  67.205  1.00  0.00    -0.244 NA 
HETATM   11  C   UNL     1     -11.321  11.323  69.160  1.00  0.00    -0.349 C  
HETATM   12  C   UNL     1     -10.241  10.278  65.896  1.00  0.00    -0.223 A  
HETATM   13  C   UNL     1     -10.437  11.607  65.624  1.00  0.00    -0.268 A  
HETATM   14  N   UNL     1     -10.298  12.255  64.365  1.00  0.00    -0.314 N  
HETATM   15  O   UNL     1     -10.664  13.432  64.282  1.00  0.00    -0.407 OA 
HETATM   16  O   UNL     1      -9.856  11.570  63.436  1.00  0.00    -0.335 OA 
ENDBRANCH   7   8
ENDBRANCH   6   7
ENDBRANCH   3   6
ENDBRANCH   2   3
TORSDOF 4
ENDMDL
MODEL      100
REMARK 921   NORMALIZED FREE ENERGY PREDICTED BY IDOCK:   -3.64 KCAL/MOL
REMARK 922        TOTAL FREE ENERGY PREDICTED BY IDOCK:   -4.90 KCAL/MOL
REMARK 923 INTER-LIGAND FREE ENERGY PREDICTED BY IDOCK:   -4.55 KCAL/MOL
REMARK 924 INTRA-LIGAND FREE ENERGY PREDICTED BY IDOCK:   -0.35 KCAL/MOL
REMARK 927      BINDING AFFINITY PREDICTED BY RF-SCORE:    0.00 PKD
ROOT
HETATM    1  C   UNL     1      -8.327   8.518  70.353  1.00  0.00    -0.124 C  
HETATM    2  C   UNL     1      -9.821   8.524  70.091  1.00  0.00    -0.178 C  
ENDROOT
BRANCH   2   3
HETATM    3  S   UNL     1     -10.342  10.039  69.301  1.00  0.00    -0.235 S  
HETATM    4  O   UNL     1     -11.152   9.693  68.150  1.00  0.00    -0.176 OA 
HETATM    5  O   UNL     1      -9.189  10.907  69.168  1.00  0.00    -0.157 OA 
BRANCH   3   6
HETATM    6  C   UNL     1     -11.429  10.774  70.500  1.00  0.00    -0.275 C  
BRANCH   6   7
HETATM    7  C   UNL     1     -12.397  11.715  69.801  1.00  0.00    -0.133 C  
BRANCH   7   8
HETATM    8  N   UNL     1     -12.095  13.115  70.056  1.00  0.00    -0.326 NA 
HETATM    9  C   UNL     1     -11.414  13.954  69.183  1.00  0.00    -0.299 A  
HETATM   10  N   UNL     1     -11.214  15.137  69.730  1.00  0.00    -0.262 NA 
HETATM   11  C   UNL     1     -10.958  13.584  67.815  1.00  0.00    -0.284 C  
HETATM   12  C   UNL     1     -11.787  15.090  70.971  1.00  0.00    -0.323 A  
HETATM   13  C   UNL     1     -12.359  13.861  71.181  1.00  0.00    -0.359 A  
HETATM   14  N   UNL     1     -13.103  13.444  72.319  1.00  0.00    -0.395 N  
HETATM   15  O   UNL     1     -13.671  12.349  72.264  1.00  0.00    -0.441 OA 
HETATM   16  O   UNL     1     -13.157  14.237  73.265  1.00  0.00    -0.583 OA 
ENDBRANCH   7   8
ENDBRANCH   6   7
ENDBRANCH   3   6
ENDBRANCH   2   3
TORSDOF 4
ENDMDL
MODEL      101
REMARK 921   NORMALIZED FREE ENERGY PREDICTED BY IDOCK:   -3.63 KCAL/MOL
REMARK 922        TOTAL FREE ENERGY PREDICTED BY IDOCK:   -4.89 KCAL/MOL
REMARK 923 INTER-LIGAND FREE ENERGY PREDICTED BY IDOCK:   -4.49 KCAL/MOL
REMARK 924 INTRA-LIGAND FREE ENERGY PREDICTED BY IDOCK:   -0.39 KCAL/MOL
REMARK 927      BINDING AFFINITY PREDICTED BY RF-SCORE:    0.00 PKD
ROOT
HETATM    1  C   UNL     1      -8.981   8.176  72.642  1.00  0.00    -0.299 C  
HETATM    2  C   UNL     1      -9.729   7.375  71.593  1.00  0.00    -0.154 C  
ENDROOT
BRANCH   2   3
HETATM    3  S   UNL     1      -9.486   8.050  69.957  1.00  0.00    -0.159 S  
HETATM    4  O   UNL     1     -10.480   7.467  69.076  1.00  0.00    -0.207 OA 
HETATM    5  O   UNL     1      -8.074   7.982  69.638  1.00  0.00    -0.114 OA 
BRANCH   3   6
HETATM    6  C   UNL     1      -9.909   9.765  70.154  1.00  0.00    -0.255 C  
BRANCH   6   7
HETATM    7  C   UNL     1     -11.302  10.013  69.601  1.00  0.00    -0.202 C  
BRANCH   7   8
HETATM    8  N   UNL     1     -12.077  10.925  70.429  1.00  0.00    -0.332 NA 
HETATM    9  C   UNL     1     -12.053  12.309  70.324  1.00  0.00    -0.295 A  
HETATM   10  N   UNL     1     -12.789  12.863  71.268  1.00  0.00    -0.329 NA 
HETATM   11  C   UNL     1     -11.302  13.081  69.297  1.00  0.00    -0.310 C  
HETATM   12  C   UNL     1     -13.324  11.835  71.994  1.00  0.00    -0.312 A  
HETATM   13  C   UNL     1     -12.918  10.631  71.477  1.00  0.00    -0.461 A  
HETATM   14  N   UNL     1     -13.309   9.334  71.912  1.00  0.00    -0.399 N  
HETATM   15  O   UNL     1     -12.959   8.369  71.226  1.00  0.00    -0.266 OA 
HETATM   16  O   UNL     1     -14.010   9.280  72.928  1.00  0.00    -0.398 OA 
ENDBRANCH   7   8
ENDBRANCH   6   7
ENDBRANCH   3   6
ENDBRANCH   2   3
TORSDOF 4
ENDMDL
MODEL      102
REMARK 921   NORMALIZED FREE ENERGY PREDICTED BY IDOCK:   -3.62 KCAL/MOL
REMARK 922        TOTAL FREE ENERGY PREDICTED BY IDOCK:   -4.88 KCAL/MOL
REMARK 923 INTER-LIGAND FREE ENERGY PREDICTED BY IDOCK:   -4.57 KCAL/MOL
REMARK 924 INTRA-LIGAND FREE ENERGY PREDICTED BY IDOCK:   -0.31 KCAL/MOL
REMARK 927      BINDING AFFINITY PREDICTED BY RF-SCORE:    0.00 PKD
ROOT
HETATM    1  C   UNL     1     -10.756  19.484  67.123  1.00  0.00    -0.599 C  
HETATM    2  C   UNL     1      -9.314  19.737  67.518  1.00  0.00    -0.340 C  
ENDROOT
BRANCH   2   3
HETATM    3  S   UNL     1      -8.247  18.403  66.998  1.00  0.00    -0.253 S  
HETATM    4  O   UNL     1      -7.416  18.024  68.124  1.00  0.00    -0.233 OA 
HETATM    5  O   UNL     1      -7.658  18.757  65.722  1.00  0.00    -0.468 OA 
BRANCH   3   6
HETATM    6  C   UNL     1      -9.377  17.061  66.712  1.00  0.00    -0.252 C  
BRANCH   6   7
HETATM    7  C   UNL     1      -9.440  16.176  67.946  1.00  0.00    -0.214 C  
BRANCH   7   8
HETATM    8  N   UNL     1      -9.216  14.772  67.636  1.00  0.00    -0.188 NA 
HETATM    9  C   UNL     1      -7.969  14.181  67.479  1.00  0.00    -0.188 A  
HETATM   10  N   UNL     1      -8.091  12.920  67.115  1.00  0.00    -0.154 NA 
HETATM   11  C   UNL     1      -6.662  14.864  67.684  1.00  0.00    -0.200 C  
HETATM   12  C   UNL     1      -9.433  12.664  67.051  1.00  0.00    -0.220 A  
HETATM   13  C   UNL     1     -10.144  13.785  67.394  1.00  0.00    -0.244 A  
HETATM   14  N   UNL     1     -11.557  13.904  67.509  1.00  0.00    -0.339 N  
HETATM   15  O   UNL     1     -12.009  14.954  67.978  1.00  0.00    -0.306 OA 
HETATM   16  O   UNL     1     -12.224  12.922  67.165  1.00  0.00    -0.368 OA 
ENDBRANCH   7   8
ENDBRANCH   6   7
ENDBRANCH   3   6
ENDBRANCH   2   3
TORSDOF 4
ENDMDL
MODEL      103
REMARK 921   NORMALIZED FREE ENERGY PREDICTED BY IDOCK:   -3.62 KCAL/MOL
REMARK 922        TOTAL FREE ENERGY PREDICTED BY IDOCK:   -4.88 KCAL/MOL
REMARK 923 INTER-LIGAND FREE ENERGY PREDICTED BY IDOCK:   -4.69 KCAL/MOL
REMARK 924 INTRA-LIGAND FREE ENERGY PREDICTED BY IDOCK:   -0.19 KCAL/MOL
REMARK 927      BINDING AFFINITY PREDICTED BY RF-SCORE:    0.00 PKD
ROOT
HETATM    1  C   UNL     1     -10.485  17.136  66.809  1.00  0.00    -0.263 C  
HETATM    2  C   UNL     1     -11.001  16.720  68.173  1.00  0.00    -0.309 C  
ENDROOT
BRANCH   2   3
HETATM    3  S   UNL     1     -11.033  14.942  68.348  1.00  0.00    -0.273 S  
HETATM    4  O   UNL     1     -12.263  14.577  69.022  1.00  0.00    -0.275 OA 
HETATM    5  O   UNL     1      -9.746  14.509  68.856  1.00  0.00    -0.213 OA 
BRANCH   3   6
HETATM    6  C   UNL     1     -11.168  14.367  66.672  1.00  0.00    -0.339 C  
BRANCH   6   7
HETATM    7  C   UNL     1     -11.780  12.976  66.659  1.00  0.00    -0.381 C  
BRANCH   7   8
HETATM    8  N   UNL     1     -11.152  12.100  65.682  1.00  0.00    -0.306 NA 
HETATM    9  C   UNL     1     -11.290  12.214  64.305  1.00  0.00    -0.360 A  
HETATM   10  N   UNL     1     -10.676  11.223  63.688  1.00  0.00    -0.383 NA 
HETATM   11  C   UNL     1     -12.031  13.298  63.603  1.00  0.00    -0.547 C  
HETATM   12  C   UNL     1     -10.107  10.455  64.665  1.00  0.00    -0.308 A  
HETATM   13  C   UNL     1     -10.365  10.992  65.899  1.00  0.00    -0.257 A  
HETATM   14  N   UNL     1      -9.893  10.522  67.156  1.00  0.00    -0.171 N  
HETATM   15  O   UNL     1     -10.106  11.225  68.149  1.00  0.00    -0.172 OA 
HETATM   16  O   UNL     1      -9.266   9.457  67.148  1.00  0.00    -0.132 OA 
ENDBRANCH   7   8
ENDBRANCH   6   7
ENDBRANCH   3   6
ENDBRANCH   2   3
TORSDOF 4
ENDMDL
MODEL      104
REMARK 921   NORMALIZED FREE ENERGY PREDICTED BY IDOCK:   -3.61 KCAL/MOL
REMARK 922        TOTAL FREE ENERGY PREDICTED BY IDOCK:   -4.86 KCAL/MOL
REMARK 923 INTER-LIGAND FREE ENERGY PREDICTED BY IDOCK:   -4.51 KCAL/MOL
REMARK 924 INTRA-LIGAND FREE ENERGY PREDICTED BY IDOCK:   -0.35 KCAL/MOL
REMARK 927      BINDING AFFINITY PREDICTED BY RF-SCORE:    0.00 PKD
ROOT
HETATM    1  C   UNL     1     -10.810   7.009  67.184  1.00  0.00    -0.427 C  
HETATM    2  C   UNL     1      -9.826   7.912  66.466  1.00  0.00    -0.202 C  
ENDROOT
BRANCH   2   3
HETATM    3  S   UNL     1      -9.668   9.492  67.283  1.00  0.00    -0.177 S  
HETATM    4  O   UNL     1      -8.275   9.680  67.640  1.00  0.00    -0.113 OA 
HETATM    5  O   UNL     1     -10.715   9.599  68.281  1.00  0.00    -0.231 OA 
BRANCH   3   6
HETATM    6  C   UNL     1     -10.037  10.660  65.994  1.00  0.00    -0.250 C  
BRANCH   6   7
HETATM    7  C   UNL     1     -11.119  11.616  66.467  1.00  0.00    -0.301 C  
BRANCH   7   8
HETATM    8  N   UNL     1     -10.943  12.961  65.940  1.00  0.00    -0.273 NA 
HETATM    9  C   UNL     1     -11.396  13.395  64.702  1.00  0.00    -0.350 A  
HETATM   10  N   UNL     1     -11.008  14.634  64.469  1.00  0.00    -0.298 NA 
HETATM   11  C   UNL     1     -12.205  12.585  63.750  1.00  0.00    -0.615 C  
HETATM   12  C   UNL     1     -10.309  15.034  65.574  1.00  0.00    -0.373 A  
HETATM   13  C   UNL     1     -10.280  14.026  66.504  1.00  0.00    -0.279 A  
HETATM   14  N   UNL     1      -9.708  14.076  67.805  1.00  0.00    -0.223 N  
HETATM   15  O   UNL     1      -9.912  13.119  68.559  1.00  0.00    -0.232 OA 
HETATM   16  O   UNL     1      -9.079  15.100  68.094  1.00  0.00    -0.171 OA 
ENDBRANCH   7   8
ENDBRANCH   6   7
ENDBRANCH   3   6
ENDBRANCH   2   3
TORSDOF 4
ENDMDL
MODEL      105
REMARK 921   NORMALIZED FREE ENERGY PREDICTED BY IDOCK:   -3.59 KCAL/MOL
REMARK 922        TOTAL FREE ENERGY PREDICTED BY IDOCK:   -4.85 KCAL/MOL
REMARK 923 INTER-LIGAND FREE ENERGY PREDICTED BY IDOCK:   -4.65 KCAL/MOL
REMARK 924 INTRA-LIGAND FREE ENERGY PREDICTED BY IDOCK:   -0.20 KCAL/MOL
REMARK 927      BINDING AFFINITY PREDICTED BY RF-SCORE:    0.00 PKD
ROOT
HETATM    1  C   UNL     1     -12.530  13.346  64.463  1.00  0.00    -0.359 C  
HETATM    2  C   UNL     1     -12.462  13.759  65.921  1.00  0.00    -0.468 C  
ENDROOT
BRANCH   2   3
HETATM    3  S   UNL     1     -10.790  14.143  66.417  1.00  0.00    -0.309 S  
HETATM    4  O   UNL     1     -10.848  15.131  67.477  1.00  0.00    -0.285 OA 
HETATM    5  O   UNL     1      -9.999  14.374  65.224  1.00  0.00    -0.356 OA 
BRANCH   3   6
HETATM    6  C   UNL     1     -10.221  12.628  67.151  1.00  0.00    -0.225 C  
BRANCH   6   7
HETATM    7  C   UNL     1     -11.377  11.647  67.256  1.00  0.00    -0.305 C  
BRANCH   7   8
HETATM    8  N   UNL     1     -11.075  10.521  68.126  1.00  0.00    -0.273 NA 
HETATM    9  C   UNL     1     -11.387  10.454  69.478  1.00  0.00    -0.265 A  
HETATM   10  N   UNL     1     -10.907   9.349  70.015  1.00  0.00    -0.232 NA 
HETATM   11  C   UNL     1     -12.153  11.482  70.235  1.00  0.00    -0.444 C  
HETATM   12  C   UNL     1     -10.288   8.666  69.006  1.00  0.00    -0.213 A  
HETATM   13  C   UNL     1     -10.404   9.358  67.828  1.00  0.00    -0.238 A  
HETATM   14  N   UNL     1      -9.949   8.948  66.543  1.00  0.00    -0.273 N  
HETATM   15  O   UNL     1     -10.277   9.636  65.571  1.00  0.00    -0.228 OA 
HETATM   16  O   UNL     1      -9.290   7.904  66.497  1.00  0.00    -0.178 OA 
ENDBRANCH   7   8
ENDBRANCH   6   7
ENDBRANCH   3   6
ENDBRANCH   2   3
TORSDOF 4
ENDMDL
MODEL      106
REMARK 921   NORMALIZED FREE ENERGY PREDICTED BY IDOCK:   -3.58 KCAL/MOL
REMARK 922        TOTAL FREE ENERGY PREDICTED BY IDOCK:   -4.83 KCAL/MOL
REMARK 923 INTER-LIGAND FREE ENERGY PREDICTED BY IDOCK:   -4.49 KCAL/MOL
REMARK 924 INTRA-LIGAND FREE ENERGY PREDICTED BY IDOCK:   -0.34 KCAL/MOL
REMARK 927      BINDING AFFINITY PREDICTED BY RF-SCORE:    0.00 PKD
ROOT
HETATM    1  C   UNL     1     -10.097   6.229  71.105  1.00  0.00    -0.218 C  
HETATM    2  C   UNL     1      -9.909   7.382  70.137  1.00  0.00    -0.180 C  
ENDROOT
BRANCH   2   3
HETATM    3  S   UNL     1      -9.813   8.947  70.992  1.00  0.00    -0.278 S  
HETATM    4  O   UNL     1      -8.531   9.017  71.666  1.00  0.00    -0.339 OA 
HETATM    5  O   UNL     1     -11.051   9.149  71.719  1.00  0.00    -0.351 OA 
BRANCH   3   6
HETATM    6  C   UNL     1      -9.770  10.135  69.670  1.00  0.00    -0.221 C  
BRANCH   6   7
HETATM    7  C   UNL     1     -11.020   9.993  68.817  1.00  0.00    -0.202 C  
BRANCH   7   8
HETATM    8  N   UNL     1     -10.817  10.451  67.451  1.00  0.00    -0.289 NA 
HETATM    9  C   UNL     1     -10.282   9.683  66.425  1.00  0.00    -0.217 A  
HETATM   10  N   UNL     1     -10.140  10.401  65.328  1.00  0.00    -0.306 NA 
HETATM   11  C   UNL     1      -9.909   8.246  66.533  1.00  0.00    -0.323 C  
HETATM   12  C   UNL     1     -10.605  11.652  65.622  1.00  0.00    -0.275 A  
HETATM   13  C   UNL     1     -11.052  11.697  66.917  1.00  0.00    -0.308 A  
HETATM   14  N   UNL     1     -11.665  12.799  67.576  1.00  0.00    -0.358 N  
HETATM   15  O   UNL     1     -12.141  12.605  68.699  1.00  0.00    -0.269 OA 
HETATM   16  O   UNL     1     -11.710  13.863  66.949  1.00  0.00    -0.355 OA 
ENDBRANCH   7   8
ENDBRANCH   6   7
ENDBRANCH   3   6
ENDBRANCH   2   3
TORSDOF 4
ENDMDL
MODEL      107
REMARK 921   NORMALIZED FREE ENERGY PREDICTED BY IDOCK:   -3.57 KCAL/MOL
REMARK 922        TOTAL FREE ENERGY PREDICTED BY IDOCK:   -4.82 KCAL/MOL
REMARK 923 INTER-LIGAND FREE ENERGY PREDICTED BY IDOCK:   -4.48 KCAL/MOL
REMARK 924 INTRA-LIGAND FREE ENERGY PREDICTED BY IDOCK:   -0.34 KCAL/MOL
REMARK 927      BINDING AFFINITY PREDICTED BY RF-SCORE:    0.00 PKD
ROOT
HETATM    1  C   UNL     1      -5.719  17.202  67.213  1.00  0.00    -0.174 C  
HETATM    2  C   UNL     1      -6.355  16.931  68.564  1.00  0.00    -0.152 C  
ENDROOT
BRANCH   2   3
HETATM    3  S   UNL     1      -7.036  15.282  68.649  1.00  0.00    -0.116 S  
HETATM    4  O   UNL     1      -7.914  15.215  69.801  1.00  0.00    -0.192 OA 
HETATM    5  O   UNL     1      -5.956  14.330  68.478  1.00  0.00    -0.082 OA 
BRANCH   3   6
HETATM    6  C   UNL     1      -8.066  15.187  67.204  1.00  0.00    -0.214 C  
BRANCH   6   7
HETATM    7  C   UNL     1      -9.499  15.530  67.577  1.00  0.00    -0.208 C  
BRANCH   7   8
HETATM    8  N   UNL     1     -10.142  16.385  66.591  1.00  0.00    -0.273 NA 
HETATM    9  C   UNL     1     -10.613  15.960  65.356  1.00  0.00    -0.419 A  
HETATM   10  N   UNL     1     -11.062  16.980  64.650  1.00  0.00    -1.014 NA 
HETATM   11  C   UNL     1     -10.615  14.551  64.875  1.00  0.00    -0.450 C  
HETATM   12  C   UNL     1     -10.907  18.089  65.433  1.00  0.00     0.249 A  
HETATM   13  C   UNL     1     -10.366  17.741  66.644  1.00  0.00    -0.345 A  
HETATM   14  N   UNL     1     -10.113  18.599  67.750  1.00  0.00    -0.351 N  
HETATM   15  O   UNL     1      -9.763  18.078  68.813  1.00  0.00    -0.336 OA 
HETATM   16  O   UNL     1     -10.305  19.807  67.568  1.00  0.00    -0.404 OA 
ENDBRANCH   7   8
ENDBRANCH   6   7
ENDBRANCH   3   6
ENDBRANCH   2   3
TORSDOF 4
ENDMDL
MODEL      108
REMARK 921   NORMALIZED FREE ENERGY PREDICTED BY IDOCK:   -3.57 KCAL/MOL
REMARK 922        TOTAL FREE ENERGY PREDICTED BY IDOCK:   -4.82 KCAL/MOL
REMARK 923 INTER-LIGAND FREE ENERGY PREDICTED BY IDOCK:   -4.61 KCAL/MOL
REMARK 924 INTRA-LIGAND FREE ENERGY PREDICTED BY IDOCK:   -0.21 KCAL/MOL
REMARK 927      BINDING AFFINITY PREDICTED BY RF-SCORE:    0.00 PKD
ROOT
HETATM    1  C   UNL     1      -9.406  16.202  66.089  1.00  0.00    -0.372 C  
HETATM    2  C   UNL     1     -10.156  16.905  67.204  1.00  0.00    -0.287 C  
ENDROOT
BRANCH   2   3
HETATM    3  S   UNL     1     -10.606  15.770  68.508  1.00  0.00    -0.265 S  
HETATM    4  O   UNL     1     -12.032  15.889  68.738  1.00  0.00    -0.368 OA 
HETATM    5  O   UNL     1      -9.659  15.923  69.596  1.00  0.00    -0.259 OA 
BRANCH   3   6
HETATM    6  C   UNL     1     -10.328  14.174  67.777  1.00  0.00    -0.242 C  
BRANCH   6   7
HETATM    7  C   UNL     1     -11.620  13.374  67.796  1.00  0.00    -0.340 C  
BRANCH   7   8
HETATM    8  N   UNL     1     -11.406  11.978  68.147  1.00  0.00    -0.267 NA 
HETATM    9  C   UNL     1     -10.787  11.039  67.333  1.00  0.00    -0.274 A  
HETATM   10  N   UNL     1     -10.822   9.843  67.888  1.00  0.00    -0.268 NA 
HETATM   11  C   UNL     1     -10.168  11.323  66.009  1.00  0.00    -0.295 C  
HETATM   12  C   UNL     1     -11.451   9.994  69.092  1.00  0.00    -0.033 A  
HETATM   13  C   UNL     1     -11.796  11.307  69.283  1.00  0.00    -0.354 A  
HETATM   14  N   UNL     1     -12.406  11.875  70.435  1.00  0.00    -0.286 N  
HETATM   15  O   UNL     1     -12.503  13.105  70.487  1.00  0.00    -0.313 OA 
HETATM   16  O   UNL     1     -12.758  11.087  71.320  1.00  0.00    -0.387 OA 
ENDBRANCH   7   8
ENDBRANCH   6   7
ENDBRANCH   3   6
ENDBRANCH   2   3
TORSDOF 4
ENDMDL
MODEL      109
REMARK 921   NORMALIZED FREE ENERGY PREDICTED BY IDOCK:   -3.57 KCAL/MOL
REMARK 922        TOTAL FREE ENERGY PREDICTED BY IDOCK:   -4.81 KCAL/MOL
REMARK 923 INTER-LIGAND FREE ENERGY PREDICTED BY IDOCK:   -4.51 KCAL/MOL
REMARK 924 INTRA-LIGAND FREE ENERGY PREDICTED BY IDOCK:   -0.30 KCAL/MOL
REMARK 927      BINDING AFFINITY PREDICTED BY RF-SCORE:    0.00 PKD
ROOT
HETATM    1  C   UNL     1     -12.311  12.453  63.639  1.00  0.00    -0.647 C  
HETATM    2  C   UNL     1     -12.754  13.053  64.959  1.00  0.00    -0.410 C  
ENDROOT
BRANCH   2   3
HETATM    3  S   UNL     1     -11.577  12.716  66.260  1.00  0.00    -0.403 S  
HETATM    4  O   UNL     1     -10.244  12.891  65.719  1.00  0.00    -0.280 OA 
HETATM    5  O   UNL     1     -11.960  11.482  66.917  1.00  0.00    -0.516 OA 
BRANCH   3   6
HETATM    6  C   UNL     1     -11.849  14.042  67.412  1.00  0.00    -0.409 C  
BRANCH   6   7
HETATM    7  C   UNL     1     -10.964  13.846  68.633  1.00  0.00    -0.261 C  
BRANCH   7   8
HETATM    8  N   UNL     1      -9.716  14.588  68.541  1.00  0.00    -0.220 NA 
HETATM    9  C   UNL     1      -9.612  15.973  68.552  1.00  0.00    -0.215 A  
HETATM   10  N   UNL     1      -8.362  16.350  68.364  1.00  0.00    -0.183 NA 
HETATM   11  C   UNL     1     -10.745  16.919  68.744  1.00  0.00    -0.333 C  
HETATM   12  C   UNL     1      -7.627  15.204  68.248  1.00  0.00    -0.109 A  
HETATM   13  C   UNL     1      -8.438  14.106  68.381  1.00  0.00    -0.170 A  
HETATM   14  N   UNL     1      -8.041  12.740  68.384  1.00  0.00    -0.148 N  
HETATM   15  O   UNL     1      -8.895  11.895  68.668  1.00  0.00    -0.139 OA 
HETATM   16  O   UNL     1      -6.852  12.510  68.139  1.00  0.00    -0.069 OA 
ENDBRANCH   7   8
ENDBRANCH   6   7
ENDBRANCH   3   6
ENDBRANCH   2   3
TORSDOF 4
ENDMDL
MODEL      110
REMARK 921   NORMALIZED FREE ENERGY PREDICTED BY IDOCK:   -3.54 KCAL/MOL
REMARK 922        TOTAL FREE ENERGY PREDICTED BY IDOCK:   -4.79 KCAL/MOL
REMARK 923 INTER-LIGAND FREE ENERGY PREDICTED BY IDOCK:   -4.47 KCAL/MOL
REMARK 924 INTRA-LIGAND FREE ENERGY PREDICTED BY IDOCK:   -0.32 KCAL/MOL
REMARK 927      BINDING AFFINITY PREDICTED BY RF-SCORE:    0.00 PKD
ROOT
HETATM    1  C   UNL     1     -13.584   9.596  72.293  1.00  0.00    -0.449 C  
HETATM    2  C   UNL     1     -13.280   8.232  71.705  1.00  0.00    -0.347 C  
ENDROOT
BRANCH   2   3
HETATM    3  S   UNL     1     -11.527   7.891  71.711  1.00  0.00    -0.285 S  
HETATM    4  O   UNL     1     -11.263   6.865  70.720  1.00  0.00    -0.263 OA 
HETATM    5  O   UNL     1     -11.096   7.729  73.085  1.00  0.00    -0.409 OA 
BRANCH   3   6
HETATM    6  C   UNL     1     -10.813   9.400  71.100  1.00  0.00    -0.357 C  
BRANCH   6   7
HETATM    7  C   UNL     1     -10.485   9.247  69.624  1.00  0.00    -0.224 C  
BRANCH   7   8
HETATM    8  N   UNL     1      -9.729  10.375  69.101  1.00  0.00    -0.212 NA 
HETATM    9  C   UNL     1      -8.345  10.475  69.108  1.00  0.00    -0.151 A  
HETATM   10  N   UNL     1      -7.958  11.650  68.649  1.00  0.00    -0.144 NA 
HETATM   11  C   UNL     1      -7.408   9.415  69.570  1.00  0.00    -0.073 C  
HETATM   12  C   UNL     1      -9.097  12.328  68.315  1.00  0.00    -0.187 A  
HETATM   13  C   UNL     1     -10.199  11.549  68.561  1.00  0.00    -0.213 A  
HETATM   14  N   UNL     1     -11.557  11.873  68.287  1.00  0.00    -0.307 N  
HETATM   15  O   UNL     1     -12.401  10.983  68.437  1.00  0.00    -0.528 OA 
HETATM   16  O   UNL     1     -11.781  13.017  67.877  1.00  0.00    -0.322 OA 
ENDBRANCH   7   8
ENDBRANCH   6   7
ENDBRANCH   3   6
ENDBRANCH   2   3
TORSDOF 4
ENDMDL
MODEL      111
REMARK 921   NORMALIZED FREE ENERGY PREDICTED BY IDOCK:   -3.53 KCAL/MOL
REMARK 922        TOTAL FREE ENERGY PREDICTED BY IDOCK:   -4.77 KCAL/MOL
REMARK 923 INTER-LIGAND FREE ENERGY PREDICTED BY IDOCK:   -4.37 KCAL/MOL
REMARK 924 INTRA-LIGAND FREE ENERGY PREDICTED BY IDOCK:   -0.41 KCAL/MOL
REMARK 927      BINDING AFFINITY PREDICTED BY RF-SCORE:    0.00 PKD
ROOT
HETATM    1  C   UNL     1     -10.647   5.770  73.572  1.00  0.00    -0.295 C  
HETATM    2  C   UNL     1     -11.326   5.752  72.216  1.00  0.00    -0.278 C  
ENDROOT
BRANCH   2   3
HETATM    3  S   UNL     1     -12.132   7.306  71.864  1.00  0.00    -0.312 S  
HETATM    4  O   UNL     1     -12.015   8.151  73.036  1.00  0.00    -0.269 OA 
HETATM    5  O   UNL     1     -13.425   7.029  71.270  1.00  0.00    -0.333 OA 
BRANCH   3   6
HETATM    6  C   UNL     1     -11.107   8.024  70.602  1.00  0.00    -0.262 C  
BRANCH   6   7
HETATM    7  C   UNL     1     -10.527   9.337  71.102  1.00  0.00    -0.331 C  
BRANCH   7   8
HETATM    8  N   UNL     1     -10.891  10.464  70.258  1.00  0.00    -0.284 NA 
HETATM    9  C   UNL     1     -12.018  11.256  70.431  1.00  0.00    -0.380 A  
HETATM   10  N   UNL     1     -12.124  12.139  69.457  1.00  0.00    -0.244 NA 
HETATM   11  C   UNL     1     -12.990  11.135  71.552  1.00  0.00    -0.542 C  
HETATM   12  C   UNL     1     -11.044  11.946  68.642  1.00  0.00    -0.246 A  
HETATM   13  C   UNL     1     -10.257  10.936  69.131  1.00  0.00    -0.195 A  
HETATM   14  N   UNL     1      -9.017  10.482  68.604  1.00  0.00    -0.153 N  
HETATM   15  O   UNL     1      -8.376   9.661  69.268  1.00  0.00    -0.118 OA 
HETATM   16  O   UNL     1      -8.656  10.980  67.532  1.00  0.00    -0.126 OA 
ENDBRANCH   7   8
ENDBRANCH   6   7
ENDBRANCH   3   6
ENDBRANCH   2   3
TORSDOF 4
ENDMDL
MODEL      112
REMARK 921   NORMALIZED FREE ENERGY PREDICTED BY IDOCK:   -3.52 KCAL/MOL
REMARK 922        TOTAL FREE ENERGY PREDICTED BY IDOCK:   -4.76 KCAL/MOL
REMARK 923 INTER-LIGAND FREE ENERGY PREDICTED BY IDOCK:   -4.51 KCAL/MOL
REMARK 924 INTRA-LIGAND FREE ENERGY PREDICTED BY IDOCK:   -0.25 KCAL/MOL
REMARK 927      BINDING AFFINITY PREDICTED BY RF-SCORE:    0.00 PKD
ROOT
HETATM    1  C   UNL     1     -10.494   7.019  73.687  1.00  0.00    -0.414 C  
HETATM    2  C   UNL     1     -10.268   8.172  72.729  1.00  0.00    -0.302 C  
ENDROOT
BRANCH   2   3
HETATM    3  S   UNL     1     -11.657   8.392  71.627  1.00  0.00    -0.311 S  
HETATM    4  O   UNL     1     -12.198   9.720  71.842  1.00  0.00    -0.375 OA 
HETATM    5  O   UNL     1     -12.502   7.218  71.715  1.00  0.00    -0.320 OA 
BRANCH   3   6
HETATM    6  C   UNL     1     -10.906   8.391  70.016  1.00  0.00    -0.225 C  
BRANCH   6   7
HETATM    7  C   UNL     1     -10.132   9.683  69.814  1.00  0.00    -0.233 C  
BRANCH   7   8
HETATM    8  N   UNL     1      -9.739   9.887  68.428  1.00  0.00    -0.147 NA 
HETATM    9  C   UNL     1      -8.593   9.367  67.842  1.00  0.00    -0.120 A  
HETATM   10  N   UNL     1      -8.464   9.798  66.602  1.00  0.00    -0.124 NA 
HETATM   11  C   UNL     1      -7.626   8.451  68.508  1.00  0.00    -0.096 C  
HETATM   12  C   UNL     1      -9.547  10.595  66.356  1.00  0.00    -0.190 A  
HETATM   13  C   UNL     1     -10.359  10.641  67.459  1.00  0.00    -0.214 A  
HETATM   14  N   UNL     1     -11.610  11.309  67.577  1.00  0.00    -0.240 N  
HETATM   15  O   UNL     1     -12.271  11.114  68.601  1.00  0.00    -0.582 OA 
HETATM   16  O   UNL     1     -11.956  12.007  66.617  1.00  0.00    -0.614 OA 
ENDBRANCH   7   8
ENDBRANCH   6   7
ENDBRANCH   3   6
ENDBRANCH   2   3
TORSDOF 4
ENDMDL
MODEL      113
REMARK 921   NORMALIZED FREE ENERGY PREDICTED BY IDOCK:   -3.51 KCAL/MOL
REMARK 922        TOTAL FREE ENERGY PREDICTED BY IDOCK:   -4.74 KCAL/MOL
REMARK 923 INTER-LIGAND FREE ENERGY PREDICTED BY IDOCK:   -4.32 KCAL/MOL
REMARK 924 INTRA-LIGAND FREE ENERGY PREDICTED BY IDOCK:   -0.42 KCAL/MOL
REMARK 927      BINDING AFFINITY PREDICTED BY RF-SCORE:    0.00 PKD
ROOT
HETATM    1  C   UNL     1      -5.630  11.589  68.278  1.00  0.00    -0.045 C  
HETATM    2  C   UNL     1      -6.939  11.941  68.959  1.00  0.00    -0.098 C  
ENDROOT
BRANCH   2   3
HETATM    3  S   UNL     1      -8.314  11.854  67.822  1.00  0.00    -0.159 S  
HETATM    4  O   UNL     1      -9.507  11.530  68.580  1.00  0.00    -0.185 OA 
HETATM    5  O   UNL     1      -7.915  11.055  66.681  1.00  0.00    -0.144 OA 
BRANCH   3   6
HETATM    6  C   UNL     1      -8.492  13.532  67.264  1.00  0.00    -0.193 C  
BRANCH   6   7
HETATM    7  C   UNL     1      -9.898  14.024  67.568  1.00  0.00    -0.236 C  
BRANCH   7   8
HETATM    8  N   UNL     1     -10.591  14.498  66.380  1.00  0.00    -0.296 NA 
HETATM    9  C   UNL     1     -11.316  13.695  65.509  1.00  0.00    -0.298 A  
HETATM   10  N   UNL     1     -11.752  14.395  64.480  1.00  0.00    -0.421 NA 
HETATM   11  C   UNL     1     -11.571  12.240  65.691  1.00  0.00    -0.433 C  
HETATM   12  C   UNL     1     -11.331  15.680  64.681  1.00  0.00    -0.349 A  
HETATM   13  C   UNL     1     -10.636  15.770  65.860  1.00  0.00    -0.339 A  
HETATM   14  N   UNL     1     -10.095  16.946  66.449  1.00  0.00    -0.310 N  
HETATM   15  O   UNL     1      -9.633  16.856  67.591  1.00  0.00    -0.243 OA 
HETATM   16  O   UNL     1     -10.167  17.983  65.781  1.00  0.00    -0.574 OA 
ENDBRANCH   7   8
ENDBRANCH   6   7
ENDBRANCH   3   6
ENDBRANCH   2   3
TORSDOF 4
ENDMDL
MODEL      114
REMARK 921   NORMALIZED FREE ENERGY PREDICTED BY IDOCK:   -3.51 KCAL/MOL
REMARK 922        TOTAL FREE ENERGY PREDICTED BY IDOCK:   -4.74 KCAL/MOL
REMARK 923 INTER-LIGAND FREE ENERGY PREDICTED BY IDOCK:   -4.46 KCAL/MOL
REMARK 924 INTRA-LIGAND FREE ENERGY PREDICTED BY IDOCK:   -0.28 KCAL/MOL
REMARK 927      BINDING AFFINITY PREDICTED BY RF-SCORE:    0.00 PKD
ROOT
HETATM    1  C   UNL     1      -9.713   4.217  69.762  1.00  0.00    -0.278 C  
HETATM    2  C   UNL     1     -10.506   5.418  70.239  1.00  0.00    -0.285 C  
ENDROOT
BRANCH   2   3
HETATM    3  S   UNL     1     -10.299   5.687  71.993  1.00  0.00    -0.219 S  
HETATM    4  O   UNL     1      -8.878   5.730  72.279  1.00  0.00    -0.135 OA 
HETATM    5  O   UNL     1     -11.175   4.777  72.703  1.00  0.00    -0.164 OA 
BRANCH   3   6
HETATM    6  C   UNL     1     -10.927   7.332  72.233  1.00  0.00    -0.249 C  
BRANCH   6   7
HETATM    7  C   UNL     1     -11.659   7.786  70.981  1.00  0.00    -0.283 C  
BRANCH   7   8
HETATM    8  N   UNL     1     -11.912   9.219  70.971  1.00  0.00    -0.299 NA 
HETATM    9  C   UNL     1     -12.959   9.846  71.633  1.00  0.00    -0.434 A  
HETATM   10  N   UNL     1     -12.978  11.137  71.363  1.00  0.00    -0.424 NA 
HETATM   11  C   UNL     1     -13.941   9.169  72.524  1.00  0.00    -0.453 C  
HETATM   12  C   UNL     1     -11.919  11.372  70.531  1.00  0.00    -0.356 A  
HETATM   13  C   UNL     1     -11.233  10.208  70.298  1.00  0.00    -0.318 A  
HETATM   14  N   UNL     1     -10.040  10.051  69.540  1.00  0.00    -0.214 N  
HETATM   15  O   UNL     1      -9.482   8.950  69.567  1.00  0.00    -0.155 OA 
HETATM   16  O   UNL     1      -9.631  11.052  68.940  1.00  0.00    -0.196 OA 
ENDBRANCH   7   8
ENDBRANCH   6   7
ENDBRANCH   3   6
ENDBRANCH   2   3
TORSDOF 4
ENDMDL
MODEL      115
REMARK 921   NORMALIZED FREE ENERGY PREDICTED BY IDOCK:   -3.50 KCAL/MOL
REMARK 922        TOTAL FREE ENERGY PREDICTED BY IDOCK:   -4.73 KCAL/MOL
REMARK 923 INTER-LIGAND FREE ENERGY PREDICTED BY IDOCK:   -4.29 KCAL/MOL
REMARK 924 INTRA-LIGAND FREE ENERGY PREDICTED BY IDOCK:   -0.44 KCAL/MOL
REMARK 927      BINDING AFFINITY PREDICTED BY RF-SCORE:    0.00 PKD
ROOT
HETATM    1  C   UNL     1     -11.610  12.283  68.182  1.00  0.00    -0.396 C  
HETATM    2  C   UNL     1     -11.379  12.868  66.802  1.00  0.00    -0.322 C  
ENDROOT
BRANCH   2   3
HETATM    3  S   UNL     1     -11.122  14.635  66.873  1.00  0.00    -0.340 S  
HETATM    4  O   UNL     1     -12.027  15.183  67.864  1.00  0.00    -0.268 OA 
HETATM    5  O   UNL     1     -11.098  15.149  65.518  1.00  0.00    -0.336 OA 
BRANCH   3   6
HETATM    6  C   UNL     1      -9.478  14.784  67.531  1.00  0.00    -0.197 C  
BRANCH   6   7
HETATM    7  C   UNL     1      -9.523  15.545  68.846  1.00  0.00    -0.223 C  
BRANCH   7   8
HETATM    8  N   UNL     1      -8.707  16.749  68.822  1.00  0.00    -0.261 NA 
HETATM    9  C   UNL     1      -9.141  17.995  68.389  1.00  0.00    -0.286 A  
HETATM   10  N   UNL     1      -8.150  18.866  68.400  1.00  0.00    -0.328 NA 
HETATM   11  C   UNL     1     -10.529  18.321  67.961  1.00  0.00    -0.387 C  
HETATM   12  C   UNL     1      -7.053  18.196  68.866  1.00  0.00    -0.274 A  
HETATM   13  C   UNL     1      -7.381  16.897  69.157  1.00  0.00    -0.197 A  
HETATM   14  N   UNL     1      -6.533  15.904  69.721  1.00  0.00    -0.182 N  
HETATM   15  O   UNL     1      -7.048  14.831  70.053  1.00  0.00    -0.165 OA 
HETATM   16  O   UNL     1      -5.346  16.211  69.872  1.00  0.00    -0.128 OA 
ENDBRANCH   7   8
ENDBRANCH   6   7
ENDBRANCH   3   6
ENDBRANCH   2   3
TORSDOF 4
ENDMDL
MODEL      116
REMARK 921   NORMALIZED FREE ENERGY PREDICTED BY IDOCK:   -3.50 KCAL/MOL
REMARK 922        TOTAL FREE ENERGY PREDICTED BY IDOCK:   -4.73 KCAL/MOL
REMARK 923 INTER-LIGAND FREE ENERGY PREDICTED BY IDOCK:   -4.55 KCAL/MOL
REMARK 924 INTRA-LIGAND FREE ENERGY PREDICTED BY IDOCK:   -0.18 KCAL/MOL
REMARK 927      BINDING AFFINITY PREDICTED BY RF-SCORE:    0.00 PKD
ROOT
HETATM    1  C   UNL     1      -8.754   7.779  73.795  1.00  0.00    -0.318 C  
HETATM    2  C   UNL     1     -10.068   7.021  73.780  1.00  0.00    -0.352 C  
ENDROOT
BRANCH   2   3
HETATM    3  S   UNL     1     -10.483   6.460  72.136  1.00  0.00    -0.212 S  
HETATM    4  O   UNL     1     -11.909   6.202  72.094  1.00  0.00    -0.317 OA 
HETATM    5  O   UNL     1      -9.529   5.441  71.744  1.00  0.00    -0.145 OA 
BRANCH   3   6
HETATM    6  C   UNL     1     -10.183   7.891  71.126  1.00  0.00    -0.195 C  
BRANCH   6   7
HETATM    7  C   UNL     1     -11.457   8.269  70.388  1.00  0.00    -0.122 C  
BRANCH   7   8
HETATM    8  N   UNL     1     -11.859   9.645  70.640  1.00  0.00    -0.270 NA 
HETATM    9  C   UNL     1     -12.804  10.038  71.578  1.00  0.00    -0.432 A  
HETATM   10  N   UNL     1     -13.019  11.337  71.511  1.00  0.00    -0.445 NA 
HETATM   11  C   UNL     1     -13.496   9.130  72.534  1.00  0.00    -0.490 C  
HETATM   12  C   UNL     1     -12.192  11.815  70.532  1.00  0.00    -0.347 A  
HETATM   13  C   UNL     1     -11.450  10.792  70.001  1.00  0.00    -0.331 A  
HETATM   14  N   UNL     1     -10.435  10.893  69.009  1.00  0.00    -0.210 N  
HETATM   15  O   UNL     1      -9.768   9.883  68.764  1.00  0.00    -0.152 OA 
HETATM   16  O   UNL     1     -10.273  12.006  68.496  1.00  0.00    -0.215 OA 
ENDBRANCH   7   8
ENDBRANCH   6   7
ENDBRANCH   3   6
ENDBRANCH   2   3
TORSDOF 4
ENDMDL
MODEL      117
REMARK 921   NORMALIZED FREE ENERGY PREDICTED BY IDOCK:   -3.48 KCAL/MOL
REMARK 922        TOTAL FREE ENERGY PREDICTED BY IDOCK:   -4.71 KCAL/MOL
REMARK 923 INTER-LIGAND FREE ENERGY PREDICTED BY IDOCK:   -4.79 KCAL/MOL
REMARK 924 INTRA-LIGAND FREE ENERGY PREDICTED BY IDOCK:    0.08 KCAL/MOL
REMARK 927      BINDING AFFINITY PREDICTED BY RF-SCORE:    0.00 PKD
ROOT
HETATM    1  C   UNL     1      -9.833  17.886  68.386  1.00  0.00    -0.355 C  
HETATM    2  C   UNL     1     -10.859  17.860  67.268  1.00  0.00    -0.175 C  
ENDROOT
BRANCH   2   3
HETATM    3  S   UNL     1     -10.223  17.042  65.813  1.00  0.00    -0.172 S  
HETATM    4  O   UNL     1      -8.776  17.109  65.853  1.00  0.00    -0.526 OA 
HETATM    5  O   UNL     1     -10.961  17.520  64.660  1.00  0.00    -0.892 OA 
BRANCH   3   6
HETATM    6  C   UNL     1     -10.673  15.342  66.069  1.00  0.00    -0.320 C  
BRANCH   6   7
HETATM    7  C   UNL     1     -10.469  14.975  67.530  1.00  0.00    -0.256 C  
BRANCH   7   8
HETATM    8  N   UNL     1      -9.712  13.743  67.695  1.00  0.00    -0.221 NA 
HETATM    9  C   UNL     1      -8.327  13.656  67.701  1.00  0.00    -0.182 A  
HETATM   10  N   UNL     1      -7.937  12.398  67.778  1.00  0.00    -0.143 NA 
HETATM   11  C   UNL     1      -7.392  14.811  67.625  1.00  0.00    -0.206 C  
HETATM   12  C   UNL     1      -9.076  11.645  67.846  1.00  0.00    -0.171 A  
HETATM   13  C   UNL     1     -10.181  12.456  67.823  1.00  0.00    -0.211 A  
HETATM   14  N   UNL     1     -11.542  12.058  67.939  1.00  0.00    -0.330 N  
HETATM   15  O   UNL     1     -12.393  12.946  68.049  1.00  0.00    -0.098 OA 
HETATM   16  O   UNL     1     -11.762  10.842  67.961  1.00  0.00    -0.528 OA 
ENDBRANCH   7   8
ENDBRANCH   6   7
ENDBRANCH   3   6
ENDBRANCH   2   3
TORSDOF 4
ENDMDL
MODEL      118
REMARK 921   NORMALIZED FREE ENERGY PREDICTED BY IDOCK:   -3.48 KCAL/MOL
REMARK 922        TOTAL FREE ENERGY PREDICTED BY IDOCK:   -4.71 KCAL/MOL
REMARK 923 INTER-LIGAND FREE ENERGY PREDICTED BY IDOCK:   -4.41 KCAL/MOL
REMARK 924 INTRA-LIGAND FREE ENERGY PREDICTED BY IDOCK:   -0.30 KCAL/MOL
REMARK 927      BINDING AFFINITY PREDICTED BY RF-SCORE:    0.00 PKD
ROOT
HETATM    1  C   UNL     1     -13.842   9.285  72.455  1.00  0.00    -0.453 C  
HETATM    2  C   UNL     1     -13.426   9.138  71.004  1.00  0.00    -0.021 C  
ENDROOT
BRANCH   2   3
HETATM    3  S   UNL     1     -12.026  10.176  70.614  1.00  0.00    -0.345 S  
HETATM    4  O   UNL     1     -12.142  10.591  69.230  1.00  0.00    -0.203 OA 
HETATM    5  O   UNL     1     -10.825   9.527  71.101  1.00  0.00    -0.315 OA 
BRANCH   3   6
HETATM    6  C   UNL     1     -12.296  11.621  71.614  1.00  0.00     0.128 C  
BRANCH   6   7
HETATM    7  C   UNL     1     -12.991  12.690  70.787  1.00  0.00     0.097 C  
BRANCH   7   8
HETATM    8  N   UNL     1     -12.305  13.972  70.841  1.00  0.00    -0.352 NA 
HETATM    9  C   UNL     1     -11.446  14.456  69.863  1.00  0.00    -0.260 A  
HETATM   10  N   UNL     1     -10.909  15.601  70.236  1.00  0.00    -0.330 NA 
HETATM   11  C   UNL     1     -11.154  13.785  68.566  1.00  0.00    -0.292 C  
HETATM   12  C   UNL     1     -11.433  15.890  71.465  1.00  0.00    -0.410 A  
HETATM   13  C   UNL     1     -12.316  14.912  71.844  1.00  0.00    -0.344 A  
HETATM   14  N   UNL     1     -13.111  14.884  73.024  1.00  0.00    -0.478 N  
HETATM   15  O   UNL     1     -13.962  13.993  73.122  1.00  0.00    -0.306 OA 
HETATM   16  O   UNL     1     -12.913  15.785  73.846  1.00  0.00    -0.525 OA 
ENDBRANCH   7   8
ENDBRANCH   6   7
ENDBRANCH   3   6
ENDBRANCH   2   3
TORSDOF 4
ENDMDL
MODEL      119
REMARK 921   NORMALIZED FREE ENERGY PREDICTED BY IDOCK:   -3.48 KCAL/MOL
REMARK 922        TOTAL FREE ENERGY PREDICTED BY IDOCK:   -4.71 KCAL/MOL
REMARK 923 INTER-LIGAND FREE ENERGY PREDICTED BY IDOCK:   -4.33 KCAL/MOL
REMARK 924 INTRA-LIGAND FREE ENERGY PREDICTED BY IDOCK:   -0.38 KCAL/MOL
REMARK 927      BINDING AFFINITY PREDICTED BY RF-SCORE:    0.00 PKD
ROOT
HETATM    1  C   UNL     1     -10.307  15.217  65.952  1.00  0.00    -0.344 C  
HETATM    2  C   UNL     1     -10.373  14.030  66.895  1.00  0.00    -0.269 C  
ENDROOT
BRANCH   2   3
HETATM    3  S   UNL     1     -11.130  12.613  66.114  1.00  0.00    -0.305 S  
HETATM    4  O   UNL     1     -10.088  11.854  65.449  1.00  0.00    -0.240 OA 
HETATM    5  O   UNL     1     -12.304  13.060  65.391  1.00  0.00    -0.444 OA 
BRANCH   3   6
HETATM    6  C   UNL     1     -11.687  11.635  67.489  1.00  0.00    -0.214 C  
BRANCH   6   7
HETATM    7  C   UNL     1     -10.875  11.985  68.725  1.00  0.00    -0.230 C  
BRANCH   7   8
HETATM    8  N   UNL     1     -10.310  10.810  69.371  1.00  0.00    -0.208 NA 
HETATM    9  C   UNL     1      -9.118  10.198  69.006  1.00  0.00    -0.173 A  
HETATM   10  N   UNL     1      -8.916   9.105  69.716  1.00  0.00    -0.151 NA 
HETATM   11  C   UNL     1      -8.185  10.690  67.955  1.00  0.00    -0.113 C  
HETATM   12  C   UNL     1      -9.974   9.002  70.576  1.00  0.00    -0.215 A  
HETATM   13  C   UNL     1     -10.831  10.058  70.398  1.00  0.00    -0.318 A  
HETATM   14  N   UNL     1     -12.010  10.341  71.142  1.00  0.00    -0.367 N  
HETATM   15  O   UNL     1     -12.573  11.421  70.937  1.00  0.00    -0.367 OA 
HETATM   16  O   UNL     1     -12.357   9.494  71.972  1.00  0.00    -0.368 OA 
ENDBRANCH   7   8
ENDBRANCH   6   7
ENDBRANCH   3   6
ENDBRANCH   2   3
TORSDOF 4
ENDMDL
MODEL      120
REMARK 921   NORMALIZED FREE ENERGY PREDICTED BY IDOCK:   -3.48 KCAL/MOL
REMARK 922        TOTAL FREE ENERGY PREDICTED BY IDOCK:   -4.70 KCAL/MOL
REMARK 923 INTER-LIGAND FREE ENERGY PREDICTED BY IDOCK:   -4.50 KCAL/MOL
REMARK 924 INTRA-LIGAND FREE ENERGY PREDICTED BY IDOCK:   -0.20 KCAL/MOL
REMARK 927      BINDING AFFINITY PREDICTED BY RF-SCORE:    0.00 PKD
ROOT
HETATM    1  C   UNL     1      -8.701   7.103  66.194  1.00  0.00    -0.164 C  
HETATM    2  C   UNL     1      -9.474   8.025  67.119  1.00  0.00    -0.162 C  
ENDROOT
BRANCH   2   3
HETATM    3  S   UNL     1      -8.834   9.692  67.068  1.00  0.00    -0.131 S  
HETATM    4  O   UNL     1      -8.010   9.824  65.882  1.00  0.00    -0.107 OA 
HETATM    5  O   UNL     1      -8.312  10.022  68.380  1.00  0.00    -0.108 OA 
BRANCH   3   6
HETATM    6  C   UNL     1     -10.286  10.682  66.805  1.00  0.00    -0.245 C  
BRANCH   6   7
HETATM    7  C   UNL     1      -9.901  11.979  66.114  1.00  0.00    -0.235 C  
BRANCH   7   8
HETATM    8  N   UNL     1     -11.059  12.773  65.733  1.00  0.00    -0.279 NA 
HETATM    9  C   UNL     1     -11.765  12.632  64.546  1.00  0.00    -0.359 A  
HETATM   10  N   UNL     1     -12.705  13.552  64.448  1.00  0.00    -0.658 NA 
HETATM   11  C   UNL     1     -11.507  11.593  63.511  1.00  0.00    -0.427 C  
HETATM   12  C   UNL     1     -12.636  14.298  65.591  1.00  0.00    -0.410 A  
HETATM   13  C   UNL     1     -11.645  13.818  66.409  1.00  0.00    -0.360 A  
HETATM   14  N   UNL     1     -11.306  14.283  67.710  1.00  0.00    -0.291 N  
HETATM   15  O   UNL     1     -10.483  13.628  68.357  1.00  0.00    -0.235 OA 
HETATM   16  O   UNL     1     -11.898  15.293  68.108  1.00  0.00    -0.330 OA 
ENDBRANCH   7   8
ENDBRANCH   6   7
ENDBRANCH   3   6
ENDBRANCH   2   3
TORSDOF 4
ENDMDL
MODEL      121
REMARK 921   NORMALIZED FREE ENERGY PREDICTED BY IDOCK:   -3.47 KCAL/MOL
REMARK 922        TOTAL FREE ENERGY PREDICTED BY IDOCK:   -4.70 KCAL/MOL
REMARK 923 INTER-LIGAND FREE ENERGY PREDICTED BY IDOCK:   -4.28 KCAL/MOL
REMARK 924 INTRA-LIGAND FREE ENERGY PREDICTED BY IDOCK:   -0.41 KCAL/MOL
REMARK 927      BINDING AFFINITY PREDICTED BY RF-SCORE:    0.00 PKD
ROOT
HETATM    1  C   UNL     1     -10.781  19.722  67.156  1.00  0.00    -0.547 C  
HETATM    2  C   UNL     1      -9.375  20.244  67.381  1.00  0.00    -0.400 C  
ENDROOT
BRANCH   2   3
HETATM    3  S   UNL     1      -8.156  18.956  67.166  1.00  0.00    -0.269 S  
HETATM    4  O   UNL     1      -7.159  19.099  68.209  1.00  0.00    -0.255 OA 
HETATM    5  O   UNL     1      -7.773  18.915  65.769  1.00  0.00    -0.465 OA 
BRANCH   3   6
HETATM    6  C   UNL     1      -9.064  17.468  67.517  1.00  0.00    -0.234 C  
BRANCH   6   7
HETATM    7  C   UNL     1      -8.760  16.424  66.455  1.00  0.00    -0.289 C  
BRANCH   7   8
HETATM    8  N   UNL     1      -8.582  15.094  67.017  1.00  0.00    -0.221 NA 
HETATM    9  C   UNL     1      -9.597  14.161  67.190  1.00  0.00    -0.244 A  
HETATM   10  N   UNL     1      -9.144  13.086  67.804  1.00  0.00    -0.190 NA 
HETATM   11  C   UNL     1     -11.009  14.336  66.753  1.00  0.00    -0.304 C  
HETATM   12  C   UNL     1      -7.811  13.298  68.022  1.00  0.00    -0.148 A  
HETATM   13  C   UNL     1      -7.439  14.518  67.521  1.00  0.00    -0.194 A  
HETATM   14  N   UNL     1      -6.129  15.073  67.495  1.00  0.00    -0.076 N  
HETATM   15  O   UNL     1      -5.962  16.122  66.865  1.00  0.00    -0.330 OA 
HETATM   16  O   UNL     1      -5.246  14.433  68.077  1.00  0.00    -0.114 OA 
ENDBRANCH   7   8
ENDBRANCH   6   7
ENDBRANCH   3   6
ENDBRANCH   2   3
TORSDOF 4
ENDMDL
MODEL      122
REMARK 921   NORMALIZED FREE ENERGY PREDICTED BY IDOCK:   -3.45 KCAL/MOL
REMARK 922        TOTAL FREE ENERGY PREDICTED BY IDOCK:   -4.67 KCAL/MOL
REMARK 923 INTER-LIGAND FREE ENERGY PREDICTED BY IDOCK:   -4.38 KCAL/MOL
REMARK 924 INTRA-LIGAND FREE ENERGY PREDICTED BY IDOCK:   -0.29 KCAL/MOL
REMARK 927      BINDING AFFINITY PREDICTED BY RF-SCORE:    0.00 PKD
ROOT
HETATM    1  C   UNL     1      -7.014  16.833  66.983  1.00  0.00    -0.242 C  
HETATM    2  C   UNL     1      -6.122  15.771  67.598  1.00  0.00    -0.154 C  
ENDROOT
BRANCH   2   3
HETATM    3  S   UNL     1      -7.061  14.339  68.106  1.00  0.00    -0.146 S  
HETATM    4  O   UNL     1      -7.473  14.534  69.482  1.00  0.00    -0.121 OA 
HETATM    5  O   UNL     1      -6.337  13.150  67.704  1.00  0.00    -0.143 OA 
BRANCH   3   6
HETATM    6  C   UNL     1      -8.528  14.435  67.107  1.00  0.00    -0.208 C  
BRANCH   6   7
HETATM    7  C   UNL     1      -9.553  13.430  67.608  1.00  0.00    -0.219 C  
BRANCH   7   8
HETATM    8  N   UNL     1     -10.157  12.665  66.528  1.00  0.00    -0.243 NA 
HETATM    9  C   UNL     1      -9.591  11.545  65.934  1.00  0.00    -0.230 A  
HETATM   10  N   UNL     1     -10.332  11.124  64.927  1.00  0.00    -0.296 NA 
HETATM   11  C   UNL     1      -8.320  10.895  66.358  1.00  0.00    -0.162 C  
HETATM   12  C   UNL     1     -11.410  11.962  64.865  1.00  0.00    -0.277 A  
HETATM   13  C   UNL     1     -11.336  12.902  65.860  1.00  0.00    -0.312 A  
HETATM   14  N   UNL     1     -12.296  13.906  66.166  1.00  0.00    -0.467 N  
HETATM   15  O   UNL     1     -12.127  14.568  67.195  1.00  0.00    -0.397 OA 
HETATM   16  O   UNL     1     -13.253  14.010  65.391  1.00  0.00    -0.761 OA 
ENDBRANCH   7   8
ENDBRANCH   6   7
ENDBRANCH   3   6
ENDBRANCH   2   3
TORSDOF 4
ENDMDL
MODEL      123
REMARK 921   NORMALIZED FREE ENERGY PREDICTED BY IDOCK:   -3.45 KCAL/MOL
REMARK 922        TOTAL FREE ENERGY PREDICTED BY IDOCK:   -4.67 KCAL/MOL
REMARK 923 INTER-LIGAND FREE ENERGY PREDICTED BY IDOCK:   -4.30 KCAL/MOL
REMARK 924 INTRA-LIGAND FREE ENERGY PREDICTED BY IDOCK:   -0.37 KCAL/MOL
REMARK 927      BINDING AFFINITY PREDICTED BY RF-SCORE:    0.00 PKD
ROOT
HETATM    1  C   UNL     1     -10.874   8.639  72.076  1.00  0.00    -0.430 C  
HETATM    2  C   UNL     1     -11.671   7.983  70.965  1.00  0.00    -0.277 C  
ENDROOT
BRANCH   2   3
HETATM    3  S   UNL     1     -10.611   7.109  69.824  1.00  0.00    -0.239 S  
HETATM    4  O   UNL     1     -11.190   5.802  69.580  1.00  0.00    -0.343 OA 
HETATM    5  O   UNL     1      -9.240   7.245  70.276  1.00  0.00    -0.155 OA 
BRANCH   3   6
HETATM    6  C   UNL     1     -10.773   8.039  68.319  1.00  0.00    -0.023 C  
BRANCH   6   7
HETATM    7  C   UNL     1     -10.018   9.352  68.447  1.00  0.00    -0.170 C  
BRANCH   7   8
HETATM    8  N   UNL     1     -10.596  10.409  67.632  1.00  0.00    -0.236 NA 
HETATM    9  C   UNL     1     -11.482  11.375  68.093  1.00  0.00    -0.305 A  
HETATM   10  N   UNL     1     -11.899  12.139  67.102  1.00  0.00    -0.591 NA 
HETATM   11  C   UNL     1     -11.917  11.538  69.507  1.00  0.00    -0.402 C  
HETATM   12  C   UNL     1     -11.268  11.689  65.976  1.00  0.00    -0.240 A  
HETATM   13  C   UNL     1     -10.440  10.641  66.285  1.00  0.00    -0.203 A  
HETATM   14  N   UNL     1      -9.568   9.946  65.401  1.00  0.00    -0.266 N  
HETATM   15  O   UNL     1      -8.785   9.127  65.893  1.00  0.00    -0.141 OA 
HETATM   16  O   UNL     1      -9.635  10.250  64.205  1.00  0.00    -0.280 OA 
ENDBRANCH   7   8
ENDBRANCH   6   7
ENDBRANCH   3   6
ENDBRANCH   2   3
TORSDOF 4
ENDMDL
MODEL      124
REMARK 921   NORMALIZED FREE ENERGY PREDICTED BY IDOCK:   -3.44 KCAL/MOL
REMARK 922        TOTAL FREE ENERGY PREDICTED BY IDOCK:   -4.65 KCAL/MOL
REMARK 923 INTER-LIGAND FREE ENERGY PREDICTED BY IDOCK:   -4.67 KCAL/MOL
REMARK 924 INTRA-LIGAND FREE ENERGY PREDICTED BY IDOCK:    0.02 KCAL/MOL
REMARK 927      BINDING AFFINITY PREDICTED BY RF-SCORE:    0.00 PKD
ROOT
HETATM    1  C   UNL     1     -12.204  12.497  65.550  1.00  0.00    -0.442 C  
HETATM    2  C   UNL     1     -12.725  13.905  65.333  1.00  0.00    -0.490 C  
ENDROOT
BRANCH   2   3
HETATM    3  S   UNL     1     -11.394  15.059  65.037  1.00  0.00    -0.382 S  
HETATM    4  O   UNL     1     -11.847  16.031  64.061  1.00  0.00    -0.762 OA 
HETATM    5  O   UNL     1     -10.172  14.306  64.829  1.00  0.00    -0.412 OA 
BRANCH   3   6
HETATM    6  C   UNL     1     -11.239  15.913  66.588  1.00  0.00     0.061 C  
BRANCH   6   7
HETATM    7  C   UNL     1     -10.464  15.049  67.570  1.00  0.00    -0.256 C  
BRANCH   7   8
HETATM    8  N   UNL     1      -9.204  15.656  67.971  1.00  0.00    -0.184 NA 
HETATM    9  C   UNL     1      -9.067  16.938  68.488  1.00  0.00    -0.257 A  
HETATM   10  N   UNL     1      -7.796  17.236  68.672  1.00  0.00    -0.265 NA 
HETATM   11  C   UNL     1     -10.191  17.866  68.794  1.00  0.00    -0.362 C  
HETATM   12  C   UNL     1      -7.082  16.133  68.294  1.00  0.00    -0.128 A  
HETATM   13  C   UNL     1      -7.933  15.138  67.884  1.00  0.00    -0.135 A  
HETATM   14  N   UNL     1      -7.581  13.821  67.477  1.00  0.00    -0.175 N  
HETATM   15  O   UNL     1      -8.496  13.014  67.287  1.00  0.00    -0.188 OA 
HETATM   16  O   UNL     1      -6.373  13.575  67.385  1.00  0.00    -0.289 OA 
ENDBRANCH   7   8
ENDBRANCH   6   7
ENDBRANCH   3   6
ENDBRANCH   2   3
TORSDOF 4
ENDMDL
MODEL      125
REMARK 921   NORMALIZED FREE ENERGY PREDICTED BY IDOCK:   -3.43 KCAL/MOL
REMARK 922        TOTAL FREE ENERGY PREDICTED BY IDOCK:   -4.64 KCAL/MOL
REMARK 923 INTER-LIGAND FREE ENERGY PREDICTED BY IDOCK:   -4.43 KCAL/MOL
REMARK 924 INTRA-LIGAND FREE ENERGY PREDICTED BY IDOCK:   -0.22 KCAL/MOL
REMARK 927      BINDING AFFINITY PREDICTED BY RF-SCORE:    0.00 PKD
ROOT
HETATM    1  C   UNL     1      -6.202  18.145  68.744  1.00  0.00    -0.208 C  
HETATM    2  C   UNL     1      -6.990  18.361  67.466  1.00  0.00    -0.204 C  
ENDROOT
BRANCH   2   3
HETATM    3  S   UNL     1      -7.834  16.872  66.955  1.00  0.00    -0.221 S  
HETATM    4  O   UNL     1      -6.858  15.802  66.885  1.00  0.00    -0.248 OA 
HETATM    5  O   UNL     1      -8.677  17.189  65.820  1.00  0.00    -0.527 OA 
BRANCH   3   6
HETATM    6  C   UNL     1      -8.901  16.513  68.331  1.00  0.00    -0.218 C  
BRANCH   6   7
HETATM    7  C   UNL     1     -10.275  16.114  67.818  1.00  0.00    -0.267 C  
BRANCH   7   8
HETATM    8  N   UNL     1     -10.644  14.761  68.207  1.00  0.00    -0.237 NA 
HETATM    9  C   UNL     1     -10.505  13.638  67.403  1.00  0.00    -0.251 A  
HETATM   10  N   UNL     1     -11.009  12.572  67.996  1.00  0.00    -0.221 NA 
HETATM   11  C   UNL     1      -9.882  13.619  66.051  1.00  0.00    -0.290 C  
HETATM   12  C   UNL     1     -11.466  12.989  69.214  1.00  0.00    -0.289 A  
HETATM   13  C   UNL     1     -11.227  14.330  69.375  1.00  0.00    -0.273 A  
HETATM   14  N   UNL     1     -11.497  15.118  70.528  1.00  0.00    -0.282 N  
HETATM   15  O   UNL     1     -11.073  16.278  70.544  1.00  0.00    -0.348 OA 
HETATM   16  O   UNL     1     -12.105  14.560  71.449  1.00  0.00    -0.342 OA 
ENDBRANCH   7   8
ENDBRANCH   6   7
ENDBRANCH   3   6
ENDBRANCH   2   3
TORSDOF 4
ENDMDL
MODEL      126
REMARK 921   NORMALIZED FREE ENERGY PREDICTED BY IDOCK:   -3.42 KCAL/MOL
REMARK 922        TOTAL FREE ENERGY PREDICTED BY IDOCK:   -4.64 KCAL/MOL
REMARK 923 INTER-LIGAND FREE ENERGY PREDICTED BY IDOCK:   -4.38 KCAL/MOL
REMARK 924 INTRA-LIGAND FREE ENERGY PREDICTED BY IDOCK:   -0.25 KCAL/MOL
REMARK 927      BINDING AFFINITY PREDICTED BY RF-SCORE:    0.00 PKD
ROOT
HETATM    1  C   UNL     1      -9.716   8.549  66.237  1.00  0.00    -0.300 C  
HETATM    2  C   UNL     1     -10.645   8.750  67.418  1.00  0.00    -0.233 C  
ENDROOT
BRANCH   2   3
HETATM    3  S   UNL     1      -9.761   8.680  68.968  1.00  0.00    -0.177 S  
HETATM    4  O   UNL     1      -8.341   8.638  68.677  1.00  0.00    -0.120 OA 
HETATM    5  O   UNL     1     -10.381   7.672  69.805  1.00  0.00    -0.212 OA 
BRANCH   3   6
HETATM    6  C   UNL     1     -10.094  10.265  69.702  1.00  0.00    -0.224 C  
BRANCH   6   7
HETATM    7  C   UNL     1     -11.355  10.854  69.092  1.00  0.00    -0.283 C  
BRANCH   7   8
HETATM    8  N   UNL     1     -11.719  12.130  69.689  1.00  0.00    -0.321 NA 
HETATM    9  C   UNL     1     -12.475  12.281  70.844  1.00  0.00    -0.276 A  
HETATM   10  N   UNL     1     -12.714  13.556  71.084  1.00  0.00    -0.354 NA 
HETATM   11  C   UNL     1     -12.964  11.168  71.703  1.00  0.00    -0.548 C  
HETATM   12  C   UNL     1     -12.092  14.259  70.090  1.00  0.00    -0.339 A  
HETATM   13  C   UNL     1     -11.450  13.400  69.235  1.00  0.00    -0.290 A  
HETATM   14  N   UNL     1     -10.641  13.747  68.117  1.00  0.00    -0.247 N  
HETATM   15  O   UNL     1     -10.021  12.840  67.554  1.00  0.00    -0.205 OA 
HETATM   16  O   UNL     1     -10.592  14.946  67.822  1.00  0.00    -0.255 OA 
ENDBRANCH   7   8
ENDBRANCH   6   7
ENDBRANCH   3   6
ENDBRANCH   2   3
TORSDOF 4
ENDMDL
MODEL      127
REMARK 921   NORMALIZED FREE ENERGY PREDICTED BY IDOCK:   -3.41 KCAL/MOL
REMARK 922        TOTAL FREE ENERGY PREDICTED BY IDOCK:   -4.62 KCAL/MOL
REMARK 923 INTER-LIGAND FREE ENERGY PREDICTED BY IDOCK:   -4.60 KCAL/MOL
REMARK 924 INTRA-LIGAND FREE ENERGY PREDICTED BY IDOCK:   -0.02 KCAL/MOL
REMARK 927      BINDING AFFINITY PREDICTED BY RF-SCORE:    0.00 PKD
ROOT
HETATM    1  C   UNL     1      -6.109  20.169  70.274  1.00  0.00    -0.393 C  
HETATM    2  C   UNL     1      -5.883  18.782  69.703  1.00  0.00    -0.247 C  
ENDROOT
BRANCH   2   3
HETATM    3  S   UNL     1      -7.116  18.367  68.480  1.00  0.00    -0.280 S  
HETATM    4  O   UNL     1      -6.432  17.948  67.272  1.00  0.00    -0.159 OA 
HETATM    5  O   UNL     1      -8.105  19.426  68.449  1.00  0.00    -0.320 OA 
BRANCH   3   6
HETATM    6  C   UNL     1      -7.899  16.923  69.161  1.00  0.00    -0.116 C  
BRANCH   6   7
HETATM    7  C   UNL     1      -9.379  16.935  68.814  1.00  0.00    -0.260 C  
BRANCH   7   8
HETATM    8  N   UNL     1      -9.648  16.360  67.505  1.00  0.00    -0.226 NA 
HETATM    9  C   UNL     1      -9.407  15.039  67.151  1.00  0.00    -0.215 A  
HETATM   10  N   UNL     1      -9.669  14.840  65.874  1.00  0.00    -0.325 NA 
HETATM   11  C   UNL     1      -8.915  13.978  68.073  1.00  0.00    -0.182 C  
HETATM   12  C   UNL     1     -10.108  16.037  65.380  1.00  0.00    -0.225 A  
HETATM   13  C   UNL     1     -10.129  16.980  66.375  1.00  0.00    -0.317 A  
HETATM   14  N   UNL     1     -10.583  18.324  66.274  1.00  0.00    -0.357 N  
HETATM   15  O   UNL     1     -10.667  18.982  67.316  1.00  0.00    -0.452 OA 
HETATM   16  O   UNL     1     -10.899  18.718  65.146  1.00  0.00    -0.523 OA 
ENDBRANCH   7   8
ENDBRANCH   6   7
ENDBRANCH   3   6
ENDBRANCH   2   3
TORSDOF 4
ENDMDL
MODEL      128
REMARK 921   NORMALIZED FREE ENERGY PREDICTED BY IDOCK:   -3.40 KCAL/MOL
REMARK 922        TOTAL FREE ENERGY PREDICTED BY IDOCK:   -4.61 KCAL/MOL
REMARK 923 INTER-LIGAND FREE ENERGY PREDICTED BY IDOCK:   -4.26 KCAL/MOL
REMARK 924 INTRA-LIGAND FREE ENERGY PREDICTED BY IDOCK:   -0.35 KCAL/MOL
REMARK 927      BINDING AFFINITY PREDICTED BY RF-SCORE:    0.00 PKD
ROOT
HETATM    1  C   UNL     1     -13.651   9.195  72.317  1.00  0.00    -0.548 C  
HETATM    2  C   UNL     1     -12.845   8.356  71.343  1.00  0.00    -0.245 C  
ENDROOT
BRANCH   2   3
HETATM    3  S   UNL     1     -11.183   8.983  71.155  1.00  0.00    -0.335 S  
HETATM    4  O   UNL     1     -10.465   8.736  72.390  1.00  0.00    -0.305 OA 
HETATM    5  O   UNL     1     -11.257  10.316  70.589  1.00  0.00    -0.315 OA 
BRANCH   3   6
HETATM    6  C   UNL     1     -10.479   7.916  69.921  1.00  0.00    -0.229 C  
BRANCH   6   7
HETATM    7  C   UNL     1     -11.333   6.666  69.781  1.00  0.00    -0.354 C  
BRANCH   7   8
HETATM    8  N   UNL     1     -10.540   5.476  69.515  1.00  0.00    -0.306 NA 
HETATM    9  C   UNL     1     -10.008   4.641  70.489  1.00  0.00    -0.225 A  
HETATM   10  N   UNL     1      -9.263   3.699  69.943  1.00  0.00    -0.128 NA 
HETATM   11  C   UNL     1     -10.232   4.777  71.955  1.00  0.00    -0.261 C  
HETATM   12  C   UNL     1      -9.318   3.899  68.592  1.00  0.00    -0.164 A  
HETATM   13  C   UNL     1     -10.121   4.973  68.305  1.00  0.00    -0.103 A  
HETATM   14  N   UNL     1     -10.480   5.457  67.017  1.00  0.00    -0.256 N  
HETATM   15  O   UNL     1     -11.336   6.345  66.955  1.00  0.00    -0.304 OA 
HETATM   16  O   UNL     1      -9.930   4.917  66.050  1.00  0.00    -0.187 OA 
ENDBRANCH   7   8
ENDBRANCH   6   7
ENDBRANCH   3   6
ENDBRANCH   2   3
TORSDOF 4
ENDMDL
MODEL      129
REMARK 921   NORMALIZED FREE ENERGY PREDICTED BY IDOCK:   -3.40 KCAL/MOL
REMARK 922        TOTAL FREE ENERGY PREDICTED BY IDOCK:   -4.61 KCAL/MOL
REMARK 923 INTER-LIGAND FREE ENERGY PREDICTED BY IDOCK:   -4.59 KCAL/MOL
REMARK 924 INTRA-LIGAND FREE ENERGY PREDICTED BY IDOCK:   -0.02 KCAL/MOL
REMARK 927      BINDING AFFINITY PREDICTED BY RF-SCORE:    0.00 PKD
ROOT
HETATM    1  C   UNL     1     -11.150   6.283  68.457  1.00  0.00    -0.397 C  
HETATM    2  C   UNL     1     -10.699   6.852  67.125  1.00  0.00    -0.366 C  
ENDROOT
BRANCH   2   3
HETATM    3  S   UNL     1      -9.567   8.217  67.343  1.00  0.00    -0.172 S  
HETATM    4  O   UNL     1      -9.083   8.616  66.036  1.00  0.00    -0.179 OA 
HETATM    5  O   UNL     1      -8.645   7.882  68.410  1.00  0.00    -0.127 OA 
BRANCH   3   6
HETATM    6  C   UNL     1     -10.614   9.527  67.932  1.00  0.00    -0.244 C  
BRANCH   6   7
HETATM    7  C   UNL     1     -10.084  10.046  69.258  1.00  0.00    -0.213 C  
BRANCH   7   8
HETATM    8  N   UNL     1     -11.148  10.431  70.172  1.00  0.00    -0.300 NA 
HETATM    9  C   UNL     1     -11.873  11.612  70.096  1.00  0.00    -0.344 A  
HETATM   10  N   UNL     1     -12.705  11.718  71.114  1.00  0.00    -0.358 NA 
HETATM   11  C   UNL     1     -11.740  12.636  69.023  1.00  0.00    -0.367 C  
HETATM   12  C   UNL     1     -12.546  10.585  71.862  1.00  0.00    -0.249 A  
HETATM   13  C   UNL     1     -11.610   9.766  71.284  1.00  0.00    -0.390 A  
HETATM   14  N   UNL     1     -11.212   8.473  71.724  1.00  0.00    -0.286 N  
HETATM   15  O   UNL     1     -10.464   7.821  70.989  1.00  0.00    -0.203 OA 
HETATM   16  O   UNL     1     -11.685   8.084  72.798  1.00  0.00    -0.396 OA 
ENDBRANCH   7   8
ENDBRANCH   6   7
ENDBRANCH   3   6
ENDBRANCH   2   3
TORSDOF 4
ENDMDL
MODEL      130
REMARK 921   NORMALIZED FREE ENERGY PREDICTED BY IDOCK:   -3.40 KCAL/MOL
REMARK 922        TOTAL FREE ENERGY PREDICTED BY IDOCK:   -4.60 KCAL/MOL
REMARK 923 INTER-LIGAND FREE ENERGY PREDICTED BY IDOCK:   -4.31 KCAL/MOL
REMARK 924 INTRA-LIGAND FREE ENERGY PREDICTED BY IDOCK:   -0.29 KCAL/MOL
REMARK 927      BINDING AFFINITY PREDICTED BY RF-SCORE:    0.00 PKD
ROOT
HETATM    1  C   UNL     1      -8.419   7.614  66.430  1.00  0.00    -0.137 C  
HETATM    2  C   UNL     1      -8.035   9.059  66.685  1.00  0.00    -0.100 C  
ENDROOT
BRANCH   2   3
HETATM    3  S   UNL     1      -9.448  10.145  66.566  1.00  0.00    -0.177 S  
HETATM    4  O   UNL     1     -10.097   9.905  65.292  1.00  0.00    -0.313 OA 
HETATM    5  O   UNL     1      -9.035  11.479  66.954  1.00  0.00    -0.167 OA 
BRANCH   3   6
HETATM    6  C   UNL     1     -10.541   9.535  67.828  1.00  0.00    -0.261 C  
BRANCH   6   7
HETATM    7  C   UNL     1     -10.124  10.095  69.178  1.00  0.00    -0.213 C  
BRANCH   7   8
HETATM    8  N   UNL     1     -11.262  10.392  70.034  1.00  0.00    -0.295 NA 
HETATM    9  C   UNL     1     -11.957  11.594  70.045  1.00  0.00    -0.351 A  
HETATM   10  N   UNL     1     -12.878  11.594  70.989  1.00  0.00    -0.295 NA 
HETATM   11  C   UNL     1     -11.707  12.740  69.129  1.00  0.00    -0.375 C  
HETATM   12  C   UNL     1     -12.808  10.371  71.596  1.00  0.00    -0.474 A  
HETATM   13  C   UNL     1     -11.837   9.605  71.005  1.00  0.00    -0.347 A  
HETATM   14  N   UNL     1     -11.504   8.256  71.309  1.00  0.00    -0.267 N  
HETATM   15  O   UNL     1     -10.701   7.681  70.567  1.00  0.00    -0.226 OA 
HETATM   16  O   UNL     1     -12.081   7.749  72.277  1.00  0.00    -0.311 OA 
ENDBRANCH   7   8
ENDBRANCH   6   7
ENDBRANCH   3   6
ENDBRANCH   2   3
TORSDOF 4
ENDMDL
MODEL      131
REMARK 921   NORMALIZED FREE ENERGY PREDICTED BY IDOCK:   -3.39 KCAL/MOL
REMARK 922        TOTAL FREE ENERGY PREDICTED BY IDOCK:   -4.59 KCAL/MOL
REMARK 923 INTER-LIGAND FREE ENERGY PREDICTED BY IDOCK:   -4.13 KCAL/MOL
REMARK 924 INTRA-LIGAND FREE ENERGY PREDICTED BY IDOCK:   -0.47 KCAL/MOL
REMARK 927      BINDING AFFINITY PREDICTED BY RF-SCORE:    0.00 PKD
ROOT
HETATM    1  C   UNL     1      -7.272  20.512  67.926  1.00  0.00    -0.288 C  
HETATM    2  C   UNL     1      -8.594  19.800  68.141  1.00  0.00    -0.287 C  
ENDROOT
BRANCH   2   3
HETATM    3  S   UNL     1      -9.295  19.237  66.598  1.00  0.00    -0.356 S  
HETATM    4  O   UNL     1      -8.228  19.158  65.619  1.00  0.00    -0.389 OA 
HETATM    5  O   UNL     1     -10.496  20.004  66.333  1.00  0.00    -0.454 OA 
BRANCH   3   6
HETATM    6  C   UNL     1      -9.794  17.569  66.958  1.00  0.00    -0.295 C  
BRANCH   6   7
HETATM    7  C   UNL     1      -9.138  17.109  68.249  1.00  0.00    -0.259 C  
BRANCH   7   8
HETATM    8  N   UNL     1      -8.306  15.930  68.062  1.00  0.00    -0.158 NA 
HETATM    9  C   UNL     1      -6.950  15.952  67.764  1.00  0.00    -0.149 A  
HETATM   10  N   UNL     1      -6.494  14.731  67.565  1.00  0.00    -0.301 NA 
HETATM   11  C   UNL     1      -6.110  17.178  67.671  1.00  0.00    -0.154 C  
HETATM   12  C   UNL     1      -7.553  13.888  67.754  1.00  0.00    -0.169 A  
HETATM   13  C   UNL     1      -8.673  14.604  68.087  1.00  0.00    -0.168 A  
HETATM   14  N   UNL     1      -9.955  14.087  68.423  1.00  0.00    -0.233 N  
HETATM   15  O   UNL     1     -10.803  14.880  68.843  1.00  0.00    -0.233 OA 
HETATM   16  O   UNL     1     -10.107  12.866  68.305  1.00  0.00    -0.233 OA 
ENDBRANCH   7   8
ENDBRANCH   6   7
ENDBRANCH   3   6
ENDBRANCH   2   3
TORSDOF 4
ENDMDL
MODEL      132
REMARK 921   NORMALIZED FREE ENERGY PREDICTED BY IDOCK:   -3.39 KCAL/MOL
REMARK 922        TOTAL FREE ENERGY PREDICTED BY IDOCK:   -4.59 KCAL/MOL
REMARK 923 INTER-LIGAND FREE ENERGY PREDICTED BY IDOCK:   -4.36 KCAL/MOL
REMARK 924 INTRA-LIGAND FREE ENERGY PREDICTED BY IDOCK:   -0.23 KCAL/MOL
REMARK 927      BINDING AFFINITY PREDICTED BY RF-SCORE:    0.00 PKD
ROOT
HETATM    1  C   UNL     1      -9.337   7.432  73.610  1.00  0.00    -0.306 C  
HETATM    2  C   UNL     1     -10.730   7.668  73.058  1.00  0.00    -0.391 C  
ENDROOT
BRANCH   2   3
HETATM    3  S   UNL     1     -11.193   6.406  71.882  1.00  0.00    -0.295 S  
HETATM    4  O   UNL     1     -12.483   5.872  72.276  1.00  0.00    -0.150 OA 
HETATM    5  O   UNL     1     -10.055   5.532  71.676  1.00  0.00    -0.182 OA 
BRANCH   3   6
HETATM    6  C   UNL     1     -11.446   7.319  70.379  1.00  0.00    -0.248 C  
BRANCH   6   7
HETATM    7  C   UNL     1     -10.444   8.458  70.300  1.00  0.00    -0.218 C  
BRANCH   7   8
HETATM    8  N   UNL     1     -10.784   9.430  69.272  1.00  0.00    -0.227 NA 
HETATM    9  C   UNL     1     -10.484   9.299  67.923  1.00  0.00    -0.236 A  
HETATM   10  N   UNL     1     -10.840  10.381  67.256  1.00  0.00    -0.279 NA 
HETATM   11  C   UNL     1      -9.843   8.111  67.296  1.00  0.00    -0.259 C  
HETATM   12  C   UNL     1     -11.401  11.229  68.169  1.00  0.00    -0.303 A  
HETATM   13  C   UNL     1     -11.401  10.652  69.413  1.00  0.00    -0.284 A  
HETATM   14  N   UNL     1     -11.954  11.188  70.609  1.00  0.00    -0.362 N  
HETATM   15  O   UNL     1     -11.993  10.456  71.603  1.00  0.00    -0.291 OA 
HETATM   16  O   UNL     1     -12.392  12.342  70.546  1.00  0.00    -0.330 OA 
ENDBRANCH   7   8
ENDBRANCH   6   7
ENDBRANCH   3   6
ENDBRANCH   2   3
TORSDOF 4
ENDMDL
MODEL      133
REMARK 921   NORMALIZED FREE ENERGY PREDICTED BY IDOCK:   -3.38 KCAL/MOL
REMARK 922        TOTAL FREE ENERGY PREDICTED BY IDOCK:   -4.58 KCAL/MOL
REMARK 923 INTER-LIGAND FREE ENERGY PREDICTED BY IDOCK:   -4.22 KCAL/MOL
REMARK 924 INTRA-LIGAND FREE ENERGY PREDICTED BY IDOCK:   -0.36 KCAL/MOL
REMARK 927      BINDING AFFINITY PREDICTED BY RF-SCORE:    0.00 PKD
ROOT
HETATM    1  C   UNL     1     -10.808  11.808  65.718  1.00  0.00    -0.341 C  
HETATM    2  C   UNL     1     -10.932  11.342  67.156  1.00  0.00    -0.291 C  
ENDROOT
BRANCH   2   3
HETATM    3  S   UNL     1      -9.592  10.252  67.611  1.00  0.00    -0.153 S  
HETATM    4  O   UNL     1      -8.832  10.889  68.669  1.00  0.00    -0.146 OA 
HETATM    5  O   UNL     1      -8.944   9.792  66.399  1.00  0.00    -0.146 OA 
BRANCH   3   6
HETATM    6  C   UNL     1     -10.424   8.859  68.335  1.00  0.00    -0.187 C  
BRANCH   6   7
HETATM    7  C   UNL     1     -10.005   8.714  69.789  1.00  0.00    -0.190 C  
BRANCH   7   8
HETATM    8  N   UNL     1     -11.041   8.106  70.610  1.00  0.00    -0.253 NA 
HETATM    9  C   UNL     1     -11.132   6.752  70.902  1.00  0.00    -0.277 A  
HETATM   10  N   UNL     1     -12.226   6.493  71.592  1.00  0.00    -0.339 NA 
HETATM   11  C   UNL     1     -10.142   5.716  70.496  1.00  0.00    -0.280 C  
HETATM   12  C   UNL     1     -12.857   7.692  71.777  1.00  0.00    -0.330 A  
HETATM   13  C   UNL     1     -12.130   8.702  71.203  1.00  0.00    -0.260 A  
HETATM   14  N   UNL     1     -12.420  10.095  71.236  1.00  0.00    -0.371 N  
HETATM   15  O   UNL     1     -11.567  10.870  70.791  1.00  0.00    -0.312 OA 
HETATM   16  O   UNL     1     -13.495  10.423  71.749  1.00  0.00    -0.347 OA 
ENDBRANCH   7   8
ENDBRANCH   6   7
ENDBRANCH   3   6
ENDBRANCH   2   3
TORSDOF 4
ENDMDL
MODEL      134
REMARK 921   NORMALIZED FREE ENERGY PREDICTED BY IDOCK:   -3.36 KCAL/MOL
REMARK 922        TOTAL FREE ENERGY PREDICTED BY IDOCK:   -4.56 KCAL/MOL
REMARK 923 INTER-LIGAND FREE ENERGY PREDICTED BY IDOCK:   -4.20 KCAL/MOL
REMARK 924 INTRA-LIGAND FREE ENERGY PREDICTED BY IDOCK:   -0.36 KCAL/MOL
REMARK 927      BINDING AFFINITY PREDICTED BY RF-SCORE:    0.00 PKD
ROOT
HETATM    1  C   UNL     1     -10.757  13.065  66.221  1.00  0.00    -0.290 C  
HETATM    2  C   UNL     1      -9.593  13.954  66.615  1.00  0.00    -0.289 C  
ENDROOT
BRANCH   2   3
HETATM    3  S   UNL     1      -9.770  14.564  68.285  1.00  0.00    -0.223 S  
HETATM    4  O   UNL     1      -8.486  14.443  68.948  1.00  0.00    -0.145 OA 
HETATM    5  O   UNL     1     -10.965  13.982  68.862  1.00  0.00    -0.247 OA 
BRANCH   3   6
HETATM    6  C   UNL     1     -10.075  16.300  68.057  1.00  0.00    -0.245 C  
BRANCH   6   7
HETATM    7  C   UNL     1      -8.875  17.097  68.543  1.00  0.00    -0.265 C  
BRANCH   7   8
HETATM    8  N   UNL     1      -8.713  18.353  67.828  1.00  0.00    -0.264 NA 
HETATM    9  C   UNL     1      -9.377  19.533  68.134  1.00  0.00    -0.350 A  
HETATM   10  N   UNL     1      -9.091  20.473  67.253  1.00  0.00    -0.376 NA 
HETATM   11  C   UNL     1     -10.294  19.730  69.290  1.00  0.00    -0.095 C  
HETATM   12  C   UNL     1      -8.212  19.916  66.366  1.00  0.00    -0.335 A  
HETATM   13  C   UNL     1      -7.945  18.618  66.718  1.00  0.00    -0.255 A  
HETATM   14  N   UNL     1      -7.035  17.727  66.085  1.00  0.00    -0.278 N  
HETATM   15  O   UNL     1      -6.815  16.644  66.635  1.00  0.00    -0.218 OA 
HETATM   16  O   UNL     1      -6.500  18.129  65.045  1.00  0.00    -0.325 OA 
ENDBRANCH   7   8
ENDBRANCH   6   7
ENDBRANCH   3   6
ENDBRANCH   2   3
TORSDOF 4
ENDMDL
MODEL      135
REMARK 921   NORMALIZED FREE ENERGY PREDICTED BY IDOCK:   -3.31 KCAL/MOL
REMARK 922        TOTAL FREE ENERGY PREDICTED BY IDOCK:   -4.50 KCAL/MOL
REMARK 923 INTER-LIGAND FREE ENERGY PREDICTED BY IDOCK:   -4.27 KCAL/MOL
REMARK 924 INTRA-LIGAND FREE ENERGY PREDICTED BY IDOCK:   -0.23 KCAL/MOL
REMARK 927      BINDING AFFINITY PREDICTED BY RF-SCORE:    0.00 PKD
ROOT
HETATM    1  C   UNL     1     -12.390  13.322  65.265  1.00  0.00    -0.525 C  
HETATM    2  C   UNL     1     -11.777  12.734  66.522  1.00  0.00    -0.400 C  
ENDROOT
BRANCH   2   3
HETATM    3  S   UNL     1     -11.542  13.979  67.781  1.00  0.00    -0.365 S  
HETATM    4  O   UNL     1     -12.220  13.538  68.985  1.00  0.00    -0.320 OA 
HETATM    5  O   UNL     1     -11.821  15.277  67.201  1.00  0.00    -0.160 OA 
BRANCH   3   6
HETATM    6  C   UNL     1      -9.797  13.905  68.111  1.00  0.00    -0.240 C  
BRANCH   6   7
HETATM    7  C   UNL     1      -9.024  14.169  66.829  1.00  0.00    -0.208 C  
BRANCH   7   8
HETATM    8  N   UNL     1      -7.722  14.768  67.077  1.00  0.00    -0.103 NA 
HETATM    9  C   UNL     1      -6.639  14.110  67.644  1.00  0.00    -0.155 A  
HETATM   10  N   UNL     1      -5.628  14.939  67.823  1.00  0.00    -0.292 NA 
HETATM   11  C   UNL     1      -6.605  12.668  68.011  1.00  0.00    -0.095 C  
HETATM   12  C   UNL     1      -6.038  16.154  67.350  1.00  0.00    -0.154 A  
HETATM   13  C   UNL     1      -7.316  16.065  66.862  1.00  0.00    -0.201 A  
HETATM   14  N   UNL     1      -8.067  17.094  66.229  1.00  0.00    -0.293 N  
HETATM   15  O   UNL     1      -9.148  16.784  65.717  1.00  0.00    -0.515 OA 
HETATM   16  O   UNL     1      -7.555  18.218  66.207  1.00  0.00    -0.241 OA 
ENDBRANCH   7   8
ENDBRANCH   6   7
ENDBRANCH   3   6
ENDBRANCH   2   3
TORSDOF 4
ENDMDL
MODEL      136
REMARK 921   NORMALIZED FREE ENERGY PREDICTED BY IDOCK:   -3.30 KCAL/MOL
REMARK 922        TOTAL FREE ENERGY PREDICTED BY IDOCK:   -4.49 KCAL/MOL
REMARK 923 INTER-LIGAND FREE ENERGY PREDICTED BY IDOCK:   -4.22 KCAL/MOL
REMARK 924 INTRA-LIGAND FREE ENERGY PREDICTED BY IDOCK:   -0.27 KCAL/MOL
REMARK 927      BINDING AFFINITY PREDICTED BY RF-SCORE:    0.00 PKD
ROOT
HETATM    1  C   UNL     1     -10.692   7.153  67.312  1.00  0.00    -0.399 C  
HETATM    2  C   UNL     1     -10.188   8.538  66.955  1.00  0.00    -0.301 C  
ENDROOT
BRANCH   2   3
HETATM    3  S   UNL     1      -8.751   8.982  67.918  1.00  0.00    -0.128 S  
HETATM    4  O   UNL     1      -8.779  10.414  68.138  1.00  0.00    -0.121 OA 
HETATM    5  O   UNL     1      -7.591   8.339  67.332  1.00  0.00    -0.095 OA 
BRANCH   3   6
HETATM    6  C   UNL     1      -9.054   8.208  69.489  1.00  0.00    -0.151 C  
BRANCH   6   7
HETATM    7  C   UNL     1      -9.330   9.274  70.537  1.00  0.00    -0.264 C  
BRANCH   7   8
HETATM    8  N   UNL     1     -10.661   9.157  71.113  1.00  0.00    -0.281 NA 
HETATM    9  C   UNL     1     -11.768   9.892  70.711  1.00  0.00    -0.341 A  
HETATM   10  N   UNL     1     -12.808   9.630  71.480  1.00  0.00    -0.364 NA 
HETATM   11  C   UNL     1     -11.797  10.854  69.575  1.00  0.00    -0.404 C  
HETATM   12  C   UNL     1     -12.392   8.696  72.387  1.00  0.00    -0.357 A  
HETATM   13  C   UNL     1     -11.079   8.371  72.161  1.00  0.00    -0.345 A  
HETATM   14  N   UNL     1     -10.306   7.396  72.850  1.00  0.00    -0.248 N  
HETATM   15  O   UNL     1      -9.183   7.135  72.406  1.00  0.00    -0.134 OA 
HETATM   16  O   UNL     1     -10.841   6.852  73.822  1.00  0.00    -0.289 OA 
ENDBRANCH   7   8
ENDBRANCH   6   7
ENDBRANCH   3   6
ENDBRANCH   2   3
TORSDOF 4
ENDMDL
MODEL      137
REMARK 921   NORMALIZED FREE ENERGY PREDICTED BY IDOCK:   -3.30 KCAL/MOL
REMARK 922        TOTAL FREE ENERGY PREDICTED BY IDOCK:   -4.49 KCAL/MOL
REMARK 923 INTER-LIGAND FREE ENERGY PREDICTED BY IDOCK:   -4.28 KCAL/MOL
REMARK 924 INTRA-LIGAND FREE ENERGY PREDICTED BY IDOCK:   -0.21 KCAL/MOL
REMARK 927      BINDING AFFINITY PREDICTED BY RF-SCORE:    0.00 PKD
ROOT
HETATM    1  C   UNL     1      -6.514  12.828  67.530  1.00  0.00    -0.161 C  
HETATM    2  C   UNL     1      -6.619  13.760  68.722  1.00  0.00    -0.100 C  
ENDROOT
BRANCH   2   3
HETATM    3  S   UNL     1      -6.866  15.454  68.211  1.00  0.00    -0.127 S  
HETATM    4  O   UNL     1      -5.675  15.894  67.512  1.00  0.00    -0.167 OA 
HETATM    5  O   UNL     1      -7.389  16.201  69.338  1.00  0.00    -0.227 OA 
BRANCH   3   6
HETATM    6  C   UNL     1      -8.163  15.332  67.001  1.00  0.00    -0.233 C  
BRANCH   6   7
HETATM    7  C   UNL     1      -9.374  16.121  67.472  1.00  0.00    -0.217 C  
BRANCH   7   8
HETATM    8  N   UNL     1     -10.555  15.287  67.631  1.00  0.00    -0.264 NA 
HETATM    9  C   UNL     1     -11.066  14.856  68.849  1.00  0.00    -0.257 A  
HETATM   10  N   UNL     1     -12.087  14.042  68.666  1.00  0.00    -0.339 NA 
HETATM   11  C   UNL     1     -10.543  15.245  70.187  1.00  0.00    -0.279 C  
HETATM   12  C   UNL     1     -12.269  13.948  67.315  1.00  0.00    -0.289 A  
HETATM   13  C   UNL     1     -11.352  14.728  66.659  1.00  0.00    -0.347 A  
HETATM   14  N   UNL     1     -11.257  14.947  65.257  1.00  0.00    -0.354 N  
HETATM   15  O   UNL     1     -10.459  15.803  64.862  1.00  0.00    -0.499 OA 
HETATM   16  O   UNL     1     -12.016  14.284  64.541  1.00  0.00    -0.420 OA 
ENDBRANCH   7   8
ENDBRANCH   6   7
ENDBRANCH   3   6
ENDBRANCH   2   3
TORSDOF 4
ENDMDL
MODEL      138
REMARK 921   NORMALIZED FREE ENERGY PREDICTED BY IDOCK:   -3.25 KCAL/MOL
REMARK 922        TOTAL FREE ENERGY PREDICTED BY IDOCK:   -4.43 KCAL/MOL
REMARK 923 INTER-LIGAND FREE ENERGY PREDICTED BY IDOCK:   -4.12 KCAL/MOL
REMARK 924 INTRA-LIGAND FREE ENERGY PREDICTED BY IDOCK:   -0.31 KCAL/MOL
REMARK 927      BINDING AFFINITY PREDICTED BY RF-SCORE:    0.00 PKD
ROOT
HETATM    1  C   UNL     1     -12.262  14.448  68.960  1.00  0.00    -0.233 C  
HETATM    2  C   UNL     1     -11.983  12.967  69.129  1.00  0.00    -0.259 C  
ENDROOT
BRANCH   2   3
HETATM    3  S   UNL     1     -11.301  12.254  67.640  1.00  0.00    -0.334 S  
HETATM    4  O   UNL     1      -9.943  12.740  67.488  1.00  0.00    -0.205 OA 
HETATM    5  O   UNL     1     -12.271  12.404  66.574  1.00  0.00    -0.586 OA 
BRANCH   3   6
HETATM    6  C   UNL     1     -11.193  10.522  68.026  1.00  0.00    -0.294 C  
BRANCH   6   7
HETATM    7  C   UNL     1     -10.291  10.325  69.233  1.00  0.00    -0.231 C  
BRANCH   7   8
HETATM    8  N   UNL     1     -10.140   8.923  69.592  1.00  0.00    -0.194 NA 
HETATM    9  C   UNL     1      -9.142   8.083  69.115  1.00  0.00    -0.145 A  
HETATM   10  N   UNL     1      -9.321   6.850  69.549  1.00  0.00    -0.148 NA 
HETATM   11  C   UNL     1      -8.019   8.497  68.229  1.00  0.00    -0.114 C  
HETATM   12  C   UNL     1     -10.436   6.877  70.339  1.00  0.00    -0.206 A  
HETATM   13  C   UNL     1     -10.941   8.150  70.400  1.00  0.00    -0.247 A  
HETATM   14  N   UNL     1     -12.052   8.597  71.168  1.00  0.00    -0.284 N  
HETATM   15  O   UNL     1     -12.266   9.813  71.215  1.00  0.00    -0.321 OA 
HETATM   16  O   UNL     1     -12.696   7.728  71.767  1.00  0.00    -0.316 OA 
ENDBRANCH   7   8
ENDBRANCH   6   7
ENDBRANCH   3   6
ENDBRANCH   2   3
TORSDOF 4
ENDMDL
MODEL      139
REMARK 921   NORMALIZED FREE ENERGY PREDICTED BY IDOCK:   -3.25 KCAL/MOL
REMARK 922        TOTAL FREE ENERGY PREDICTED BY IDOCK:   -4.42 KCAL/MOL
REMARK 923 INTER-LIGAND FREE ENERGY PREDICTED BY IDOCK:   -3.99 KCAL/MOL
REMARK 924 INTRA-LIGAND FREE ENERGY PREDICTED BY IDOCK:   -0.43 KCAL/MOL
REMARK 927      BINDING AFFINITY PREDICTED BY RF-SCORE:    0.00 PKD
ROOT
HETATM    1  C   UNL     1     -11.373  12.197  64.255  1.00  0.00    -0.426 C  
HETATM    2  C   UNL     1     -10.144  11.884  65.087  1.00  0.00    -0.261 C  
ENDROOT
BRANCH   2   3
HETATM    3  S   UNL     1     -10.587  11.237  66.693  1.00  0.00    -0.269 S  
HETATM    4  O   UNL     1     -10.035   9.901  66.809  1.00  0.00    -0.192 OA 
HETATM    5  O   UNL     1     -11.998  11.484  66.913  1.00  0.00    -0.516 OA 
BRANCH   3   6
HETATM    6  C   UNL     1      -9.680  12.274  67.817  1.00  0.00    -0.199 C  
BRANCH   6   7
HETATM    7  C   UNL     1      -9.124  13.474  67.067  1.00  0.00    -0.244 C  
BRANCH   7   8
HETATM    8  N   UNL     1      -9.464  14.736  67.707  1.00  0.00    -0.202 NA 
HETATM    9  C   UNL     1     -10.670  15.406  67.552  1.00  0.00    -0.295 A  
HETATM   10  N   UNL     1     -10.646  16.564  68.183  1.00  0.00    -0.315 NA 
HETATM   11  C   UNL     1     -11.839  14.906  66.778  1.00  0.00    -0.187 C  
HETATM   12  C   UNL     1      -9.420  16.653  68.780  1.00  0.00    -0.258 A  
HETATM   13  C   UNL     1      -8.686  15.525  68.522  1.00  0.00    -0.184 A  
HETATM   14  N   UNL     1      -7.390  15.211  69.017  1.00  0.00    -0.142 N  
HETATM   15  O   UNL     1      -6.949  14.078  68.798  1.00  0.00    -0.095 OA 
HETATM   16  O   UNL     1      -6.819  16.092  69.670  1.00  0.00    -0.203 OA 
ENDBRANCH   7   8
ENDBRANCH   6   7
ENDBRANCH   3   6
ENDBRANCH   2   3
TORSDOF 4
ENDMDL
MODEL      140
REMARK 921   NORMALIZED FREE ENERGY PREDICTED BY IDOCK:   -3.24 KCAL/MOL
REMARK 922        TOTAL FREE ENERGY PREDICTED BY IDOCK:   -4.41 KCAL/MOL
REMARK 923 INTER-LIGAND FREE ENERGY PREDICTED BY IDOCK:   -4.04 KCAL/MOL
REMARK 924 INTRA-LIGAND FREE ENERGY PREDICTED BY IDOCK:   -0.38 KCAL/MOL
REMARK 927      BINDING AFFINITY PREDICTED BY RF-SCORE:    0.00 PKD
ROOT
HETATM    1  C   UNL     1      -7.918   5.856  66.717  1.00  0.00    -0.102 C  
HETATM    2  C   UNL     1      -9.284   6.008  67.359  1.00  0.00    -0.109 C  
ENDROOT
BRANCH   2   3
HETATM    3  S   UNL     1      -9.627   7.710  67.778  1.00  0.00    -0.148 S  
HETATM    4  O   UNL     1     -10.432   8.283  66.717  1.00  0.00    -0.318 OA 
HETATM    5  O   UNL     1      -8.389   8.337  68.197  1.00  0.00    -0.126 OA 
BRANCH   3   6
HETATM    6  C   UNL     1     -10.672   7.577  69.210  1.00  0.00    -0.176 C  
BRANCH   6   7
HETATM    7  C   UNL     1     -10.152   8.492  70.306  1.00  0.00    -0.186 C  
BRANCH   7   8
HETATM    8  N   UNL     1     -11.216   9.235  70.964  1.00  0.00    -0.292 NA 
HETATM    9  C   UNL     1     -11.925   8.794  72.074  1.00  0.00    -0.376 A  
HETATM   10  N   UNL     1     -12.885   9.644  72.384  1.00  0.00    -0.307 NA 
HETATM   11  C   UNL     1     -11.658   7.535  72.820  1.00  0.00    -0.299 C  
HETATM   12  C   UNL     1     -12.798  10.670  71.485  1.00  0.00    -0.462 A  
HETATM   13  C   UNL     1     -11.759  10.450  70.617  1.00  0.00    -0.351 A  
HETATM   14  N   UNL     1     -11.308  11.315  69.582  1.00  0.00    -0.278 N  
HETATM   15  O   UNL     1     -10.260  11.017  69.000  1.00  0.00    -0.210 OA 
HETATM   16  O   UNL     1     -11.984  12.328  69.373  1.00  0.00    -0.297 OA 
ENDBRANCH   7   8
ENDBRANCH   6   7
ENDBRANCH   3   6
ENDBRANCH   2   3
TORSDOF 4
ENDMDL
MODEL      141
REMARK 921   NORMALIZED FREE ENERGY PREDICTED BY IDOCK:   -3.24 KCAL/MOL
REMARK 922        TOTAL FREE ENERGY PREDICTED BY IDOCK:   -4.41 KCAL/MOL
REMARK 923 INTER-LIGAND FREE ENERGY PREDICTED BY IDOCK:   -4.15 KCAL/MOL
REMARK 924 INTRA-LIGAND FREE ENERGY PREDICTED BY IDOCK:   -0.26 KCAL/MOL
REMARK 927      BINDING AFFINITY PREDICTED BY RF-SCORE:    0.00 PKD
ROOT
HETATM    1  C   UNL     1      -8.681  18.246  67.760  1.00  0.00    -0.263 C  
HETATM    2  C   UNL     1      -8.379  16.908  68.409  1.00  0.00    -0.238 C  
ENDROOT
BRANCH   2   3
HETATM    3  S   UNL     1      -9.392  15.604  67.727  1.00  0.00    -0.202 S  
HETATM    4  O   UNL     1      -9.220  15.605  66.287  1.00  0.00    -0.275 OA 
HETATM    5  O   UNL     1     -10.711  15.690  68.322  1.00  0.00    -0.263 OA 
BRANCH   3   6
HETATM    6  C   UNL     1      -8.623  14.124  68.342  1.00  0.00    -0.176 C  
BRANCH   6   7
HETATM    7  C   UNL     1      -8.867  12.982  67.369  1.00  0.00    -0.203 C  
BRANCH   7   8
HETATM    8  N   UNL     1     -10.007  12.162  67.747  1.00  0.00    -0.193 NA 
HETATM    9  C   UNL     1     -11.299  12.325  67.265  1.00  0.00    -0.328 A  
HETATM   10  N   UNL     1     -12.130  11.490  67.860  1.00  0.00    -0.605 NA 
HETATM   11  C   UNL     1     -11.711  13.305  66.224  1.00  0.00    -0.412 C  
HETATM   12  C   UNL     1     -11.378  10.752  68.730  1.00  0.00    -0.288 A  
HETATM   13  C   UNL     1     -10.062  11.131  68.657  1.00  0.00    -0.200 A  
HETATM   14  N   UNL     1      -8.964  10.559  69.356  1.00  0.00    -0.141 N  
HETATM   15  O   UNL     1      -7.828  10.934  69.048  1.00  0.00    -0.132 OA 
HETATM   16  O   UNL     1      -9.233   9.694  70.197  1.00  0.00    -0.226 OA 
ENDBRANCH   7   8
ENDBRANCH   6   7
ENDBRANCH   3   6
ENDBRANCH   2   3
TORSDOF 4
ENDMDL
MODEL      142
REMARK 921   NORMALIZED FREE ENERGY PREDICTED BY IDOCK:   -3.23 KCAL/MOL
REMARK 922        TOTAL FREE ENERGY PREDICTED BY IDOCK:   -4.39 KCAL/MOL
REMARK 923 INTER-LIGAND FREE ENERGY PREDICTED BY IDOCK:   -4.14 KCAL/MOL
REMARK 924 INTRA-LIGAND FREE ENERGY PREDICTED BY IDOCK:   -0.25 KCAL/MOL
REMARK 927      BINDING AFFINITY PREDICTED BY RF-SCORE:    0.00 PKD
ROOT
HETATM    1  C   UNL     1     -11.069  13.634  66.002  1.00  0.00    -0.297 C  
HETATM    2  C   UNL     1     -11.014  14.759  67.018  1.00  0.00    -0.324 C  
ENDROOT
BRANCH   2   3
HETATM    3  S   UNL     1     -10.223  16.213  66.346  1.00  0.00    -0.319 S  
HETATM    4  O   UNL     1     -10.890  17.381  66.886  1.00  0.00    -0.175 OA 
HETATM    5  O   UNL     1     -10.074  16.033  64.915  1.00  0.00    -0.419 OA 
BRANCH   3   6
HETATM    6  C   UNL     1      -8.597  16.165  67.063  1.00  0.00    -0.205 C  
BRANCH   6   7
HETATM    7  C   UNL     1      -8.666  16.622  68.511  1.00  0.00    -0.242 C  
BRANCH   7   8
HETATM    8  N   UNL     1      -7.352  16.892  69.073  1.00  0.00    -0.240 NA 
HETATM    9  C   UNL     1      -6.518  15.938  69.641  1.00  0.00    -0.186 A  
HETATM   10  N   UNL     1      -5.436  16.500  70.143  1.00  0.00    -0.189 NA 
HETATM   11  C   UNL     1      -6.795  14.476  69.692  1.00  0.00    -0.142 C  
HETATM   12  C   UNL     1      -5.542  17.838  69.886  1.00  0.00    -0.241 A  
HETATM   13  C   UNL     1      -6.702  18.098  69.204  1.00  0.00    -0.246 A  
HETATM   14  N   UNL     1      -7.140  19.355  68.702  1.00  0.00    -0.314 N  
HETATM   15  O   UNL     1      -8.142  19.367  67.980  1.00  0.00    -0.291 OA 
HETATM   16  O   UNL     1      -6.453  20.338  68.998  1.00  0.00    -0.312 OA 
ENDBRANCH   7   8
ENDBRANCH   6   7
ENDBRANCH   3   6
ENDBRANCH   2   3
TORSDOF 4
ENDMDL
MODEL      143
REMARK 921   NORMALIZED FREE ENERGY PREDICTED BY IDOCK:   -3.23 KCAL/MOL
REMARK 922        TOTAL FREE ENERGY PREDICTED BY IDOCK:   -4.39 KCAL/MOL
REMARK 923 INTER-LIGAND FREE ENERGY PREDICTED BY IDOCK:   -4.29 KCAL/MOL
REMARK 924 INTRA-LIGAND FREE ENERGY PREDICTED BY IDOCK:   -0.10 KCAL/MOL
REMARK 927      BINDING AFFINITY PREDICTED BY RF-SCORE:    0.00 PKD
ROOT
HETATM    1  C   UNL     1     -12.224  13.937  64.059  1.00  0.00    -0.413 C  
HETATM    2  C   UNL     1     -12.739  14.147  65.470  1.00  0.00    -0.443 C  
ENDROOT
BRANCH   2   3
HETATM    3  S   UNL     1     -11.450  13.904  66.682  1.00  0.00    -0.373 S  
HETATM    4  O   UNL     1     -12.017  13.182  67.805  1.00  0.00    -0.350 OA 
HETATM    5  O   UNL     1     -10.760  15.164  66.877  1.00  0.00    -0.296 OA 
BRANCH   3   6
HETATM    6  C   UNL     1     -10.324  12.797  65.867  1.00  0.00    -0.283 C  
BRANCH   6   7
HETATM    7  C   UNL     1     -10.952  11.417  65.761  1.00  0.00    -0.194 C  
BRANCH   7   8
HETATM    8  N   UNL     1      -9.974  10.380  65.472  1.00  0.00    -0.267 NA 
HETATM    9  C   UNL     1      -9.448  10.110  64.216  1.00  0.00    -0.305 A  
HETATM   10  N   UNL     1      -8.655   9.057  64.256  1.00  0.00    -0.178 NA 
HETATM   11  C   UNL     1      -9.733  10.889  62.979  1.00  0.00    -0.380 C  
HETATM   12  C   UNL     1      -8.638   8.636  65.556  1.00  0.00    -0.175 A  
HETATM   13  C   UNL     1      -9.423   9.454  66.328  1.00  0.00    -0.214 A  
HETATM   14  N   UNL     1      -9.612   9.384  67.736  1.00  0.00    -0.132 N  
HETATM   15  O   UNL     1     -10.237  10.301  68.278  1.00  0.00    -0.149 OA 
HETATM   16  O   UNL     1      -9.095   8.423  68.316  1.00  0.00    -0.139 OA 
ENDBRANCH   7   8
ENDBRANCH   6   7
ENDBRANCH   3   6
ENDBRANCH   2   3
TORSDOF 4
ENDMDL
MODEL      144
REMARK 921   NORMALIZED FREE ENERGY PREDICTED BY IDOCK:   -3.22 KCAL/MOL
REMARK 922        TOTAL FREE ENERGY PREDICTED BY IDOCK:   -4.39 KCAL/MOL
REMARK 923 INTER-LIGAND FREE ENERGY PREDICTED BY IDOCK:   -4.15 KCAL/MOL
REMARK 924 INTRA-LIGAND FREE ENERGY PREDICTED BY IDOCK:   -0.24 KCAL/MOL
REMARK 927      BINDING AFFINITY PREDICTED BY RF-SCORE:    0.00 PKD
ROOT
HETATM    1  C   UNL     1     -10.580   8.215  67.231  1.00  0.00    -0.344 C  
HETATM    2  C   UNL     1      -9.926   9.580  67.150  1.00  0.00    -0.204 C  
ENDROOT
BRANCH   2   3
HETATM    3  S   UNL     1     -10.794  10.784  68.144  1.00  0.00    -0.259 S  
HETATM    4  O   UNL     1     -11.882  11.324  67.352  1.00  0.00    -0.590 OA 
HETATM    5  O   UNL     1      -9.817  11.658  68.763  1.00  0.00    -0.193 OA 
BRANCH   3   6
HETATM    6  C   UNL     1     -11.526   9.802  69.432  1.00  0.00     0.034 C  
BRANCH   6   7
HETATM    7  C   UNL     1     -10.964  10.227  70.779  1.00  0.00    -0.141 C  
BRANCH   7   8
HETATM    8  N   UNL     1     -10.691   9.095  71.651  1.00  0.00    -0.365 NA 
HETATM    9  C   UNL     1     -11.640   8.441  72.426  1.00  0.00    -0.380 A  
HETATM   10  N   UNL     1     -11.075   7.515  73.176  1.00  0.00    -0.376 NA 
HETATM   11  C   UNL     1     -13.100   8.734  72.427  1.00  0.00    -0.444 C  
HETATM   12  C   UNL     1      -9.741   7.541  72.881  1.00  0.00    -0.207 A  
HETATM   13  C   UNL     1      -9.487   8.489  71.924  1.00  0.00    -0.280 A  
HETATM   14  N   UNL     1      -8.236   8.775  71.309  1.00  0.00    -0.160 N  
HETATM   15  O   UNL     1      -8.231   9.561  70.356  1.00  0.00    -0.173 OA 
HETATM   16  O   UNL     1      -7.251   8.176  71.754  1.00  0.00    -0.070 OA 
ENDBRANCH   7   8
ENDBRANCH   6   7
ENDBRANCH   3   6
ENDBRANCH   2   3
TORSDOF 4
ENDMDL
MODEL      145
REMARK 921   NORMALIZED FREE ENERGY PREDICTED BY IDOCK:   -3.22 KCAL/MOL
REMARK 922        TOTAL FREE ENERGY PREDICTED BY IDOCK:   -4.39 KCAL/MOL
REMARK 923 INTER-LIGAND FREE ENERGY PREDICTED BY IDOCK:   -4.10 KCAL/MOL
REMARK 924 INTRA-LIGAND FREE ENERGY PREDICTED BY IDOCK:   -0.28 KCAL/MOL
REMARK 927      BINDING AFFINITY PREDICTED BY RF-SCORE:    0.00 PKD
ROOT
HETATM    1  C   UNL     1      -9.902  10.568  65.344  1.00  0.00    -0.335 C  
HETATM    2  C   UNL     1     -10.376  11.280  66.596  1.00  0.00    -0.237 C  
ENDROOT
BRANCH   2   3
HETATM    3  S   UNL     1     -11.456  12.647  66.204  1.00  0.00    -0.385 S  
HETATM    4  O   UNL     1     -12.536  12.147  65.376  1.00  0.00    -0.523 OA 
HETATM    5  O   UNL     1     -10.641  13.766  65.773  1.00  0.00    -0.281 OA 
BRANCH   3   6
HETATM    6  C   UNL     1     -12.164  13.075  67.778  1.00  0.00    -0.027 C  
BRANCH   6   7
HETATM    7  C   UNL     1     -11.070  13.125  68.832  1.00  0.00    -0.266 C  
BRANCH   7   8
HETATM    8  N   UNL     1     -10.932  14.444  69.430  1.00  0.00    -0.250 NA 
HETATM    9  C   UNL     1     -11.865  15.039  70.269  1.00  0.00    -0.309 A  
HETATM   10  N   UNL     1     -11.502  16.269  70.576  1.00  0.00    -0.334 NA 
HETATM   11  C   UNL     1     -13.113  14.393  70.760  1.00  0.00    -0.344 C  
HETATM   12  C   UNL     1     -10.305  16.486  69.952  1.00  0.00    -0.083 A  
HETATM   13  C   UNL     1      -9.923  15.364  69.262  1.00  0.00    -0.256 A  
HETATM   14  N   UNL     1      -8.713  15.172  68.539  1.00  0.00    -0.164 N  
HETATM   15  O   UNL     1      -8.475  14.040  68.107  1.00  0.00    -0.155 OA 
HETATM   16  O   UNL     1      -7.969  16.154  68.435  1.00  0.00    -0.150 OA 
ENDBRANCH   7   8
ENDBRANCH   6   7
ENDBRANCH   3   6
ENDBRANCH   2   3
TORSDOF 4
ENDMDL
MODEL      146
REMARK 921   NORMALIZED FREE ENERGY PREDICTED BY IDOCK:   -3.22 KCAL/MOL
REMARK 922        TOTAL FREE ENERGY PREDICTED BY IDOCK:   -4.38 KCAL/MOL
REMARK 923 INTER-LIGAND FREE ENERGY PREDICTED BY IDOCK:   -4.17 KCAL/MOL
REMARK 924 INTRA-LIGAND FREE ENERGY PREDICTED BY IDOCK:   -0.21 KCAL/MOL
REMARK 927      BINDING AFFINITY PREDICTED BY RF-SCORE:    0.00 PKD
ROOT
HETATM    1  C   UNL     1      -8.563   7.997  69.587  1.00  0.00    -0.135 C  
HETATM    2  C   UNL     1      -9.222   9.187  70.256  1.00  0.00    -0.218 C  
ENDROOT
BRANCH   2   3
HETATM    3  S   UNL     1     -10.923   8.844  70.679  1.00  0.00    -0.252 S  
HETATM    4  O   UNL     1     -11.087   9.065  72.103  1.00  0.00    -0.350 OA 
HETATM    5  O   UNL     1     -11.301   7.584  70.071  1.00  0.00    -0.212 OA 
BRANCH   3   6
HETATM    6  C   UNL     1     -11.821  10.132  69.846  1.00  0.00    -0.135 C  
BRANCH   6   7
HETATM    7  C   UNL     1     -10.917  11.337  69.647  1.00  0.00    -0.151 C  
BRANCH   7   8
HETATM    8  N   UNL     1     -11.409  12.238  68.616  1.00  0.00    -0.266 NA 
HETATM    9  C   UNL     1     -11.382  11.977  67.253  1.00  0.00    -0.330 A  
HETATM   10  N   UNL     1     -11.813  13.018  66.568  1.00  0.00    -0.391 NA 
HETATM   11  C   UNL     1     -10.926  10.704  66.630  1.00  0.00    -0.144 C  
HETATM   12  C   UNL     1     -12.150  13.972  67.487  1.00  0.00    -0.326 A  
HETATM   13  C   UNL     1     -11.934  13.502  68.757  1.00  0.00    -0.339 A  
HETATM   14  N   UNL     1     -12.220  14.169  69.980  1.00  0.00    -0.341 N  
HETATM   15  O   UNL     1     -12.097  13.526  71.027  1.00  0.00    -0.311 OA 
HETATM   16  O   UNL     1     -12.612  15.338  69.894  1.00  0.00    -0.275 OA 
ENDBRANCH   7   8
ENDBRANCH   6   7
ENDBRANCH   3   6
ENDBRANCH   2   3
TORSDOF 4
ENDMDL
MODEL      147
REMARK 921   NORMALIZED FREE ENERGY PREDICTED BY IDOCK:   -3.20 KCAL/MOL
REMARK 922        TOTAL FREE ENERGY PREDICTED BY IDOCK:   -4.36 KCAL/MOL
REMARK 923 INTER-LIGAND FREE ENERGY PREDICTED BY IDOCK:   -4.04 KCAL/MOL
REMARK 924 INTRA-LIGAND FREE ENERGY PREDICTED BY IDOCK:   -0.32 KCAL/MOL
REMARK 927      BINDING AFFINITY PREDICTED BY RF-SCORE:    0.00 PKD
ROOT
HETATM    1  C   UNL     1      -6.997  10.991  69.400  1.00  0.00    -0.126 C  
HETATM    2  C   UNL     1      -7.294  10.181  68.152  1.00  0.00    -0.082 C  
ENDROOT
BRANCH   2   3
HETATM    3  S   UNL     1      -8.576   8.972  68.444  1.00  0.00    -0.130 S  
HETATM    4  O   UNL     1      -7.961   7.793  69.022  1.00  0.00    -0.118 OA 
HETATM    5  O   UNL     1      -9.397   8.877  67.253  1.00  0.00    -0.135 OA 
BRANCH   3   6
HETATM    6  C   UNL     1      -9.564   9.721  69.718  1.00  0.00    -0.230 C  
BRANCH   6   7
HETATM    7  C   UNL     1     -11.020   9.748  69.283  1.00  0.00    -0.193 C  
BRANCH   7   8
HETATM    8  N   UNL     1     -11.934   9.902  70.405  1.00  0.00    -0.232 NA 
HETATM    9  C   UNL     1     -12.425  11.114  70.869  1.00  0.00    -0.409 A  
HETATM   10  N   UNL     1     -13.158  10.939  71.952  1.00  0.00    -0.487 NA 
HETATM   11  C   UNL     1     -12.167  12.442  70.247  1.00  0.00    -0.345 C  
HETATM   12  C   UNL     1     -13.170   9.594  72.196  1.00  0.00    -0.444 A  
HETATM   13  C   UNL     1     -12.443   8.934  71.239  1.00  0.00    -0.272 A  
HETATM   14  N   UNL     1     -12.272   7.527  71.109  1.00  0.00    -0.315 N  
HETATM   15  O   UNL     1     -11.707   7.109  70.093  1.00  0.00    -0.221 OA 
HETATM   16  O   UNL     1     -12.742   6.827  72.012  1.00  0.00    -0.301 OA 
ENDBRANCH   7   8
ENDBRANCH   6   7
ENDBRANCH   3   6
ENDBRANCH   2   3
TORSDOF 4
ENDMDL
MODEL      148
REMARK 921   NORMALIZED FREE ENERGY PREDICTED BY IDOCK:   -3.19 KCAL/MOL
REMARK 922        TOTAL FREE ENERGY PREDICTED BY IDOCK:   -4.35 KCAL/MOL
REMARK 923 INTER-LIGAND FREE ENERGY PREDICTED BY IDOCK:   -4.03 KCAL/MOL
REMARK 924 INTRA-LIGAND FREE ENERGY PREDICTED BY IDOCK:   -0.32 KCAL/MOL
REMARK 927      BINDING AFFINITY PREDICTED BY RF-SCORE:    0.00 PKD
ROOT
HETATM    1  C   UNL     1      -7.416   5.166  70.041  1.00  0.00    -0.063 C  
HETATM    2  C   UNL     1      -8.220   6.306  69.445  1.00  0.00    -0.114 C  
ENDROOT
BRANCH   2   3
HETATM    3  S   UNL     1      -9.735   5.722  68.702  1.00  0.00    -0.139 S  
HETATM    4  O   UNL     1     -10.357   4.786  69.619  1.00  0.00    -0.217 OA 
HETATM    5  O   UNL     1      -9.459   5.350  67.329  1.00  0.00    -0.117 OA 
BRANCH   3   6
HETATM    6  C   UNL     1     -10.761   7.173  68.667  1.00  0.00    -0.163 C  
BRANCH   6   7
HETATM    7  C   UNL     1      -9.918   8.400  68.974  1.00  0.00    -0.190 C  
BRANCH   7   8
HETATM    8  N   UNL     1     -10.720   9.532  69.414  1.00  0.00    -0.226 NA 
HETATM    9  C   UNL     1     -11.132   9.754  70.721  1.00  0.00    -0.345 A  
HETATM   10  N   UNL     1     -11.920  10.810  70.790  1.00  0.00    -0.348 NA 
HETATM   11  C   UNL     1     -10.751   8.923  71.896  1.00  0.00    -0.426 C  
HETATM   12  C   UNL     1     -12.014  11.305  69.520  1.00  0.00    -0.351 A  
HETATM   13  C   UNL     1     -11.261  10.548  68.660  1.00  0.00    -0.270 A  
HETATM   14  N   UNL     1     -11.051  10.777  67.272  1.00  0.00    -0.303 N  
HETATM   15  O   UNL     1     -10.218  10.073  66.693  1.00  0.00    -0.217 OA 
HETATM   16  O   UNL     1     -11.696  11.699  66.761  1.00  0.00    -0.541 OA 
ENDBRANCH   7   8
ENDBRANCH   6   7
ENDBRANCH   3   6
ENDBRANCH   2   3
TORSDOF 4
ENDMDL
MODEL      149
REMARK 921   NORMALIZED FREE ENERGY PREDICTED BY IDOCK:   -3.19 KCAL/MOL
REMARK 922        TOTAL FREE ENERGY PREDICTED BY IDOCK:   -4.35 KCAL/MOL
REMARK 923 INTER-LIGAND FREE ENERGY PREDICTED BY IDOCK:   -4.02 KCAL/MOL
REMARK 924 INTRA-LIGAND FREE ENERGY PREDICTED BY IDOCK:   -0.33 KCAL/MOL
REMARK 927      BINDING AFFINITY PREDICTED BY RF-SCORE:    0.00 PKD
ROOT
HETATM    1  C   UNL     1     -14.035   9.106  72.543  1.00  0.00    -0.453 C  
HETATM    2  C   UNL     1     -13.218   7.978  71.942  1.00  0.00    -0.301 C  
ENDROOT
BRANCH   2   3
HETATM    3  S   UNL     1     -11.699   8.581  71.221  1.00  0.00    -0.292 S  
HETATM    4  O   UNL     1     -11.207   7.576  70.298  1.00  0.00    -0.272 OA 
HETATM    5  O   UNL     1     -10.857   9.093  72.284  1.00  0.00    -0.199 OA 
BRANCH   3   6
HETATM    6  C   UNL     1     -12.231   9.967  70.244  1.00  0.00    -0.112 C  
BRANCH   6   7
HETATM    7  C   UNL     1     -11.021  10.778  69.808  1.00  0.00    -0.252 C  
BRANCH   7   8
HETATM    8  N   UNL     1     -11.205  11.398  68.505  1.00  0.00    -0.226 NA 
HETATM    9  C   UNL     1     -11.893  12.583  68.279  1.00  0.00    -0.309 A  
HETATM   10  N   UNL     1     -11.967  12.842  66.987  1.00  0.00    -0.446 NA 
HETATM   11  C   UNL     1     -12.479  13.452  69.335  1.00  0.00     0.046 C  
HETATM   12  C   UNL     1     -11.303  11.830  66.352  1.00  0.00    -0.297 A  
HETATM   13  C   UNL     1     -10.802  10.944  67.271  1.00  0.00    -0.287 A  
HETATM   14  N   UNL     1     -10.001   9.798  67.010  1.00  0.00    -0.191 N  
HETATM   15  O   UNL     1      -9.516   9.203  67.978  1.00  0.00    -0.140 OA 
HETATM   16  O   UNL     1      -9.818   9.509  65.822  1.00  0.00    -0.285 OA 
ENDBRANCH   7   8
ENDBRANCH   6   7
ENDBRANCH   3   6
ENDBRANCH   2   3
TORSDOF 4
ENDMDL
MODEL      150
REMARK 921   NORMALIZED FREE ENERGY PREDICTED BY IDOCK:   -3.18 KCAL/MOL
REMARK 922        TOTAL FREE ENERGY PREDICTED BY IDOCK:   -4.34 KCAL/MOL
REMARK 923 INTER-LIGAND FREE ENERGY PREDICTED BY IDOCK:   -4.09 KCAL/MOL
REMARK 924 INTRA-LIGAND FREE ENERGY PREDICTED BY IDOCK:   -0.25 KCAL/MOL
REMARK 927      BINDING AFFINITY PREDICTED BY RF-SCORE:    0.00 PKD
ROOT
HETATM    1  C   UNL     1     -10.882  14.275  65.977  1.00  0.00    -0.303 C  
HETATM    2  C   UNL     1     -10.908  15.335  67.062  1.00  0.00    -0.321 C  
ENDROOT
BRANCH   2   3
HETATM    3  S   UNL     1     -10.395  16.927  66.437  1.00  0.00    -0.270 S  
HETATM    4  O   UNL     1     -11.099  17.953  67.181  1.00  0.00    -0.101 OA 
HETATM    5  O   UNL     1     -10.445  16.889  64.989  1.00  0.00    -0.675 OA 
BRANCH   3   6
HETATM    6  C   UNL     1      -8.685  17.023  66.911  1.00  0.00    -0.227 C  
BRANCH   6   7
HETATM    7  C   UNL     1      -8.583  17.393  68.381  1.00  0.00    -0.270 C  
BRANCH   7   8
HETATM    8  N   UNL     1      -7.265  17.892  68.741  1.00  0.00    -0.270 NA 
HETATM    9  C   UNL     1      -6.795  19.169  68.465  1.00  0.00    -0.277 A  
HETATM   10  N   UNL     1      -5.535  19.295  68.833  1.00  0.00    -0.194 NA 
HETATM   11  C   UNL     1      -7.590  20.260  67.835  1.00  0.00    -0.279 C  
HETATM   12  C   UNL     1      -5.171  18.095  69.378  1.00  0.00    -0.190 A  
HETATM   13  C   UNL     1      -6.230  17.225  69.355  1.00  0.00    -0.245 A  
HETATM   14  N   UNL     1      -6.269  15.906  69.886  1.00  0.00    -0.174 N  
HETATM   15  O   UNL     1      -7.360  15.327  69.907  1.00  0.00    -0.180 OA 
HETATM   16  O   UNL     1      -5.206  15.455  70.326  1.00  0.00    -0.112 OA 
ENDBRANCH   7   8
ENDBRANCH   6   7
ENDBRANCH   3   6
ENDBRANCH   2   3
TORSDOF 4
ENDMDL
MODEL      151
REMARK 921   NORMALIZED FREE ENERGY PREDICTED BY IDOCK:   -3.16 KCAL/MOL
REMARK 922        TOTAL FREE ENERGY PREDICTED BY IDOCK:   -4.32 KCAL/MOL
REMARK 923 INTER-LIGAND FREE ENERGY PREDICTED BY IDOCK:   -4.33 KCAL/MOL
REMARK 924 INTRA-LIGAND FREE ENERGY PREDICTED BY IDOCK:    0.02 KCAL/MOL
REMARK 927      BINDING AFFINITY PREDICTED BY RF-SCORE:    0.00 PKD
ROOT
HETATM    1  C   UNL     1      -9.013  20.518  67.162  1.00  0.00    -0.417 C  
HETATM    2  C   UNL     1     -10.152  19.679  67.709  1.00  0.00    -0.413 C  
ENDROOT
BRANCH   2   3
HETATM    3  S   UNL     1     -10.023  17.976  67.185  1.00  0.00    -0.342 S  
HETATM    4  O   UNL     1     -10.504  17.885  65.820  1.00  0.00    -0.564 OA 
HETATM    5  O   UNL     1     -10.572  17.132  68.228  1.00  0.00    -0.348 OA 
BRANCH   3   6
HETATM    6  C   UNL     1      -8.268  17.694  67.137  1.00  0.00    -0.214 C  
BRANCH   6   7
HETATM    7  C   UNL     1      -7.973  16.461  66.299  1.00  0.00    -0.229 C  
BRANCH   7   8
HETATM    8  N   UNL     1      -8.130  15.225  67.050  1.00  0.00    -0.212 NA 
HETATM    9  C   UNL     1      -7.466  14.923  68.232  1.00  0.00    -0.113 A  
HETATM   10  N   UNL     1      -7.745  13.696  68.626  1.00  0.00    -0.128 NA 
HETATM   11  C   UNL     1      -6.554  15.844  68.965  1.00  0.00    -0.142 C  
HETATM   12  C   UNL     1      -8.621  13.186  67.708  1.00  0.00    -0.188 A  
HETATM   13  C   UNL     1      -8.891  14.122  66.743  1.00  0.00    -0.167 A  
HETATM   14  N   UNL     1      -9.800  13.995  65.656  1.00  0.00    -0.268 N  
HETATM   15  O   UNL     1     -10.024  15.001  64.975  1.00  0.00    -0.307 OA 
HETATM   16  O   UNL     1     -10.328  12.888  65.503  1.00  0.00    -0.283 OA 
ENDBRANCH   7   8
ENDBRANCH   6   7
ENDBRANCH   3   6
ENDBRANCH   2   3
TORSDOF 4
ENDMDL
MODEL      152
REMARK 921   NORMALIZED FREE ENERGY PREDICTED BY IDOCK:   -3.16 KCAL/MOL
REMARK 922        TOTAL FREE ENERGY PREDICTED BY IDOCK:   -4.31 KCAL/MOL
REMARK 923 INTER-LIGAND FREE ENERGY PREDICTED BY IDOCK:   -3.90 KCAL/MOL
REMARK 924 INTRA-LIGAND FREE ENERGY PREDICTED BY IDOCK:   -0.42 KCAL/MOL
REMARK 927      BINDING AFFINITY PREDICTED BY RF-SCORE:    0.00 PKD
ROOT
HETATM    1  C   UNL     1     -13.096   9.907  71.422  1.00  0.00    -0.500 C  
HETATM    2  C   UNL     1     -11.796   9.200  71.751  1.00  0.00    -0.383 C  
ENDROOT
BRANCH   2   3
HETATM    3  S   UNL     1     -11.933   7.434  71.523  1.00  0.00    -0.324 S  
HETATM    4  O   UNL     1     -13.333   7.110  71.331  1.00  0.00    -0.381 OA 
HETATM    5  O   UNL     1     -11.150   6.777  72.551  1.00  0.00    -0.246 OA 
BRANCH   3   6
HETATM    6  C   UNL     1     -11.117   7.156  69.969  1.00  0.00    -0.258 C  
BRANCH   6   7
HETATM    7  C   UNL     1     -10.065   8.230  69.746  1.00  0.00    -0.197 C  
BRANCH   7   8
HETATM    8  N   UNL     1      -9.849   8.515  68.336  1.00  0.00    -0.167 NA 
HETATM    9  C   UNL     1     -10.494   9.514  67.619  1.00  0.00    -0.263 A  
HETATM   10  N   UNL     1     -10.157   9.468  66.345  1.00  0.00    -0.264 NA 
HETATM   11  C   UNL     1     -11.443  10.508  68.192  1.00  0.00    -0.255 C  
HETATM   12  C   UNL     1      -9.263   8.441  66.219  1.00  0.00    -0.208 A  
HETATM   13  C   UNL     1      -9.040   7.857  67.439  1.00  0.00    -0.133 A  
HETATM   14  N   UNL     1      -8.132   6.802  67.733  1.00  0.00    -0.113 N  
HETATM   15  O   UNL     1      -7.956   6.509  68.920  1.00  0.00    -0.108 OA 
HETATM   16  O   UNL     1      -7.554   6.286  66.770  1.00  0.00    -0.095 OA 
ENDBRANCH   7   8
ENDBRANCH   6   7
ENDBRANCH   3   6
ENDBRANCH   2   3
TORSDOF 4
ENDMDL
MODEL      153
REMARK 921   NORMALIZED FREE ENERGY PREDICTED BY IDOCK:   -3.15 KCAL/MOL
REMARK 922        TOTAL FREE ENERGY PREDICTED BY IDOCK:   -4.30 KCAL/MOL
REMARK 923 INTER-LIGAND FREE ENERGY PREDICTED BY IDOCK:   -3.97 KCAL/MOL
REMARK 924 INTRA-LIGAND FREE ENERGY PREDICTED BY IDOCK:   -0.33 KCAL/MOL
REMARK 927      BINDING AFFINITY PREDICTED BY RF-SCORE:    0.00 PKD
ROOT
HETATM    1  C   UNL     1      -8.266   7.650  68.350  1.00  0.00    -0.125 C  
HETATM    2  C   UNL     1      -8.307   8.975  67.614  1.00  0.00    -0.117 C  
ENDROOT
BRANCH   2   3
HETATM    3  S   UNL     1      -9.680   9.051  66.474  1.00  0.00    -0.265 S  
HETATM    4  O   UNL     1     -10.704   8.136  66.938  1.00  0.00    -0.309 OA 
HETATM    5  O   UNL     1      -9.159   8.965  65.124  1.00  0.00    -0.187 OA 
BRANCH   3   6
HETATM    6  C   UNL     1     -10.312  10.697  66.701  1.00  0.00    -0.241 C  
BRANCH   6   7
HETATM    7  C   UNL     1      -9.684  11.318  67.938  1.00  0.00    -0.177 C  
BRANCH   7   8
HETATM    8  N   UNL     1     -10.609  12.176  68.662  1.00  0.00    -0.227 NA 
HETATM    9  C   UNL     1     -11.364  11.784  69.760  1.00  0.00    -0.170 A  
HETATM   10  N   UNL     1     -12.173  12.753  70.141  1.00  0.00    -0.289 NA 
HETATM   11  C   UNL     1     -11.287  10.455  70.426  1.00  0.00    -0.417 C  
HETATM   12  C   UNL     1     -11.939  13.805  69.301  1.00  0.00    -0.352 A  
HETATM   13  C   UNL     1     -10.959  13.480  68.398  1.00  0.00    -0.266 A  
HETATM   14  N   UNL     1     -10.391  14.325  67.405  1.00  0.00    -0.258 N  
HETATM   15  O   UNL     1      -9.412  13.903  66.783  1.00  0.00    -0.260 OA 
HETATM   16  O   UNL     1     -10.903  15.442  67.272  1.00  0.00    -0.306 OA 
ENDBRANCH   7   8
ENDBRANCH   6   7
ENDBRANCH   3   6
ENDBRANCH   2   3
TORSDOF 4
ENDMDL
MODEL      154
REMARK 921   NORMALIZED FREE ENERGY PREDICTED BY IDOCK:   -3.14 KCAL/MOL
REMARK 922        TOTAL FREE ENERGY PREDICTED BY IDOCK:   -4.29 KCAL/MOL
REMARK 923 INTER-LIGAND FREE ENERGY PREDICTED BY IDOCK:   -3.94 KCAL/MOL
REMARK 924 INTRA-LIGAND FREE ENERGY PREDICTED BY IDOCK:   -0.35 KCAL/MOL
REMARK 927      BINDING AFFINITY PREDICTED BY RF-SCORE:    0.00 PKD
ROOT
HETATM    1  C   UNL     1      -8.092   8.618  64.268  1.00  0.00    -0.158 C  
HETATM    2  C   UNL     1      -8.405  10.092  64.442  1.00  0.00    -0.168 C  
ENDROOT
BRANCH   2   3
HETATM    3  S   UNL     1      -9.243  10.406  65.988  1.00  0.00    -0.175 S  
HETATM    4  O   UNL     1      -8.250  10.426  67.045  1.00  0.00    -0.121 OA 
HETATM    5  O   UNL     1     -10.400   9.537  66.067  1.00  0.00    -0.220 OA 
BRANCH   3   6
HETATM    6  C   UNL     1      -9.836  12.072  65.801  1.00  0.00    -0.242 C  
BRANCH   6   7
HETATM    7  C   UNL     1      -9.264  12.943  66.907  1.00  0.00    -0.234 C  
BRANCH   7   8
HETATM    8  N   UNL     1     -10.293  13.674  67.630  1.00  0.00    -0.237 NA 
HETATM    9  C   UNL     1     -11.125  13.128  68.599  1.00  0.00    -0.269 A  
HETATM   10  N   UNL     1     -12.013  14.013  69.007  1.00  0.00    -0.350 NA 
HETATM   11  C   UNL     1     -11.043  11.734  69.116  1.00  0.00    -0.294 C  
HETATM   12  C   UNL     1     -11.755  15.165  68.317  1.00  0.00    -0.314 A  
HETATM   13  C   UNL     1     -10.682  14.985  67.483  1.00  0.00    -0.284 A  
HETATM   14  N   UNL     1     -10.069  15.963  66.651  1.00  0.00    -0.269 N  
HETATM   15  O   UNL     1      -9.017  15.654  66.082  1.00  0.00    -0.323 OA 
HETATM   16  O   UNL     1     -10.622  17.067  66.594  1.00  0.00    -0.279 OA 
ENDBRANCH   7   8
ENDBRANCH   6   7
ENDBRANCH   3   6
ENDBRANCH   2   3
TORSDOF 4
ENDMDL
MODEL      155
REMARK 921   NORMALIZED FREE ENERGY PREDICTED BY IDOCK:   -3.12 KCAL/MOL
REMARK 922        TOTAL FREE ENERGY PREDICTED BY IDOCK:   -4.26 KCAL/MOL
REMARK 923 INTER-LIGAND FREE ENERGY PREDICTED BY IDOCK:   -3.97 KCAL/MOL
REMARK 924 INTRA-LIGAND FREE ENERGY PREDICTED BY IDOCK:   -0.29 KCAL/MOL
REMARK 927      BINDING AFFINITY PREDICTED BY RF-SCORE:    0.00 PKD
ROOT
HETATM    1  C   UNL     1      -8.507   9.386  64.389  1.00  0.00    -0.196 C  
HETATM    2  C   UNL     1      -8.590   8.058  65.117  1.00  0.00    -0.051 C  
ENDROOT
BRANCH   2   3
HETATM    3  S   UNL     1      -8.750   8.287  66.882  1.00  0.00    -0.138 S  
HETATM    4  O   UNL     1      -7.427   8.201  67.470  1.00  0.00    -0.091 OA 
HETATM    5  O   UNL     1      -9.833   7.450  67.356  1.00  0.00    -0.148 OA 
BRANCH   3   6
HETATM    6  C   UNL     1      -9.275   9.979  67.030  1.00  0.00    -0.146 C  
BRANCH   6   7
HETATM    7  C   UNL     1     -10.782  10.029  67.224  1.00  0.00    -0.244 C  
BRANCH   7   8
HETATM    8  N   UNL     1     -11.200  11.146  68.056  1.00  0.00    -0.272 NA 
HETATM    9  C   UNL     1     -11.227  11.138  69.444  1.00  0.00    -0.270 A  
HETATM   10  N   UNL     1     -11.737  12.261  69.910  1.00  0.00    -0.301 NA 
HETATM   11  C   UNL     1     -10.753  10.020  70.306  1.00  0.00    -0.367 C  
HETATM   12  C   UNL     1     -12.032  13.032  68.820  1.00  0.00    -0.266 A  
HETATM   13  C   UNL     1     -11.685  12.374  67.668  1.00  0.00    -0.346 A  
HETATM   14  N   UNL     1     -11.775  12.868  66.337  1.00  0.00    -0.375 N  
HETATM   15  O   UNL     1     -11.273  12.187  65.437  1.00  0.00    -0.314 OA 
HETATM   16  O   UNL     1     -12.319  13.968  66.191  1.00  0.00    -0.448 OA 
ENDBRANCH   7   8
ENDBRANCH   6   7
ENDBRANCH   3   6
ENDBRANCH   2   3
TORSDOF 4
ENDMDL
MODEL      156
REMARK 921   NORMALIZED FREE ENERGY PREDICTED BY IDOCK:   -3.10 KCAL/MOL
REMARK 922        TOTAL FREE ENERGY PREDICTED BY IDOCK:   -4.24 KCAL/MOL
REMARK 923 INTER-LIGAND FREE ENERGY PREDICTED BY IDOCK:   -4.19 KCAL/MOL
REMARK 924 INTRA-LIGAND FREE ENERGY PREDICTED BY IDOCK:   -0.05 KCAL/MOL
REMARK 927      BINDING AFFINITY PREDICTED BY RF-SCORE:    0.00 PKD
ROOT
HETATM    1  C   UNL     1     -11.002   6.198  69.336  1.00  0.00    -0.454 C  
HETATM    2  C   UNL     1      -9.688   6.297  68.585  1.00  0.00    -0.127 C  
ENDROOT
BRANCH   2   3
HETATM    3  S   UNL     1      -9.209   7.998  68.322  1.00  0.00    -0.133 S  
HETATM    4  O   UNL     1     -10.413   8.802  68.258  1.00  0.00    -0.215 OA 
HETATM    5  O   UNL     1      -8.227   8.038  67.257  1.00  0.00    -0.119 OA 
BRANCH   3   6
HETATM    6  C   UNL     1      -8.377   8.427  69.833  1.00  0.00    -0.124 C  
BRANCH   6   7
HETATM    7  C   UNL     1      -9.170   9.498  70.565  1.00  0.00    -0.225 C  
BRANCH   7   8
HETATM    8  N   UNL     1     -10.140   8.936  71.493  1.00  0.00    -0.297 NA 
HETATM    9  C   UNL     1      -9.859   7.968  72.448  1.00  0.00    -0.247 A  
HETATM   10  N   UNL     1     -10.957   7.596  73.075  1.00  0.00    -0.400 NA 
HETATM   11  C   UNL     1      -8.509   7.409  72.734  1.00  0.00    -0.141 C  
HETATM   12  C   UNL     1     -11.975   8.341  72.546  1.00  0.00    -0.356 A  
HETATM   13  C   UNL     1     -11.488   9.192  71.588  1.00  0.00    -0.381 A  
HETATM   14  N   UNL     1     -12.219  10.169  70.856  1.00  0.00    -0.329 N  
HETATM   15  O   UNL     1     -11.580  10.948  70.142  1.00  0.00    -0.289 OA 
HETATM   16  O   UNL     1     -13.443  10.185  71.026  1.00  0.00    -0.351 OA 
ENDBRANCH   7   8
ENDBRANCH   6   7
ENDBRANCH   3   6
ENDBRANCH   2   3
TORSDOF 4
ENDMDL
MODEL      157
REMARK 921   NORMALIZED FREE ENERGY PREDICTED BY IDOCK:   -3.09 KCAL/MOL
REMARK 922        TOTAL FREE ENERGY PREDICTED BY IDOCK:   -4.23 KCAL/MOL
REMARK 923 INTER-LIGAND FREE ENERGY PREDICTED BY IDOCK:   -3.93 KCAL/MOL
REMARK 924 INTRA-LIGAND FREE ENERGY PREDICTED BY IDOCK:   -0.30 KCAL/MOL
REMARK 927      BINDING AFFINITY PREDICTED BY RF-SCORE:    0.00 PKD
ROOT
HETATM    1  C   UNL     1      -7.143   6.527  64.660  1.00  0.00    -0.060 C  
HETATM    2  C   UNL     1      -8.518   6.314  65.264  1.00  0.00    -0.111 C  
ENDROOT
BRANCH   2   3
HETATM    3  S   UNL     1      -8.686   7.163  66.827  1.00  0.00    -0.132 S  
HETATM    4  O   UNL     1      -7.448   7.868  67.094  1.00  0.00    -0.089 OA 
HETATM    5  O   UNL     1      -9.242   6.237  67.794  1.00  0.00    -0.118 OA 
BRANCH   3   6
HETATM    6  C   UNL     1      -9.924   8.394  66.493  1.00  0.00    -0.265 C  
BRANCH   6   7
HETATM    7  C   UNL     1      -9.350   9.777  66.754  1.00  0.00    -0.152 C  
BRANCH   7   8
HETATM    8  N   UNL     1     -10.333  10.833  66.565  1.00  0.00    -0.238 NA 
HETATM    9  C   UNL     1     -11.192  11.305  67.549  1.00  0.00    -0.291 A  
HETATM   10  N   UNL     1     -12.026  12.198  67.053  1.00  0.00    -0.598 NA 
HETATM   11  C   UNL     1     -11.191  10.869  68.972  1.00  0.00    -0.327 C  
HETATM   12  C   UNL     1     -11.703  12.337  65.732  1.00  0.00    -0.385 A  
HETATM   13  C   UNL     1     -10.644  11.524  65.417  1.00  0.00    -0.282 A  
HETATM   14  N   UNL     1      -9.977  11.430  64.164  1.00  0.00    -0.267 N  
HETATM   15  O   UNL     1      -8.946  10.751  64.112  1.00  0.00    -0.187 OA 
HETATM   16  O   UNL     1     -10.464  12.074  63.229  1.00  0.00    -0.431 OA 
ENDBRANCH   7   8
ENDBRANCH   6   7
ENDBRANCH   3   6
ENDBRANCH   2   3
TORSDOF 4
ENDMDL
MODEL      158
REMARK 921   NORMALIZED FREE ENERGY PREDICTED BY IDOCK:   -3.09 KCAL/MOL
REMARK 922        TOTAL FREE ENERGY PREDICTED BY IDOCK:   -4.22 KCAL/MOL
REMARK 923 INTER-LIGAND FREE ENERGY PREDICTED BY IDOCK:   -3.98 KCAL/MOL
REMARK 924 INTRA-LIGAND FREE ENERGY PREDICTED BY IDOCK:   -0.24 KCAL/MOL
REMARK 927      BINDING AFFINITY PREDICTED BY RF-SCORE:    0.00 PKD
ROOT
HETATM    1  C   UNL     1      -8.435   7.406  68.525  1.00  0.00    -0.125 C  
HETATM    2  C   UNL     1      -8.221   8.863  68.165  1.00  0.00    -0.114 C  
ENDROOT
BRANCH   2   3
HETATM    3  S   UNL     1      -9.409   9.922  68.975  1.00  0.00    -0.185 S  
HETATM    4  O   UNL     1      -8.962  10.144  70.337  1.00  0.00     0.077 OA 
HETATM    5  O   UNL     1     -10.738   9.414  68.700  1.00  0.00    -0.213 OA 
BRANCH   3   6
HETATM    6  C   UNL     1      -9.238  11.467  68.114  1.00  0.00    -0.178 C  
BRANCH   6   7
HETATM    7  C   UNL     1     -10.372  12.398  68.507  1.00  0.00    -0.221 C  
BRANCH   7   8
HETATM    8  N   UNL     1     -10.452  13.572  67.651  1.00  0.00    -0.236 NA 
HETATM    9  C   UNL     1      -9.713  14.734  67.825  1.00  0.00    -0.213 A  
HETATM   10  N   UNL     1     -10.070  15.652  66.946  1.00  0.00    -0.257 NA 
HETATM   11  C   UNL     1      -8.661  14.939  68.858  1.00  0.00    -0.180 C  
HETATM   12  C   UNL     1     -11.040  15.085  66.169  1.00  0.00    -0.329 A  
HETATM   13  C   UNL     1     -11.272  13.794  66.569  1.00  0.00    -0.312 A  
HETATM   14  N   UNL     1     -12.160  12.856  65.972  1.00  0.00    -0.439 N  
HETATM   15  O   UNL     1     -12.123  11.691  66.380  1.00  0.00    -0.371 OA 
HETATM   16  O   UNL     1     -12.875  13.277  65.056  1.00  0.00    -0.686 OA 
ENDBRANCH   7   8
ENDBRANCH   6   7
ENDBRANCH   3   6
ENDBRANCH   2   3
TORSDOF 4
ENDMDL
MODEL      159
REMARK 921   NORMALIZED FREE ENERGY PREDICTED BY IDOCK:   -3.08 KCAL/MOL
REMARK 922        TOTAL FREE ENERGY PREDICTED BY IDOCK:   -4.21 KCAL/MOL
REMARK 923 INTER-LIGAND FREE ENERGY PREDICTED BY IDOCK:   -3.97 KCAL/MOL
REMARK 924 INTRA-LIGAND FREE ENERGY PREDICTED BY IDOCK:   -0.24 KCAL/MOL
REMARK 927      BINDING AFFINITY PREDICTED BY RF-SCORE:    0.00 PKD
ROOT
HETATM    1  C   UNL     1      -9.792  10.411  64.066  1.00  0.00    -0.355 C  
HETATM    2  C   UNL     1      -9.487   9.627  65.328  1.00  0.00    -0.275 C  
ENDROOT
BRANCH   2   3
HETATM    3  S   UNL     1      -9.377  10.697  66.754  1.00  0.00    -0.159 S  
HETATM    4  O   UNL     1      -9.929  11.988  66.394  1.00  0.00    -0.210 OA 
HETATM    5  O   UNL     1      -8.043  10.585  67.310  1.00  0.00    -0.114 OA 
BRANCH   3   6
HETATM    6  C   UNL     1     -10.503   9.954  67.912  1.00  0.00    -0.236 C  
BRANCH   6   7
HETATM    7  C   UNL     1      -9.719   9.202  68.975  1.00  0.00    -0.166 C  
BRANCH   7   8
HETATM    8  N   UNL     1     -10.409   8.007  69.434  1.00  0.00    -0.215 NA 
HETATM    9  C   UNL     1     -10.555   6.840  68.696  1.00  0.00    -0.227 A  
HETATM   10  N   UNL     1     -11.303   5.967  69.343  1.00  0.00    -0.348 NA 
HETATM   11  C   UNL     1      -9.960   6.591  67.354  1.00  0.00    -0.180 C  
HETATM   12  C   UNL     1     -11.639   6.553  70.531  1.00  0.00    -0.393 A  
HETATM   13  C   UNL     1     -11.076   7.800  70.619  1.00  0.00    -0.256 A  
HETATM   14  N   UNL     1     -11.139   8.694  71.723  1.00  0.00    -0.301 N  
HETATM   15  O   UNL     1     -10.442   9.713  71.678  1.00  0.00    -0.147 OA 
HETATM   16  O   UNL     1     -11.862   8.358  72.667  1.00  0.00    -0.393 OA 
ENDBRANCH   7   8
ENDBRANCH   6   7
ENDBRANCH   3   6
ENDBRANCH   2   3
TORSDOF 4
ENDMDL
MODEL      160
REMARK 921   NORMALIZED FREE ENERGY PREDICTED BY IDOCK:   -3.06 KCAL/MOL
REMARK 922        TOTAL FREE ENERGY PREDICTED BY IDOCK:   -4.19 KCAL/MOL
REMARK 923 INTER-LIGAND FREE ENERGY PREDICTED BY IDOCK:   -4.01 KCAL/MOL
REMARK 924 INTRA-LIGAND FREE ENERGY PREDICTED BY IDOCK:   -0.19 KCAL/MOL
REMARK 927      BINDING AFFINITY PREDICTED BY RF-SCORE:    0.00 PKD
ROOT
HETATM    1  C   UNL     1     -13.237  10.669  71.752  1.00  0.00    -0.526 C  
HETATM    2  C   UNL     1     -13.273   9.270  72.338  1.00  0.00    -0.426 C  
ENDROOT
BRANCH   2   3
HETATM    3  S   UNL     1     -11.926   8.268  71.727  1.00  0.00    -0.339 S  
HETATM    4  O   UNL     1     -12.463   6.979  71.337  1.00  0.00    -0.351 OA 
HETATM    5  O   UNL     1     -10.822   8.365  72.662  1.00  0.00    -0.342 OA 
BRANCH   3   6
HETATM    6  C   UNL     1     -11.439   9.101  70.235  1.00  0.00    -0.146 C  
BRANCH   6   7
HETATM    7  C   UNL     1     -10.037   8.663  69.841  1.00  0.00    -0.194 C  
BRANCH   7   8
HETATM    8  N   UNL     1      -9.982   8.118  68.494  1.00  0.00    -0.184 NA 
HETATM    9  C   UNL     1     -10.070   6.769  68.177  1.00  0.00    -0.164 A  
HETATM   10  N   UNL     1      -9.896   6.580  66.883  1.00  0.00    -0.156 NA 
HETATM   11  C   UNL     1     -10.319   5.672  69.151  1.00  0.00    -0.328 C  
HETATM   12  C   UNL     1      -9.713   7.817  66.333  1.00  0.00    -0.149 A  
HETATM   13  C   UNL     1      -9.788   8.782  67.304  1.00  0.00    -0.201 A  
HETATM   14  N   UNL     1      -9.713  10.191  67.123  1.00  0.00    -0.168 N  
HETATM   15  O   UNL     1      -9.954  10.909  68.098  1.00  0.00    -0.165 OA 
HETATM   16  O   UNL     1      -9.450  10.588  65.982  1.00  0.00    -0.170 OA 
ENDBRANCH   7   8
ENDBRANCH   6   7
ENDBRANCH   3   6
ENDBRANCH   2   3
TORSDOF 4
ENDMDL
MODEL      161
REMARK 921   NORMALIZED FREE ENERGY PREDICTED BY IDOCK:   -3.05 KCAL/MOL
REMARK 922        TOTAL FREE ENERGY PREDICTED BY IDOCK:   -4.18 KCAL/MOL
REMARK 923 INTER-LIGAND FREE ENERGY PREDICTED BY IDOCK:   -3.84 KCAL/MOL
REMARK 924 INTRA-LIGAND FREE ENERGY PREDICTED BY IDOCK:   -0.34 KCAL/MOL
REMARK 927      BINDING AFFINITY PREDICTED BY RF-SCORE:    0.00 PKD
ROOT
HETATM    1  C   UNL     1      -5.997  20.137  70.516  1.00  0.00    -0.382 C  
HETATM    2  C   UNL     1      -5.828  18.708  70.037  1.00  0.00    -0.236 C  
ENDROOT
BRANCH   2   3
HETATM    3  S   UNL     1      -6.704  18.420  68.508  1.00  0.00    -0.253 S  
HETATM    4  O   UNL     1      -5.728  18.130  67.476  1.00  0.00    -0.139 OA 
HETATM    5  O   UNL     1      -7.682  19.475  68.334  1.00  0.00    -0.315 OA 
BRANCH   3   6
HETATM    6  C   UNL     1      -7.592  16.912  68.821  1.00  0.00    -0.243 C  
BRANCH   6   7
HETATM    7  C   UNL     1      -8.357  16.503  67.573  1.00  0.00    -0.164 C  
BRANCH   7   8
HETATM    8  N   UNL     1      -9.685  15.992  67.875  1.00  0.00    -0.220 NA 
HETATM    9  C   UNL     1     -10.819  16.776  68.043  1.00  0.00    -0.341 A  
HETATM   10  N   UNL     1     -11.852  16.036  68.397  1.00  0.00    -0.209 NA 
HETATM   11  C   UNL     1     -10.880  18.252  67.857  1.00  0.00    -0.232 C  
HETATM   12  C   UNL     1     -11.403  14.745  68.445  1.00  0.00    -0.299 A  
HETATM   13  C   UNL     1     -10.077  14.693  68.101  1.00  0.00    -0.224 A  
HETATM   14  N   UNL     1      -9.269  13.530  67.971  1.00  0.00    -0.202 N  
HETATM   15  O   UNL     1      -8.134  13.668  67.504  1.00  0.00    -0.160 OA 
HETATM   16  O   UNL     1      -9.787  12.457  68.301  1.00  0.00    -0.218 OA 
ENDBRANCH   7   8
ENDBRANCH   6   7
ENDBRANCH   3   6
ENDBRANCH   2   3
TORSDOF 4
ENDMDL
MODEL      162
REMARK 921   NORMALIZED FREE ENERGY PREDICTED BY IDOCK:   -3.05 KCAL/MOL
REMARK 922        TOTAL FREE ENERGY PREDICTED BY IDOCK:   -4.17 KCAL/MOL
REMARK 923 INTER-LIGAND FREE ENERGY PREDICTED BY IDOCK:   -3.93 KCAL/MOL
REMARK 924 INTRA-LIGAND FREE ENERGY PREDICTED BY IDOCK:   -0.24 KCAL/MOL
REMARK 927      BINDING AFFINITY PREDICTED BY RF-SCORE:    0.00 PKD
ROOT
HETATM    1  C   UNL     1      -7.104   5.591  69.478  1.00  0.00    -0.064 C  
HETATM    2  C   UNL     1      -7.697   6.961  69.743  1.00  0.00    -0.113 C  
ENDROOT
BRANCH   2   3
HETATM    3  S   UNL     1      -9.101   6.866  70.843  1.00  0.00    -0.153 S  
HETATM    4  O   UNL     1      -8.617   6.517  72.164  1.00  0.00    -0.124 OA 
HETATM    5  O   UNL     1     -10.138   6.086  70.198  1.00  0.00    -0.177 OA 
BRANCH   3   6
HETATM    6  C   UNL     1      -9.671   8.548  70.927  1.00  0.00    -0.187 C  
BRANCH   6   7
HETATM    7  C   UNL     1     -11.125   8.616  70.491  1.00  0.00    -0.242 C  
BRANCH   7   8
HETATM    8  N   UNL     1     -11.464   9.890  69.875  1.00  0.00    -0.215 NA 
HETATM    9  C   UNL     1     -11.087  10.280  68.597  1.00  0.00    -0.239 A  
HETATM   10  N   UNL     1     -11.465  11.520  68.355  1.00  0.00    -0.270 NA 
HETATM   11  C   UNL     1     -10.352   9.430  67.620  1.00  0.00    -0.303 C  
HETATM   12  C   UNL     1     -12.118  11.950  69.477  1.00  0.00    -0.226 A  
HETATM   13  C   UNL     1     -12.152  10.951  70.416  1.00  0.00    -0.363 A  
HETATM   14  N   UNL     1     -12.793  10.987  71.685  1.00  0.00    -0.443 N  
HETATM   15  O   UNL     1     -12.845   9.936  72.332  1.00  0.00    -0.318 OA 
HETATM   16  O   UNL     1     -13.289  12.067  72.024  1.00  0.00    -0.495 OA 
ENDBRANCH   7   8
ENDBRANCH   6   7
ENDBRANCH   3   6
ENDBRANCH   2   3
TORSDOF 4
ENDMDL
MODEL      163
REMARK 921   NORMALIZED FREE ENERGY PREDICTED BY IDOCK:   -3.03 KCAL/MOL
REMARK 922        TOTAL FREE ENERGY PREDICTED BY IDOCK:   -4.15 KCAL/MOL
REMARK 923 INTER-LIGAND FREE ENERGY PREDICTED BY IDOCK:   -3.91 KCAL/MOL
REMARK 924 INTRA-LIGAND FREE ENERGY PREDICTED BY IDOCK:   -0.24 KCAL/MOL
REMARK 927      BINDING AFFINITY PREDICTED BY RF-SCORE:    0.00 PKD
ROOT
HETATM    1  C   UNL     1      -9.671   9.013  69.685  1.00  0.00    -0.177 C  
HETATM    2  C   UNL     1      -9.827  10.402  69.095  1.00  0.00    -0.223 C  
ENDROOT
BRANCH   2   3
HETATM    3  S   UNL     1      -9.389  10.433  67.363  1.00  0.00    -0.146 S  
HETATM    4  O   UNL     1      -9.530   9.089  66.838  1.00  0.00    -0.148 OA 
HETATM    5  O   UNL     1      -8.147  11.164  67.218  1.00  0.00    -0.127 OA 
BRANCH   3   6
HETATM    6  C   UNL     1     -10.678  11.415  66.632  1.00  0.00    -0.269 C  
BRANCH   6   7
HETATM    7  C   UNL     1     -10.869  12.688  67.439  1.00  0.00    -0.243 C  
BRANCH   7   8
HETATM    8  N   UNL     1     -10.699  13.889  66.635  1.00  0.00    -0.280 NA 
HETATM    9  C   UNL     1     -11.571  14.309  65.640  1.00  0.00    -0.346 A  
HETATM   10  N   UNL     1     -11.103  15.381  65.030  1.00  0.00    -0.410 NA 
HETATM   11  C   UNL     1     -12.860  13.651  65.292  1.00  0.00    -0.421 C  
HETATM   12  C   UNL     1      -9.919  15.686  65.640  1.00  0.00    -0.354 A  
HETATM   13  C   UNL     1      -9.664  14.795  66.650  1.00  0.00    -0.267 A  
HETATM   14  N   UNL     1      -8.567  14.814  67.556  1.00  0.00    -0.176 N  
HETATM   15  O   UNL     1      -8.586  14.015  68.497  1.00  0.00    -0.169 OA 
HETATM   16  O   UNL     1      -7.695  15.665  67.349  1.00  0.00    -0.152 OA 
ENDBRANCH   7   8
ENDBRANCH   6   7
ENDBRANCH   3   6
ENDBRANCH   2   3
TORSDOF 4
ENDMDL
MODEL      164
REMARK 921   NORMALIZED FREE ENERGY PREDICTED BY IDOCK:   -3.03 KCAL/MOL
REMARK 922        TOTAL FREE ENERGY PREDICTED BY IDOCK:   -4.15 KCAL/MOL
REMARK 923 INTER-LIGAND FREE ENERGY PREDICTED BY IDOCK:   -4.02 KCAL/MOL
REMARK 924 INTRA-LIGAND FREE ENERGY PREDICTED BY IDOCK:   -0.13 KCAL/MOL
REMARK 927      BINDING AFFINITY PREDICTED BY RF-SCORE:    0.00 PKD
ROOT
HETATM    1  C   UNL     1      -6.217  12.732  67.423  1.00  0.00    -0.133 C  
HETATM    2  C   UNL     1      -6.852  13.431  68.610  1.00  0.00    -0.098 C  
ENDROOT
BRANCH   2   3
HETATM    3  S   UNL     1      -8.228  14.453  68.109  1.00  0.00    -0.161 S  
HETATM    4  O   UNL     1      -8.847  14.994  69.304  1.00  0.00    -0.203 OA 
HETATM    5  O   UNL     1      -9.009  13.724  67.129  1.00  0.00    -0.216 OA 
BRANCH   3   6
HETATM    6  C   UNL     1      -7.447  15.811  67.269  1.00  0.00    -0.217 C  
BRANCH   6   7
HETATM    7  C   UNL     1      -8.401  16.386  66.235  1.00  0.00    -0.327 C  
BRANCH   7   8
HETATM    8  N   UNL     1      -8.821  17.741  66.557  1.00  0.00    -0.287 NA 
HETATM    9  C   UNL     1      -9.929  18.068  67.328  1.00  0.00    -0.323 A  
HETATM   10  N   UNL     1     -10.103  19.375  67.368  1.00  0.00    -0.372 NA 
HETATM   11  C   UNL     1     -10.815  17.090  68.017  1.00  0.00    -0.330 C  
HETATM   12  C   UNL     1      -9.087  19.922  66.635  1.00  0.00    -0.376 A  
HETATM   13  C   UNL     1      -8.271  18.933  66.148  1.00  0.00    -0.204 A  
HETATM   14  N   UNL     1      -7.075  19.101  65.396  1.00  0.00    -0.167 N  
HETATM   15  O   UNL     1      -6.391  18.097  65.174  1.00  0.00    -0.298 OA 
HETATM   16  O   UNL     1      -6.793  20.255  65.055  1.00  0.00    -0.311 OA 
ENDBRANCH   7   8
ENDBRANCH   6   7
ENDBRANCH   3   6
ENDBRANCH   2   3
TORSDOF 4
ENDMDL
MODEL      165
REMARK 921   NORMALIZED FREE ENERGY PREDICTED BY IDOCK:   -3.02 KCAL/MOL
REMARK 922        TOTAL FREE ENERGY PREDICTED BY IDOCK:   -4.14 KCAL/MOL
REMARK 923 INTER-LIGAND FREE ENERGY PREDICTED BY IDOCK:   -3.87 KCAL/MOL
REMARK 924 INTRA-LIGAND FREE ENERGY PREDICTED BY IDOCK:   -0.27 KCAL/MOL
REMARK 927      BINDING AFFINITY PREDICTED BY RF-SCORE:    0.00 PKD
ROOT
HETATM    1  C   UNL     1      -8.159   7.740  64.705  1.00  0.00    -0.123 C  
HETATM    2  C   UNL     1      -8.789   9.052  65.132  1.00  0.00    -0.182 C  
ENDROOT
BRANCH   2   3
HETATM    3  S   UNL     1      -9.528   8.927  66.753  1.00  0.00    -0.205 S  
HETATM    4  O   UNL     1      -8.461   8.877  67.734  1.00  0.00    -0.123 OA 
HETATM    5  O   UNL     1     -10.553   7.903  66.712  1.00  0.00    -0.326 OA 
BRANCH   3   6
HETATM    6  C   UNL     1     -10.345  10.494  66.953  1.00  0.00    -0.239 C  
BRANCH   6   7
HETATM    7  C   UNL     1      -9.845  11.171  68.219  1.00  0.00    -0.189 C  
BRANCH   7   8
HETATM    8  N   UNL     1     -10.855  12.019  68.833  1.00  0.00    -0.223 NA 
HETATM    9  C   UNL     1     -11.064  13.357  68.526  1.00  0.00    -0.270 A  
HETATM   10  N   UNL     1     -11.986  13.879  69.311  1.00  0.00    -0.341 NA 
HETATM   11  C   UNL     1     -10.350  14.116  67.463  1.00  0.00    -0.248 C  
HETATM   12  C   UNL     1     -12.409  12.872  70.133  1.00  0.00    -0.179 A  
HETATM   13  C   UNL     1     -11.743  11.710  69.837  1.00  0.00    -0.337 A  
HETATM   14  N   UNL     1     -11.946  10.431  70.425  1.00  0.00    -0.297 N  
HETATM   15  O   UNL     1     -11.357   9.468  69.924  1.00  0.00    -0.217 OA 
HETATM   16  O   UNL     1     -12.735  10.378  71.375  1.00  0.00    -0.370 OA 
ENDBRANCH   7   8
ENDBRANCH   6   7
ENDBRANCH   3   6
ENDBRANCH   2   3
TORSDOF 4
ENDMDL
MODEL      166
REMARK 921   NORMALIZED FREE ENERGY PREDICTED BY IDOCK:   -2.99 KCAL/MOL
REMARK 922        TOTAL FREE ENERGY PREDICTED BY IDOCK:   -4.10 KCAL/MOL
REMARK 923 INTER-LIGAND FREE ENERGY PREDICTED BY IDOCK:   -3.64 KCAL/MOL
REMARK 924 INTRA-LIGAND FREE ENERGY PREDICTED BY IDOCK:   -0.46 KCAL/MOL
REMARK 927      BINDING AFFINITY PREDICTED BY RF-SCORE:    0.00 PKD
ROOT
HETATM    1  C   UNL     1      -7.178   7.028  68.404  1.00  0.00    -0.088 C  
HETATM    2  C   UNL     1      -6.519   8.160  67.640  1.00  0.00    -0.057 C  
ENDROOT
BRANCH   2   3
HETATM    3  S   UNL     1      -7.727   9.198  66.832  1.00  0.00    -0.098 S  
HETATM    4  O   UNL     1      -8.465   8.381  65.888  1.00  0.00    -0.130 OA 
HETATM    5  O   UNL     1      -7.073  10.420  66.409  1.00  0.00    -0.104 OA 
BRANCH   3   6
HETATM    6  C   UNL     1      -8.850   9.618  68.145  1.00  0.00    -0.119 C  
BRANCH   6   7
HETATM    7  C   UNL     1     -10.280   9.543  67.636  1.00  0.00    -0.220 C  
BRANCH   7   8
HETATM    8  N   UNL     1     -10.922  10.848  67.582  1.00  0.00    -0.272 NA 
HETATM    9  C   UNL     1     -10.944  11.678  66.470  1.00  0.00    -0.299 A  
HETATM   10  N   UNL     1     -11.522  12.829  66.756  1.00  0.00    -0.324 NA 
HETATM   11  C   UNL     1     -10.392  11.336  65.130  1.00  0.00    -0.353 C  
HETATM   12  C   UNL     1     -11.905  12.753  68.065  1.00  0.00    -0.336 A  
HETATM   13  C   UNL     1     -11.569  11.530  68.586  1.00  0.00    -0.313 A  
HETATM   14  N   UNL     1     -11.855  11.045  69.892  1.00  0.00    -0.321 N  
HETATM   15  O   UNL     1     -11.606   9.860  70.132  1.00  0.00    -0.253 OA 
HETATM   16  O   UNL     1     -12.373  11.846  70.678  1.00  0.00    -0.356 OA 
ENDBRANCH   7   8
ENDBRANCH   6   7
ENDBRANCH   3   6
ENDBRANCH   2   3
TORSDOF 4
ENDMDL
MODEL      167
REMARK 921   NORMALIZED FREE ENERGY PREDICTED BY IDOCK:   -2.98 KCAL/MOL
REMARK 922        TOTAL FREE ENERGY PREDICTED BY IDOCK:   -4.09 KCAL/MOL
REMARK 923 INTER-LIGAND FREE ENERGY PREDICTED BY IDOCK:   -3.74 KCAL/MOL
REMARK 924 INTRA-LIGAND FREE ENERGY PREDICTED BY IDOCK:   -0.35 KCAL/MOL
REMARK 927      BINDING AFFINITY PREDICTED BY RF-SCORE:    0.00 PKD
ROOT
HETATM    1  C   UNL     1      -5.212  13.900  68.012  1.00  0.00    -0.101 C  
HETATM    2  C   UNL     1      -5.518  14.741  69.236  1.00  0.00    -0.089 C  
ENDROOT
BRANCH   2   3
HETATM    3  S   UNL     1      -6.642  16.075  68.850  1.00  0.00    -0.139 S  
HETATM    4  O   UNL     1      -6.816  16.117  67.412  1.00  0.00    -0.148 OA 
HETATM    5  O   UNL     1      -6.225  17.252  69.586  1.00  0.00    -0.241 OA 
BRANCH   3   6
HETATM    6  C   UNL     1      -8.183  15.527  69.545  1.00  0.00    -0.209 C  
BRANCH   6   7
HETATM    7  C   UNL     1      -9.295  15.709  68.524  1.00  0.00    -0.197 C  
BRANCH   7   8
HETATM    8  N   UNL     1     -10.249  14.610  68.538  1.00  0.00    -0.233 NA 
HETATM    9  C   UNL     1     -10.109  13.427  67.824  1.00  0.00    -0.232 A  
HETATM   10  N   UNL     1     -11.176  12.665  67.968  1.00  0.00    -0.247 NA 
HETATM   11  C   UNL     1      -8.927  13.055  66.999  1.00  0.00    -0.225 C  
HETATM   12  C   UNL     1     -12.023  13.340  68.802  1.00  0.00    -0.300 A  
HETATM   13  C   UNL     1     -11.459  14.529  69.186  1.00  0.00    -0.294 A  
HETATM   14  N   UNL     1     -11.998  15.480  70.097  1.00  0.00    -0.343 N  
HETATM   15  O   UNL     1     -11.276  16.422  70.437  1.00  0.00    -0.378 OA 
HETATM   16  O   UNL     1     -13.142  15.263  70.511  1.00  0.00    -0.367 OA 
ENDBRANCH   7   8
ENDBRANCH   6   7
ENDBRANCH   3   6
ENDBRANCH   2   3
TORSDOF 4
ENDMDL
MODEL      168
REMARK 921   NORMALIZED FREE ENERGY PREDICTED BY IDOCK:   -2.97 KCAL/MOL
REMARK 922        TOTAL FREE ENERGY PREDICTED BY IDOCK:   -4.07 KCAL/MOL
REMARK 923 INTER-LIGAND FREE ENERGY PREDICTED BY IDOCK:   -4.08 KCAL/MOL
REMARK 924 INTRA-LIGAND FREE ENERGY PREDICTED BY IDOCK:    0.01 KCAL/MOL
REMARK 927      BINDING AFFINITY PREDICTED BY RF-SCORE:    0.00 PKD
ROOT
HETATM    1  C   UNL     1     -11.708   7.307  72.388  1.00  0.00    -0.278 C  
HETATM    2  C   UNL     1     -10.571   6.916  71.463  1.00  0.00    -0.217 C  
ENDROOT
BRANCH   2   3
HETATM    3  S   UNL     1      -9.239   8.105  71.520  1.00  0.00    -0.177 S  
HETATM    4  O   UNL     1      -7.997   7.405  71.254  1.00  0.00    -0.094 OA 
HETATM    5  O   UNL     1      -9.399   8.916  72.710  1.00  0.00    -0.227 OA 
BRANCH   3   6
HETATM    6  C   UNL     1      -9.560   9.147  70.116  1.00  0.00    -0.206 C  
BRANCH   6   7
HETATM    7  C   UNL     1     -11.055   9.197  69.849  1.00  0.00    -0.159 C  
BRANCH   7   8
HETATM    8  N   UNL     1     -11.456  10.407  69.149  1.00  0.00    -0.224 NA 
HETATM    9  C   UNL     1     -11.221  10.664  67.804  1.00  0.00    -0.313 A  
HETATM   10  N   UNL     1     -11.620  11.879  67.482  1.00  0.00    -0.474 NA 
HETATM   11  C   UNL     1     -10.598   9.712  66.844  1.00  0.00    -0.241 C  
HETATM   12  C   UNL     1     -12.146  12.426  68.619  1.00  0.00    -0.090 A  
HETATM   13  C   UNL     1     -12.079  11.526  69.651  1.00  0.00    -0.296 A  
HETATM   14  N   UNL     1     -12.578  11.696  70.973  1.00  0.00    -0.372 N  
HETATM   15  O   UNL     1     -12.560  10.716  71.724  1.00  0.00    -0.390 OA 
HETATM   16  O   UNL     1     -13.031  12.811  71.253  1.00  0.00    -0.321 OA 
ENDBRANCH   7   8
ENDBRANCH   6   7
ENDBRANCH   3   6
ENDBRANCH   2   3
TORSDOF 4
ENDMDL
MODEL      169
REMARK 921   NORMALIZED FREE ENERGY PREDICTED BY IDOCK:   -2.95 KCAL/MOL
REMARK 922        TOTAL FREE ENERGY PREDICTED BY IDOCK:   -4.05 KCAL/MOL
REMARK 923 INTER-LIGAND FREE ENERGY PREDICTED BY IDOCK:   -3.78 KCAL/MOL
REMARK 924 INTRA-LIGAND FREE ENERGY PREDICTED BY IDOCK:   -0.28 KCAL/MOL
REMARK 927      BINDING AFFINITY PREDICTED BY RF-SCORE:    0.00 PKD
ROOT
HETATM    1  C   UNL     1      -8.299   5.411  68.974  1.00  0.00    -0.100 C  
HETATM    2  C   UNL     1      -8.652   6.770  68.401  1.00  0.00    -0.125 C  
ENDROOT
BRANCH   2   3
HETATM    3  S   UNL     1      -9.733   6.626  66.987  1.00  0.00    -0.165 S  
HETATM    4  O   UNL     1     -11.094   6.501  67.470  1.00  0.00    -0.341 OA 
HETATM    5  O   UNL     1      -9.170   5.648  66.077  1.00  0.00    -0.159 OA 
BRANCH   3   6
HETATM    6  C   UNL     1      -9.603   8.219  66.207  1.00  0.00    -0.196 C  
BRANCH   6   7
HETATM    7  C   UNL     1      -9.189   9.258  67.237  1.00  0.00    -0.126 C  
BRANCH   7   8
HETATM    8  N   UNL     1     -10.202  10.284  67.429  1.00  0.00    -0.205 NA 
HETATM    9  C   UNL     1     -11.042  10.376  68.531  1.00  0.00    -0.266 A  
HETATM   10  N   UNL     1     -11.911  11.356  68.377  1.00  0.00    -0.590 NA 
HETATM   11  C   UNL     1     -10.989   9.493  69.729  1.00  0.00    -0.245 C  
HETATM   12  C   UNL     1     -11.631  11.935  67.171  1.00  0.00    -0.290 A  
HETATM   13  C   UNL     1     -10.563  11.306  66.583  1.00  0.00    -0.262 A  
HETATM   14  N   UNL     1      -9.931  11.655  65.357  1.00  0.00    -0.242 N  
HETATM   15  O   UNL     1      -8.887  11.065  65.061  1.00  0.00    -0.173 OA 
HETATM   16  O   UNL     1     -10.461  12.557  64.698  1.00  0.00    -0.292 OA 
ENDBRANCH   7   8
ENDBRANCH   6   7
ENDBRANCH   3   6
ENDBRANCH   2   3
TORSDOF 4
ENDMDL
MODEL      170
REMARK 921   NORMALIZED FREE ENERGY PREDICTED BY IDOCK:   -2.91 KCAL/MOL
REMARK 922        TOTAL FREE ENERGY PREDICTED BY IDOCK:   -4.01 KCAL/MOL
REMARK 923 INTER-LIGAND FREE ENERGY PREDICTED BY IDOCK:   -3.61 KCAL/MOL
REMARK 924 INTRA-LIGAND FREE ENERGY PREDICTED BY IDOCK:   -0.39 KCAL/MOL
REMARK 927      BINDING AFFINITY PREDICTED BY RF-SCORE:    0.00 PKD
ROOT
HETATM    1  C   UNL     1     -12.057  10.716  70.835  1.00  0.00    -0.489 C  
HETATM    2  C   UNL     1     -12.345   9.608  71.830  1.00  0.00    -0.392 C  
ENDROOT
BRANCH   2   3
HETATM    3  S   UNL     1     -11.192   8.255  71.658  1.00  0.00    -0.290 S  
HETATM    4  O   UNL     1     -11.842   7.045  72.122  1.00  0.00    -0.283 OA 
HETATM    5  O   UNL     1      -9.913   8.670  72.200  1.00  0.00    -0.297 OA 
BRANCH   3   6
HETATM    6  C   UNL     1     -11.001   8.100  69.897  1.00  0.00    -0.168 C  
BRANCH   6   7
HETATM    7  C   UNL     1      -9.603   7.596  69.578  1.00  0.00    -0.163 C  
BRANCH   7   8
HETATM    8  N   UNL     1      -9.602   6.575  68.542  1.00  0.00    -0.124 NA 
HETATM    9  C   UNL     1      -9.628   6.828  67.177  1.00  0.00    -0.144 A  
HETATM   10  N   UNL     1      -9.710   5.702  66.494  1.00  0.00    -0.154 NA 
HETATM   11  C   UNL     1      -9.576   8.177  66.551  1.00  0.00    -0.303 C  
HETATM   12  C   UNL     1      -9.718   4.692  67.414  1.00  0.00    -0.178 A  
HETATM   13  C   UNL     1      -9.624   5.207  68.681  1.00  0.00    -0.142 A  
HETATM   14  N   UNL     1      -9.537   4.478  69.900  1.00  0.00    -0.180 N  
HETATM   15  O   UNL     1      -9.306   5.113  70.934  1.00  0.00    -0.141 OA 
HETATM   16  O   UNL     1      -9.661   3.251  69.820  1.00  0.00    -0.167 OA 
ENDBRANCH   7   8
ENDBRANCH   6   7
ENDBRANCH   3   6
ENDBRANCH   2   3
TORSDOF 4
ENDMDL
MODEL      171
REMARK 921   NORMALIZED FREE ENERGY PREDICTED BY IDOCK:   -2.91 KCAL/MOL
REMARK 922        TOTAL FREE ENERGY PREDICTED BY IDOCK:   -4.00 KCAL/MOL
REMARK 923 INTER-LIGAND FREE ENERGY PREDICTED BY IDOCK:   -3.73 KCAL/MOL
REMARK 924 INTRA-LIGAND FREE ENERGY PREDICTED BY IDOCK:   -0.27 KCAL/MOL
REMARK 927      BINDING AFFINITY PREDICTED BY RF-SCORE:    0.00 PKD
ROOT
HETATM    1  C   UNL     1      -8.052   4.048  72.356  1.00  0.00    -0.086 C  
HETATM    2  C   UNL     1      -9.428   4.103  71.720  1.00  0.00    -0.147 C  
ENDROOT
BRANCH   2   3
HETATM    3  S   UNL     1      -9.343   4.627  70.015  1.00  0.00    -0.163 S  
HETATM    4  O   UNL     1      -9.747   3.514  69.179  1.00  0.00    -0.139 OA 
HETATM    5  O   UNL     1      -8.074   5.297  69.804  1.00  0.00    -0.084 OA 
BRANCH   3   6
HETATM    6  C   UNL     1     -10.622   5.856  69.898  1.00  0.00    -0.299 C  
BRANCH   6   7
HETATM    7  C   UNL     1     -10.648   6.686  71.171  1.00  0.00    -0.228 C  
BRANCH   7   8
HETATM    8  N   UNL     1     -11.060   8.061  70.931  1.00  0.00    -0.251 NA 
HETATM    9  C   UNL     1     -10.256   9.046  70.373  1.00  0.00    -0.209 A  
HETATM   10  N   UNL     1     -10.877  10.209  70.366  1.00  0.00    -0.307 NA 
HETATM   11  C   UNL     1      -8.877   8.837  69.852  1.00  0.00    -0.143 C  
HETATM   12  C   UNL     1     -12.114   9.990  70.906  1.00  0.00    -0.355 A  
HETATM   13  C   UNL     1     -12.256   8.667  71.237  1.00  0.00    -0.281 A  
HETATM   14  N   UNL     1     -13.417   8.033  71.762  1.00  0.00    -0.344 N  
HETATM   15  O   UNL     1     -13.407   6.802  71.856  1.00  0.00    -0.271 OA 
HETATM   16  O   UNL     1     -14.367   8.770  72.048  1.00  0.00    -0.420 OA 
ENDBRANCH   7   8
ENDBRANCH   6   7
ENDBRANCH   3   6
ENDBRANCH   2   3
TORSDOF 4
ENDMDL
MODEL      172
REMARK 921   NORMALIZED FREE ENERGY PREDICTED BY IDOCK:   -2.90 KCAL/MOL
REMARK 922        TOTAL FREE ENERGY PREDICTED BY IDOCK:   -4.00 KCAL/MOL
REMARK 923 INTER-LIGAND FREE ENERGY PREDICTED BY IDOCK:   -3.88 KCAL/MOL
REMARK 924 INTRA-LIGAND FREE ENERGY PREDICTED BY IDOCK:   -0.11 KCAL/MOL
REMARK 927      BINDING AFFINITY PREDICTED BY RF-SCORE:    0.00 PKD
ROOT
HETATM    1  C   UNL     1     -12.347   8.460  71.762  1.00  0.00    -0.375 C  
HETATM    2  C   UNL     1     -11.536   8.367  70.484  1.00  0.00    -0.179 C  
ENDROOT
BRANCH   2   3
HETATM    3  S   UNL     1     -10.312   9.664  70.387  1.00  0.00    -0.300 S  
HETATM    4  O   UNL     1      -9.254   9.358  71.331  1.00  0.00    -0.277 OA 
HETATM    5  O   UNL     1     -10.994  10.943  70.421  1.00  0.00    -0.150 OA 
BRANCH   3   6
HETATM    6  C   UNL     1      -9.629   9.464  68.759  1.00  0.00    -0.154 C  
BRANCH   6   7
HETATM    7  C   UNL     1     -10.754   9.402  67.739  1.00  0.00    -0.229 C  
BRANCH   7   8
HETATM    8  N   UNL     1     -10.545  10.311  66.622  1.00  0.00    -0.198 NA 
HETATM    9  C   UNL     1     -11.064  11.596  66.534  1.00  0.00    -0.301 A  
HETATM   10  N   UNL     1     -10.777  12.138  65.367  1.00  0.00    -0.274 NA 
HETATM   11  C   UNL     1     -11.844  12.283  67.600  1.00  0.00    -0.334 C  
HETATM   12  C   UNL     1     -10.042  11.211  64.681  1.00  0.00    -0.302 A  
HETATM   13  C   UNL     1      -9.865  10.088  65.447  1.00  0.00    -0.314 A  
HETATM   14  N   UNL     1      -9.106   8.932  65.113  1.00  0.00    -0.151 N  
HETATM   15  O   UNL     1      -8.936   8.083  65.994  1.00  0.00    -0.168 OA 
HETATM   16  O   UNL     1      -8.637   8.889  63.970  1.00  0.00    -0.180 OA 
ENDBRANCH   7   8
ENDBRANCH   6   7
ENDBRANCH   3   6
ENDBRANCH   2   3
TORSDOF 4
ENDMDL
MODEL      173
REMARK 921   NORMALIZED FREE ENERGY PREDICTED BY IDOCK:   -2.90 KCAL/MOL
REMARK 922        TOTAL FREE ENERGY PREDICTED BY IDOCK:   -3.99 KCAL/MOL
REMARK 923 INTER-LIGAND FREE ENERGY PREDICTED BY IDOCK:   -3.77 KCAL/MOL
REMARK 924 INTRA-LIGAND FREE ENERGY PREDICTED BY IDOCK:   -0.22 KCAL/MOL
REMARK 927      BINDING AFFINITY PREDICTED BY RF-SCORE:    0.00 PKD
ROOT
HETATM    1  C   UNL     1      -8.036   4.888  67.996  1.00  0.00    -0.086 C  
HETATM    2  C   UNL     1      -9.002   6.002  68.351  1.00  0.00    -0.114 C  
ENDROOT
BRANCH   2   3
HETATM    3  S   UNL     1      -9.895   6.579  66.916  1.00  0.00    -0.170 S  
HETATM    4  O   UNL     1     -10.706   5.484  66.418  1.00  0.00    -0.281 OA 
HETATM    5  O   UNL     1      -8.967   7.275  66.047  1.00  0.00    -0.165 OA 
BRANCH   3   6
HETATM    6  C   UNL     1     -11.012   7.789  67.586  1.00  0.00     0.050 C  
BRANCH   6   7
HETATM    7  C   UNL     1     -10.217   8.913  68.231  1.00  0.00    -0.201 C  
BRANCH   7   8
HETATM    8  N   UNL     1     -10.996  10.133  68.376  1.00  0.00    -0.251 NA 
HETATM    9  C   UNL     1     -11.145  11.103  67.394  1.00  0.00    -0.307 A  
HETATM   10  N   UNL     1     -11.831  12.132  67.851  1.00  0.00    -0.490 NA 
HETATM   11  C   UNL     1     -10.606  11.014  66.009  1.00  0.00    -0.275 C  
HETATM   12  C   UNL     1     -12.159  11.833  69.144  1.00  0.00    -0.228 A  
HETATM   13  C   UNL     1     -11.677  10.594  69.479  1.00  0.00    -0.284 A  
HETATM   14  N   UNL     1     -11.864   9.903  70.708  1.00  0.00    -0.308 N  
HETATM   15  O   UNL     1     -11.482   8.730  70.772  1.00  0.00    -0.275 OA 
HETATM   16  O   UNL     1     -12.437  10.524  71.610  1.00  0.00    -0.383 OA 
ENDBRANCH   7   8
ENDBRANCH   6   7
ENDBRANCH   3   6
ENDBRANCH   2   3
TORSDOF 4
ENDMDL
MODEL      174
REMARK 921   NORMALIZED FREE ENERGY PREDICTED BY IDOCK:   -2.90 KCAL/MOL
REMARK 922        TOTAL FREE ENERGY PREDICTED BY IDOCK:   -3.99 KCAL/MOL
REMARK 923 INTER-LIGAND FREE ENERGY PREDICTED BY IDOCK:   -4.02 KCAL/MOL
REMARK 924 INTRA-LIGAND FREE ENERGY PREDICTED BY IDOCK:    0.03 KCAL/MOL
REMARK 927      BINDING AFFINITY PREDICTED BY RF-SCORE:    0.00 PKD
ROOT
HETATM    1  C   UNL     1      -5.242  13.288  67.464  1.00  0.00     0.050 C  
HETATM    2  C   UNL     1      -5.669  14.019  68.723  1.00  0.00    -0.085 C  
ENDROOT
BRANCH   2   3
HETATM    3  S   UNL     1      -7.092  15.058  68.428  1.00  0.00    -0.116 S  
HETATM    4  O   UNL     1      -6.951  15.655  67.115  1.00  0.00    -0.199 OA 
HETATM    5  O   UNL     1      -7.311  15.879  69.602  1.00  0.00    -0.195 OA 
BRANCH   3   6
HETATM    6  C   UNL     1      -8.434  13.897  68.329  1.00  0.00    -0.169 C  
BRANCH   6   7
HETATM    7  C   UNL     1      -9.755  14.647  68.282  1.00  0.00    -0.215 C  
BRANCH   7   8
HETATM    8  N   UNL     1     -10.617  14.190  67.203  1.00  0.00    -0.277 NA 
HETATM    9  C   UNL     1     -10.848  14.882  66.021  1.00  0.00    -0.328 A  
HETATM   10  N   UNL     1     -11.743  14.259  65.281  1.00  0.00    -0.345 NA 
HETATM   11  C   UNL     1     -10.187  16.157  65.629  1.00  0.00    -0.390 C  
HETATM   12  C   UNL     1     -12.095  13.131  65.968  1.00  0.00    -0.436 A  
HETATM   13  C   UNL     1     -11.393  13.056  67.143  1.00  0.00    -0.305 A  
HETATM   14  N   UNL     1     -11.431  12.004  68.100  1.00  0.00    -0.297 N  
HETATM   15  O   UNL     1     -10.614  12.040  69.026  1.00  0.00    -0.190 OA 
HETATM   16  O   UNL     1     -12.260  11.108  67.905  1.00  0.00    -0.521 OA 
ENDBRANCH   7   8
ENDBRANCH   6   7
ENDBRANCH   3   6
ENDBRANCH   2   3
TORSDOF 4
ENDMDL
MODEL      175
REMARK 921   NORMALIZED FREE ENERGY PREDICTED BY IDOCK:   -2.89 KCAL/MOL
REMARK 922        TOTAL FREE ENERGY PREDICTED BY IDOCK:   -3.98 KCAL/MOL
REMARK 923 INTER-LIGAND FREE ENERGY PREDICTED BY IDOCK:   -3.66 KCAL/MOL
REMARK 924 INTRA-LIGAND FREE ENERGY PREDICTED BY IDOCK:   -0.32 KCAL/MOL
REMARK 927      BINDING AFFINITY PREDICTED BY RF-SCORE:    0.00 PKD
ROOT
HETATM    1  C   UNL     1     -12.105  12.054  70.138  1.00  0.00    -0.377 C  
HETATM    2  C   UNL     1     -11.823  13.167  69.148  1.00  0.00    -0.314 C  
ENDROOT
BRANCH   2   3
HETATM    3  S   UNL     1     -11.692  12.544  67.479  1.00  0.00    -0.335 S  
HETATM    4  O   UNL     1     -12.394  13.459  66.599  1.00  0.00    -0.361 OA 
HETATM    5  O   UNL     1     -12.009  11.130  67.491  1.00  0.00    -0.580 OA 
BRANCH   3   6
HETATM    6  C   UNL     1      -9.959  12.702  67.117  1.00  0.00    -0.217 C  
BRANCH   6   7
HETATM    7  C   UNL     1      -9.220  13.174  68.358  1.00  0.00    -0.141 C  
BRANCH   7   8
HETATM    8  N   UNL     1      -7.885  12.605  68.462  1.00  0.00    -0.130 NA 
HETATM    9  C   UNL     1      -7.600  11.327  68.923  1.00  0.00    -0.126 A  
HETATM   10  N   UNL     1      -6.297  11.132  68.986  1.00  0.00    -0.049 NA 
HETATM   11  C   UNL     1      -8.613  10.304  69.303  1.00  0.00    -0.175 C  
HETATM   12  C   UNL     1      -5.712  12.285  68.543  1.00  0.00    -0.053 A  
HETATM   13  C   UNL     1      -6.674  13.196  68.190  1.00  0.00    -0.111 A  
HETATM   14  N   UNL     1      -6.468  14.486  67.625  1.00  0.00    -0.163 N  
HETATM   15  O   UNL     1      -7.461  15.106  67.231  1.00  0.00    -0.195 OA 
HETATM   16  O   UNL     1      -5.297  14.870  67.536  1.00  0.00    -0.332 OA 
ENDBRANCH   7   8
ENDBRANCH   6   7
ENDBRANCH   3   6
ENDBRANCH   2   3
TORSDOF 4
ENDMDL
MODEL      176
REMARK 921   NORMALIZED FREE ENERGY PREDICTED BY IDOCK:   -2.89 KCAL/MOL
REMARK 922        TOTAL FREE ENERGY PREDICTED BY IDOCK:   -3.98 KCAL/MOL
REMARK 923 INTER-LIGAND FREE ENERGY PREDICTED BY IDOCK:   -3.66 KCAL/MOL
REMARK 924 INTRA-LIGAND FREE ENERGY PREDICTED BY IDOCK:   -0.32 KCAL/MOL
REMARK 927      BINDING AFFINITY PREDICTED BY RF-SCORE:    0.00 PKD
ROOT
HETATM    1  C   UNL     1     -14.410   8.601  72.100  1.00  0.00    -0.518 C  
HETATM    2  C   UNL     1     -12.984   9.116  72.103  1.00  0.00    -0.425 C  
ENDROOT
BRANCH   2   3
HETATM    3  S   UNL     1     -11.805   7.786  71.929  1.00  0.00    -0.312 S  
HETATM    4  O   UNL     1     -12.541   6.547  71.776  1.00  0.00    -0.335 OA 
HETATM    5  O   UNL     1     -10.794   7.931  72.957  1.00  0.00    -0.383 OA 
BRANCH   3   6
HETATM    6  C   UNL     1     -11.030   8.126  70.366  1.00  0.00    -0.247 C  
BRANCH   6   7
HETATM    7  C   UNL     1      -9.643   7.507  70.339  1.00  0.00    -0.168 C  
BRANCH   7   8
HETATM    8  N   UNL     1      -9.090   7.435  68.995  1.00  0.00    -0.134 NA 
HETATM    9  C   UNL     1      -8.364   8.446  68.378  1.00  0.00    -0.131 A  
HETATM   10  N   UNL     1      -8.077   8.123  67.132  1.00  0.00    -0.115 NA 
HETATM   11  C   UNL     1      -7.961   9.728  69.018  1.00  0.00    -0.096 C  
HETATM   12  C   UNL     1      -8.599   6.876  66.926  1.00  0.00    -0.116 A  
HETATM   13  C   UNL     1      -9.205   6.423  68.070  1.00  0.00    -0.110 A  
HETATM   14  N   UNL     1      -9.807   5.151  68.277  1.00  0.00    -0.152 N  
HETATM   15  O   UNL     1     -10.168   4.866  69.423  1.00  0.00    -0.223 OA 
HETATM   16  O   UNL     1      -9.884   4.409  67.291  1.00  0.00    -0.195 OA 
ENDBRANCH   7   8
ENDBRANCH   6   7
ENDBRANCH   3   6
ENDBRANCH   2   3
TORSDOF 4
ENDMDL
MODEL      177
REMARK 921   NORMALIZED FREE ENERGY PREDICTED BY IDOCK:   -2.89 KCAL/MOL
REMARK 922        TOTAL FREE ENERGY PREDICTED BY IDOCK:   -3.98 KCAL/MOL
REMARK 923 INTER-LIGAND FREE ENERGY PREDICTED BY IDOCK:   -3.73 KCAL/MOL
REMARK 924 INTRA-LIGAND FREE ENERGY PREDICTED BY IDOCK:   -0.25 KCAL/MOL
REMARK 927      BINDING AFFINITY PREDICTED BY RF-SCORE:    0.00 PKD
ROOT
HETATM    1  C   UNL     1     -11.231   5.690  72.937  1.00  0.00    -0.338 C  
HETATM    2  C   UNL     1     -11.086   7.182  73.163  1.00  0.00    -0.262 C  
ENDROOT
BRANCH   2   3
HETATM    3  S   UNL     1     -11.746   8.121  71.795  1.00  0.00    -0.317 S  
HETATM    4  O   UNL     1     -10.956   9.329  71.653  1.00  0.00    -0.355 OA 
HETATM    5  O   UNL     1     -13.187   8.184  71.934  1.00  0.00    -0.328 OA 
BRANCH   3   6
HETATM    6  C   UNL     1     -11.388   7.098  70.385  1.00  0.00    -0.289 C  
BRANCH   6   7
HETATM    7  C   UNL     1     -10.070   7.529  69.765  1.00  0.00    -0.194 C  
BRANCH   7   8
HETATM    8  N   UNL     1      -9.859   6.950  68.447  1.00  0.00    -0.140 NA 
HETATM    9  C   UNL     1      -9.527   5.624  68.204  1.00  0.00    -0.110 A  
HETATM   10  N   UNL     1      -9.314   5.422  66.918  1.00  0.00    -0.123 NA 
HETATM   11  C   UNL     1      -9.415   4.562  69.241  1.00  0.00    -0.242 C  
HETATM   12  C   UNL     1      -9.528   6.622  66.298  1.00  0.00    -0.074 A  
HETATM   13  C   UNL     1      -9.891   7.571  67.219  1.00  0.00    -0.179 A  
HETATM   14  N   UNL     1     -10.258   8.921  66.962  1.00  0.00    -0.256 N  
HETATM   15  O   UNL     1     -10.701   9.585  67.904  1.00  0.00    -0.250 OA 
HETATM   16  O   UNL     1     -10.141   9.313  65.796  1.00  0.00    -0.268 OA 
ENDBRANCH   7   8
ENDBRANCH   6   7
ENDBRANCH   3   6
ENDBRANCH   2   3
TORSDOF 4
ENDMDL
MODEL      178
REMARK 921   NORMALIZED FREE ENERGY PREDICTED BY IDOCK:   -2.88 KCAL/MOL
REMARK 922        TOTAL FREE ENERGY PREDICTED BY IDOCK:   -3.96 KCAL/MOL
REMARK 923 INTER-LIGAND FREE ENERGY PREDICTED BY IDOCK:   -4.55 KCAL/MOL
REMARK 924 INTRA-LIGAND FREE ENERGY PREDICTED BY IDOCK:    0.59 KCAL/MOL
REMARK 927      BINDING AFFINITY PREDICTED BY RF-SCORE:    0.00 PKD
ROOT
HETATM    1  C   UNL     1      -7.127  17.311  68.109  1.00  0.00    -0.190 C  
HETATM    2  C   UNL     1      -7.707  16.069  67.460  1.00  0.00    -0.153 C  
ENDROOT
BRANCH   2   3
HETATM    3  S   UNL     1      -8.840  15.225  68.553  1.00  0.00    -0.195 S  
HETATM    4  O   UNL     1      -9.185  16.130  69.632  1.00  0.00    -0.148 OA 
HETATM    5  O   UNL     1      -8.314  13.902  68.826  1.00  0.00    -0.121 OA 
BRANCH   3   6
HETATM    6  C   UNL     1     -10.299  15.025  67.556  1.00  0.00    -0.241 C  
BRANCH   6   7
HETATM    7  C   UNL     1     -11.531  15.343  68.388  1.00  0.00    -0.355 C  
BRANCH   7   8
HETATM    8  N   UNL     1     -11.844  14.293  69.344  1.00  0.00    -0.306 NA 
HETATM    9  C   UNL     1     -12.066  14.492  70.700  1.00  0.00    -0.322 A  
HETATM   10  N   UNL     1     -12.237  13.341  71.321  1.00  0.00    -0.156 NA 
HETATM   11  C   UNL     1     -12.102  15.816  71.380  1.00  0.00    -0.494 C  
HETATM   12  C   UNL     1     -12.150  12.369  70.363  1.00  0.00    -0.297 A  
HETATM   13  C   UNL     1     -11.935  12.936  69.133  1.00  0.00    -0.259 A  
HETATM   14  N   UNL     1     -11.851  12.266  67.882  1.00  0.00    -0.341 N  
HETATM   15  O   UNL     1     -11.805  12.959  66.860  1.00  0.00    -0.371 OA 
HETATM   16  O   UNL     1     -11.874  11.031  67.913  1.00  0.00    -0.600 OA 
ENDBRANCH   7   8
ENDBRANCH   6   7
ENDBRANCH   3   6
ENDBRANCH   2   3
TORSDOF 4
ENDMDL
MODEL      179
REMARK 921   NORMALIZED FREE ENERGY PREDICTED BY IDOCK:   -2.87 KCAL/MOL
REMARK 922        TOTAL FREE ENERGY PREDICTED BY IDOCK:   -3.96 KCAL/MOL
REMARK 923 INTER-LIGAND FREE ENERGY PREDICTED BY IDOCK:   -4.04 KCAL/MOL
REMARK 924 INTRA-LIGAND FREE ENERGY PREDICTED BY IDOCK:    0.08 KCAL/MOL
REMARK 927      BINDING AFFINITY PREDICTED BY RF-SCORE:    0.00 PKD
ROOT
HETATM    1  C   UNL     1      -9.540  17.961  68.117  1.00  0.00    -0.306 C  
HETATM    2  C   UNL     1     -10.179  16.651  67.694  1.00  0.00    -0.285 C  
ENDROOT
BRANCH   2   3
HETATM    3  S   UNL     1      -9.898  16.314  65.963  1.00  0.00    -0.347 S  
HETATM    4  O   UNL     1      -8.466  16.287  65.734  1.00  0.00    -0.283 OA 
HETATM    5  O   UNL     1     -10.763  17.175  65.181  1.00  0.00    -0.680 OA 
BRANCH   3   6
HETATM    6  C   UNL     1     -10.486  14.647  65.769  1.00  0.00    -0.325 C  
BRANCH   6   7
HETATM    7  C   UNL     1     -10.227  13.864  67.046  1.00  0.00    -0.254 C  
BRANCH   7   8
HETATM    8  N   UNL     1      -9.252  12.801  66.859  1.00  0.00    -0.224 NA 
HETATM    9  C   UNL     1      -9.458  11.657  66.098  1.00  0.00    -0.224 A  
HETATM   10  N   UNL     1      -8.428  10.839  66.194  1.00  0.00    -0.163 NA 
HETATM   11  C   UNL     1     -10.672  11.373  65.285  1.00  0.00    -0.326 C  
HETATM   12  C   UNL     1      -7.520  11.456  67.009  1.00  0.00    -0.147 A  
HETATM   13  C   UNL     1      -7.997  12.677  67.408  1.00  0.00    -0.177 A  
HETATM   14  N   UNL     1      -7.323  13.643  68.206  1.00  0.00    -0.107 N  
HETATM   15  O   UNL     1      -7.853  14.751  68.337  1.00  0.00    -0.116 OA 
HETATM   16  O   UNL     1      -6.230  13.307  68.675  1.00  0.00    -0.074 OA 
ENDBRANCH   7   8
ENDBRANCH   6   7
ENDBRANCH   3   6
ENDBRANCH   2   3
TORSDOF 4
ENDMDL
MODEL      180
REMARK 921   NORMALIZED FREE ENERGY PREDICTED BY IDOCK:   -2.87 KCAL/MOL
REMARK 922        TOTAL FREE ENERGY PREDICTED BY IDOCK:   -3.95 KCAL/MOL
REMARK 923 INTER-LIGAND FREE ENERGY PREDICTED BY IDOCK:   -3.89 KCAL/MOL
REMARK 924 INTRA-LIGAND FREE ENERGY PREDICTED BY IDOCK:   -0.06 KCAL/MOL
REMARK 927      BINDING AFFINITY PREDICTED BY RF-SCORE:    0.00 PKD
ROOT
HETATM    1  C   UNL     1      -9.395  18.480  67.721  1.00  0.00    -0.308 C  
HETATM    2  C   UNL     1      -8.866  17.130  67.276  1.00  0.00    -0.217 C  
ENDROOT
BRANCH   2   3
HETATM    3  S   UNL     1     -10.080  16.232  66.320  1.00  0.00    -0.342 S  
HETATM    4  O   UNL     1     -10.085  16.773  64.975  1.00  0.00    -0.376 OA 
HETATM    5  O   UNL     1     -11.301  16.146  67.095  1.00  0.00    -0.044 OA 
BRANCH   3   6
HETATM    6  C   UNL     1      -9.394  14.595  66.219  1.00  0.00    -0.262 C  
BRANCH   6   7
HETATM    7  C   UNL     1     -10.342  13.692  65.449  1.00  0.00    -0.332 C  
BRANCH   7   8
HETATM    8  N   UNL     1     -10.162  12.286  65.776  1.00  0.00    -0.250 NA 
HETATM    9  C   UNL     1     -10.366  11.729  67.031  1.00  0.00    -0.214 A  
HETATM   10  N   UNL     1     -10.035  10.452  67.037  1.00  0.00    -0.198 NA 
HETATM   11  C   UNL     1     -10.883  12.458  68.222  1.00  0.00    -0.264 C  
HETATM   12  C   UNL     1      -9.627  10.154  65.767  1.00  0.00    -0.230 A  
HETATM   13  C   UNL     1      -9.722  11.264  64.967  1.00  0.00    -0.251 A  
HETATM   14  N   UNL     1      -9.453  11.343  63.573  1.00  0.00    -0.254 N  
HETATM   15  O   UNL     1      -9.741  12.393  62.990  1.00  0.00    -0.159 OA 
HETATM   16  O   UNL     1      -8.984  10.330  63.041  1.00  0.00    -0.192 OA 
ENDBRANCH   7   8
ENDBRANCH   6   7
ENDBRANCH   3   6
ENDBRANCH   2   3
TORSDOF 4
ENDMDL
MODEL      181
REMARK 921   NORMALIZED FREE ENERGY PREDICTED BY IDOCK:   -2.86 KCAL/MOL
REMARK 922        TOTAL FREE ENERGY PREDICTED BY IDOCK:   -3.95 KCAL/MOL
REMARK 923 INTER-LIGAND FREE ENERGY PREDICTED BY IDOCK:   -4.35 KCAL/MOL
REMARK 924 INTRA-LIGAND FREE ENERGY PREDICTED BY IDOCK:    0.40 KCAL/MOL
REMARK 927      BINDING AFFINITY PREDICTED BY RF-SCORE:    0.00 PKD
ROOT
HETATM    1  C   UNL     1     -10.107   5.413  66.344  1.00  0.00    -0.239 C  
HETATM    2  C   UNL     1     -11.004   6.183  67.295  1.00  0.00    -0.326 C  
ENDROOT
BRANCH   2   3
HETATM    3  S   UNL     1     -10.390   6.120  68.972  1.00  0.00    -0.239 S  
HETATM    4  O   UNL     1      -9.377   5.084  69.044  1.00  0.00    -0.112 OA 
HETATM    5  O   UNL     1     -11.523   6.120  69.875  1.00  0.00    -0.421 OA 
BRANCH   3   6
HETATM    6  C   UNL     1      -9.554   7.677  69.161  1.00  0.00    -0.155 C  
BRANCH   6   7
HETATM    7  C   UNL     1      -9.989   8.334  70.460  1.00  0.00    -0.184 C  
BRANCH   7   8
HETATM    8  N   UNL     1     -10.701   9.584  70.242  1.00  0.00    -0.243 NA 
HETATM    9  C   UNL     1     -10.320  10.568  69.339  1.00  0.00    -0.234 A  
HETATM   10  N   UNL     1     -11.110  11.621  69.432  1.00  0.00    -0.233 NA 
HETATM   11  C   UNL     1      -9.176  10.470  68.391  1.00  0.00    -0.154 C  
HETATM   12  C   UNL     1     -12.037  11.323  70.392  1.00  0.00    -0.384 A  
HETATM   13  C   UNL     1     -11.819  10.062  70.885  1.00  0.00    -0.368 A  
HETATM   14  N   UNL     1     -12.605   9.368  71.846  1.00  0.00    -0.383 N  
HETATM   15  O   UNL     1     -12.340   8.180  72.055  1.00  0.00    -0.308 OA 
HETATM   16  O   UNL     1     -13.525  10.004  72.371  1.00  0.00    -0.364 OA 
ENDBRANCH   7   8
ENDBRANCH   6   7
ENDBRANCH   3   6
ENDBRANCH   2   3
TORSDOF 4
ENDMDL
MODEL      182
REMARK 921   NORMALIZED FREE ENERGY PREDICTED BY IDOCK:   -2.85 KCAL/MOL
REMARK 922        TOTAL FREE ENERGY PREDICTED BY IDOCK:   -3.93 KCAL/MOL
REMARK 923 INTER-LIGAND FREE ENERGY PREDICTED BY IDOCK:   -3.64 KCAL/MOL
REMARK 924 INTRA-LIGAND FREE ENERGY PREDICTED BY IDOCK:   -0.29 KCAL/MOL
REMARK 927      BINDING AFFINITY PREDICTED BY RF-SCORE:    0.00 PKD
ROOT
HETATM    1  C   UNL     1     -12.950  10.327  70.806  1.00  0.00    -0.408 C  
HETATM    2  C   UNL     1     -11.489  10.161  70.437  1.00  0.00    -0.322 C  
ENDROOT
BRANCH   2   3
HETATM    3  S   UNL     1     -11.127  10.889  68.846  1.00  0.00    -0.276 S  
HETATM    4  O   UNL     1      -9.848  11.565  68.939  1.00  0.00    -0.173 OA 
HETATM    5  O   UNL     1     -12.309  11.588  68.383  1.00  0.00    -0.461 OA 
BRANCH   3   6
HETATM    6  C   UNL     1     -10.893   9.477  67.792  1.00  0.00    -0.195 C  
BRANCH   6   7
HETATM    7  C   UNL     1      -9.691   8.679  68.268  1.00  0.00    -0.155 C  
BRANCH   7   8
HETATM    8  N   UNL     1      -9.745   7.286  67.852  1.00  0.00    -0.138 NA 
HETATM    9  C   UNL     1     -10.382   6.271  68.554  1.00  0.00    -0.203 A  
HETATM   10  N   UNL     1     -10.181   5.104  67.973  1.00  0.00    -0.145 NA 
HETATM   11  C   UNL     1     -11.180   6.454  69.797  1.00  0.00    -0.484 C  
HETATM   12  C   UNL     1      -9.423   5.350  66.863  1.00  0.00    -0.135 A  
HETATM   13  C   UNL     1      -9.165   6.692  66.755  1.00  0.00    -0.149 A  
HETATM   14  N   UNL     1      -8.465   7.351  65.706  1.00  0.00    -0.142 N  
HETATM   15  O   UNL     1      -8.463   8.586  65.704  1.00  0.00    -0.137 OA 
HETATM   16  O   UNL     1      -7.944   6.628  64.850  1.00  0.00    -0.113 OA 
ENDBRANCH   7   8
ENDBRANCH   6   7
ENDBRANCH   3   6
ENDBRANCH   2   3
TORSDOF 4
ENDMDL
MODEL      183
REMARK 921   NORMALIZED FREE ENERGY PREDICTED BY IDOCK:   -2.84 KCAL/MOL
REMARK 922        TOTAL FREE ENERGY PREDICTED BY IDOCK:   -3.92 KCAL/MOL
REMARK 923 INTER-LIGAND FREE ENERGY PREDICTED BY IDOCK:   -3.61 KCAL/MOL
REMARK 924 INTRA-LIGAND FREE ENERGY PREDICTED BY IDOCK:   -0.31 KCAL/MOL
REMARK 927      BINDING AFFINITY PREDICTED BY RF-SCORE:    0.00 PKD
ROOT
HETATM    1  C   UNL     1     -12.004  11.687  68.900  1.00  0.00    -0.355 C  
HETATM    2  C   UNL     1     -11.250  10.527  69.520  1.00  0.00    -0.271 C  
ENDROOT
BRANCH   2   3
HETATM    3  S   UNL     1     -10.055   9.838  68.385  1.00  0.00    -0.174 S  
HETATM    4  O   UNL     1      -8.852  10.645  68.450  1.00  0.00    -0.132 OA 
HETATM    5  O   UNL     1     -10.717   9.587  67.120  1.00  0.00    -0.255 OA 
BRANCH   3   6
HETATM    6  C   UNL     1      -9.664   8.262  69.107  1.00  0.00    -0.171 C  
BRANCH   6   7
HETATM    7  C   UNL     1     -10.948   7.509  69.414  1.00  0.00    -0.083 C  
BRANCH   7   8
HETATM    8  N   UNL     1     -10.822   6.643  70.576  1.00  0.00    -0.245 NA 
HETATM    9  C   UNL     1     -11.185   6.992  71.871  1.00  0.00    -0.249 A  
HETATM   10  N   UNL     1     -10.869   6.033  72.720  1.00  0.00    -0.235 NA 
HETATM   11  C   UNL     1     -11.838   8.270  72.267  1.00  0.00    -0.451 C  
HETATM   12  C   UNL     1     -10.310   5.030  71.978  1.00  0.00    -0.213 A  
HETATM   13  C   UNL     1     -10.296   5.375  70.651  1.00  0.00    -0.262 A  
HETATM   14  N   UNL     1      -9.855   4.574  69.561  1.00  0.00    -0.215 N  
HETATM   15  O   UNL     1     -10.060   4.997  68.419  1.00  0.00    -0.157 OA 
HETATM   16  O   UNL     1      -9.334   3.490  69.846  1.00  0.00    -0.146 OA 
ENDBRANCH   7   8
ENDBRANCH   6   7
ENDBRANCH   3   6
ENDBRANCH   2   3
TORSDOF 4
ENDMDL
MODEL      184
REMARK 921   NORMALIZED FREE ENERGY PREDICTED BY IDOCK:   -2.76 KCAL/MOL
REMARK 922        TOTAL FREE ENERGY PREDICTED BY IDOCK:   -3.82 KCAL/MOL
REMARK 923 INTER-LIGAND FREE ENERGY PREDICTED BY IDOCK:   -3.51 KCAL/MOL
REMARK 924 INTRA-LIGAND FREE ENERGY PREDICTED BY IDOCK:   -0.31 KCAL/MOL
REMARK 927      BINDING AFFINITY PREDICTED BY RF-SCORE:    0.00 PKD
ROOT
HETATM    1  C   UNL     1     -10.632   7.148  73.425  1.00  0.00    -0.424 C  
HETATM    2  C   UNL     1     -11.589   7.632  72.353  1.00  0.00    -0.336 C  
ENDROOT
BRANCH   2   3
HETATM    3  S   UNL     1     -10.973   9.095  71.535  1.00  0.00    -0.378 S  
HETATM    4  O   UNL     1      -9.616   9.329  71.989  1.00  0.00    -0.235 OA 
HETATM    5  O   UNL     1     -11.981  10.132  71.629  1.00  0.00    -0.361 OA 
BRANCH   3   6
HETATM    6  C   UNL     1     -10.872   8.601  69.830  1.00  0.00    -0.208 C  
BRANCH   6   7
HETATM    7  C   UNL     1      -9.467   8.106  69.526  1.00  0.00    -0.156 C  
BRANCH   7   8
HETATM    8  N   UNL     1      -9.446   7.101  68.474  1.00  0.00    -0.139 NA 
HETATM    9  C   UNL     1      -9.798   5.768  68.641  1.00  0.00    -0.138 A  
HETATM   10  N   UNL     1      -9.591   5.086  67.530  1.00  0.00    -0.138 NA 
HETATM   11  C   UNL     1     -10.333   5.170  69.895  1.00  0.00    -0.347 C  
HETATM   12  C   UNL     1      -9.117   5.981  66.612  1.00  0.00    -0.137 A  
HETATM   13  C   UNL     1      -9.045   7.233  67.165  1.00  0.00    -0.130 A  
HETATM   14  N   UNL     1      -8.663   8.439  66.514  1.00  0.00    -0.128 N  
HETATM   15  O   UNL     1      -8.805   9.497  67.134  1.00  0.00    -0.130 OA 
HETATM   16  O   UNL     1      -8.254   8.334  65.352  1.00  0.00    -0.129 OA 
ENDBRANCH   7   8
ENDBRANCH   6   7
ENDBRANCH   3   6
ENDBRANCH   2   3
TORSDOF 4
ENDMDL
MODEL      185
REMARK 921   NORMALIZED FREE ENERGY PREDICTED BY IDOCK:   -2.76 KCAL/MOL
REMARK 922        TOTAL FREE ENERGY PREDICTED BY IDOCK:   -3.82 KCAL/MOL
REMARK 923 INTER-LIGAND FREE ENERGY PREDICTED BY IDOCK:   -3.48 KCAL/MOL
REMARK 924 INTRA-LIGAND FREE ENERGY PREDICTED BY IDOCK:   -0.35 KCAL/MOL
REMARK 927      BINDING AFFINITY PREDICTED BY RF-SCORE:    0.00 PKD
ROOT
HETATM    1  C   UNL     1     -10.369  16.297  65.803  1.00  0.00    -0.393 C  
HETATM    2  C   UNL     1     -10.628  15.705  67.175  1.00  0.00    -0.308 C  
ENDROOT
BRANCH   2   3
HETATM    3  S   UNL     1     -10.584  13.919  67.138  1.00  0.00    -0.278 S  
HETATM    4  O   UNL     1     -10.458  13.499  65.756  1.00  0.00    -0.280 OA 
HETATM    5  O   UNL     1     -11.654  13.417  67.976  1.00  0.00    -0.293 OA 
BRANCH   3   6
HETATM    6  C   UNL     1      -9.047  13.530  67.941  1.00  0.00    -0.204 C  
BRANCH   6   7
HETATM    7  C   UNL     1      -8.476  12.249  67.356  1.00  0.00    -0.176 C  
BRANCH   7   8
HETATM    8  N   UNL     1      -8.725  11.091  68.200  1.00  0.00    -0.135 NA 
HETATM    9  C   UNL     1      -9.800  10.224  68.063  1.00  0.00    -0.150 A  
HETATM   10  N   UNL     1      -9.804   9.326  69.029  1.00  0.00    -0.162 NA 
HETATM   11  C   UNL     1     -10.823  10.286  66.983  1.00  0.00    -0.248 C  
HETATM   12  C   UNL     1      -8.708   9.587  69.803  1.00  0.00    -0.194 A  
HETATM   13  C   UNL     1      -8.014  10.655  69.294  1.00  0.00    -0.135 A  
HETATM   14  N   UNL     1      -6.788  11.191  69.777  1.00  0.00    -0.123 N  
HETATM   15  O   UNL     1      -6.234  12.061  69.097  1.00  0.00    -0.072 OA 
HETATM   16  O   UNL     1      -6.350  10.710  70.828  1.00  0.00    -0.324 OA 
ENDBRANCH   7   8
ENDBRANCH   6   7
ENDBRANCH   3   6
ENDBRANCH   2   3
TORSDOF 4
ENDMDL
MODEL      186
REMARK 921   NORMALIZED FREE ENERGY PREDICTED BY IDOCK:   -2.76 KCAL/MOL
REMARK 922        TOTAL FREE ENERGY PREDICTED BY IDOCK:   -3.81 KCAL/MOL
REMARK 923 INTER-LIGAND FREE ENERGY PREDICTED BY IDOCK:   -3.50 KCAL/MOL
REMARK 924 INTRA-LIGAND FREE ENERGY PREDICTED BY IDOCK:   -0.31 KCAL/MOL
REMARK 927      BINDING AFFINITY PREDICTED BY RF-SCORE:    0.00 PKD
ROOT
HETATM    1  C   UNL     1     -12.157  13.985  68.606  1.00  0.00    -0.332 C  
HETATM    2  C   UNL     1     -11.793  12.524  68.421  1.00  0.00    -0.304 C  
ENDROOT
BRANCH   2   3
HETATM    3  S   UNL     1     -10.493  12.321  67.213  1.00  0.00    -0.220 S  
HETATM    4  O   UNL     1      -9.496  13.349  67.444  1.00  0.00    -0.208 OA 
HETATM    5  O   UNL     1     -11.101  12.152  65.908  1.00  0.00    -0.293 OA 
BRANCH   3   6
HETATM    6  C   UNL     1      -9.753  10.769  67.664  1.00  0.00    -0.166 C  
BRANCH   6   7
HETATM    7  C   UNL     1     -10.843   9.756  67.975  1.00  0.00    -0.223 C  
BRANCH   7   8
HETATM    8  N   UNL     1     -10.375   8.683  68.839  1.00  0.00    -0.211 NA 
HETATM    9  C   UNL     1     -10.511   8.658  70.221  1.00  0.00    -0.210 A  
HETATM   10  N   UNL     1      -9.910   7.601  70.732  1.00  0.00    -0.178 NA 
HETATM   11  C   UNL     1     -11.227   9.680  71.033  1.00  0.00    -0.445 C  
HETATM   12  C   UNL     1      -9.390   6.906  69.676  1.00  0.00    -0.145 A  
HETATM   13  C   UNL     1      -9.688   7.541  68.499  1.00  0.00    -0.156 A  
HETATM   14  N   UNL     1      -9.378   7.100  67.182  1.00  0.00    -0.135 N  
HETATM   15  O   UNL     1      -9.862   7.730  66.236  1.00  0.00    -0.164 OA 
HETATM   16  O   UNL     1      -8.677   6.086  67.089  1.00  0.00    -0.111 OA 
ENDBRANCH   7   8
ENDBRANCH   6   7
ENDBRANCH   3   6
ENDBRANCH   2   3
TORSDOF 4
ENDMDL
MODEL      187
REMARK 921   NORMALIZED FREE ENERGY PREDICTED BY IDOCK:   -2.74 KCAL/MOL
REMARK 922        TOTAL FREE ENERGY PREDICTED BY IDOCK:   -3.80 KCAL/MOL
REMARK 923 INTER-LIGAND FREE ENERGY PREDICTED BY IDOCK:   -3.37 KCAL/MOL
REMARK 924 INTRA-LIGAND FREE ENERGY PREDICTED BY IDOCK:   -0.43 KCAL/MOL
REMARK 927      BINDING AFFINITY PREDICTED BY RF-SCORE:    0.00 PKD
ROOT
HETATM    1  C   UNL     1      -7.504   6.007  68.924  1.00  0.00    -0.086 C  
HETATM    2  C   UNL     1      -7.870   5.131  70.106  1.00  0.00    -0.078 C  
ENDROOT
BRANCH   2   3
HETATM    3  S   UNL     1      -9.371   5.689  70.897  1.00  0.00    -0.162 S  
HETATM    4  O   UNL     1      -9.162   5.663  72.332  1.00  0.00    -0.144 OA 
HETATM    5  O   UNL     1     -10.492   4.996  70.294  1.00  0.00    -0.261 OA 
BRANCH   3   6
HETATM    6  C   UNL     1      -9.477   7.397  70.418  1.00  0.00    -0.165 C  
BRANCH   6   7
HETATM    7  C   UNL     1     -10.843   7.672  69.810  1.00  0.00    -0.217 C  
BRANCH   7   8
HETATM    8  N   UNL     1     -10.768   8.526  68.635  1.00  0.00    -0.107 NA 
HETATM    9  C   UNL     1     -10.500   8.085  67.346  1.00  0.00    -0.287 A  
HETATM   10  N   UNL     1     -10.409   9.103  66.512  1.00  0.00    -0.241 NA 
HETATM   11  C   UNL     1     -10.330   6.662  66.943  1.00  0.00    -0.324 C  
HETATM   12  C   UNL     1     -10.640  10.229  67.251  1.00  0.00    -0.267 A  
HETATM   13  C   UNL     1     -10.890   9.894  68.557  1.00  0.00    -0.217 A  
HETATM   14  N   UNL     1     -11.237  10.776  69.618  1.00  0.00    -0.269 N  
HETATM   15  O   UNL     1     -11.574  10.274  70.695  1.00  0.00    -0.297 OA 
HETATM   16  O   UNL     1     -11.212  11.985  69.363  1.00  0.00    -0.242 OA 
ENDBRANCH   7   8
ENDBRANCH   6   7
ENDBRANCH   3   6
ENDBRANCH   2   3
TORSDOF 4
ENDMDL
MODEL      188
REMARK 921   NORMALIZED FREE ENERGY PREDICTED BY IDOCK:   -2.74 KCAL/MOL
REMARK 922        TOTAL FREE ENERGY PREDICTED BY IDOCK:   -3.80 KCAL/MOL
REMARK 923 INTER-LIGAND FREE ENERGY PREDICTED BY IDOCK:   -3.45 KCAL/MOL
REMARK 924 INTRA-LIGAND FREE ENERGY PREDICTED BY IDOCK:   -0.35 KCAL/MOL
REMARK 927      BINDING AFFINITY PREDICTED BY RF-SCORE:    0.00 PKD
ROOT
HETATM    1  C   UNL     1      -6.833   6.246  68.916  1.00  0.00    -0.066 C  
HETATM    2  C   UNL     1      -7.257   6.078  67.470  1.00  0.00    -0.076 C  
ENDROOT
BRANCH   2   3
HETATM    3  S   UNL     1      -8.973   6.517  67.234  1.00  0.00    -0.115 S  
HETATM    4  O   UNL     1      -9.769   5.311  67.361  1.00  0.00    -0.131 OA 
HETATM    5  O   UNL     1      -9.073   7.357  66.057  1.00  0.00    -0.159 OA 
BRANCH   3   6
HETATM    6  C   UNL     1      -9.335   7.530  68.649  1.00  0.00    -0.143 C  
BRANCH   6   7
HETATM    7  C   UNL     1     -10.784   7.331  69.060  1.00  0.00    -0.166 C  
BRANCH   7   8
HETATM    8  N   UNL     1     -10.976   7.445  70.498  1.00  0.00    -0.248 NA 
HETATM    9  C   UNL     1     -10.731   6.433  71.416  1.00  0.00    -0.245 A  
HETATM   10  N   UNL     1     -11.084   6.807  72.631  1.00  0.00    -0.260 NA 
HETATM   11  C   UNL     1     -10.155   5.099  71.092  1.00  0.00    -0.291 C  
HETATM   12  C   UNL     1     -11.548   8.088  72.521  1.00  0.00    -0.403 A  
HETATM   13  C   UNL     1     -11.465   8.510  71.219  1.00  0.00    -0.277 A  
HETATM   14  N   UNL     1     -11.789   9.799  70.712  1.00  0.00    -0.302 N  
HETATM   15  O   UNL     1     -11.506  10.041  69.534  1.00  0.00    -0.208 OA 
HETATM   16  O   UNL     1     -12.296  10.595  71.510  1.00  0.00    -0.360 OA 
ENDBRANCH   7   8
ENDBRANCH   6   7
ENDBRANCH   3   6
ENDBRANCH   2   3
TORSDOF 4
ENDMDL
MODEL      189
REMARK 921   NORMALIZED FREE ENERGY PREDICTED BY IDOCK:   -2.74 KCAL/MOL
REMARK 922        TOTAL FREE ENERGY PREDICTED BY IDOCK:   -3.80 KCAL/MOL
REMARK 923 INTER-LIGAND FREE ENERGY PREDICTED BY IDOCK:   -3.71 KCAL/MOL
REMARK 924 INTRA-LIGAND FREE ENERGY PREDICTED BY IDOCK:   -0.08 KCAL/MOL
REMARK 927      BINDING AFFINITY PREDICTED BY RF-SCORE:    0.00 PKD
ROOT
HETATM    1  C   UNL     1      -9.113   5.556  69.721  1.00  0.00    -0.157 C  
HETATM    2  C   UNL     1      -9.126   6.686  68.709  1.00  0.00    -0.131 C  
ENDROOT
BRANCH   2   3
HETATM    3  S   UNL     1      -9.827   6.164  67.151  1.00  0.00    -0.154 S  
HETATM    4  O   UNL     1     -11.214   6.582  67.117  1.00  0.00    -0.388 OA 
HETATM    5  O   UNL     1      -9.459   4.780  66.924  1.00  0.00    -0.135 OA 
BRANCH   3   6
HETATM    6  C   UNL     1      -8.956   7.152  65.957  1.00  0.00    -0.111 C  
BRANCH   6   7
HETATM    7  C   UNL     1      -8.699   8.535  66.532  1.00  0.00    -0.132 C  
BRANCH   7   8
HETATM    8  N   UNL     1      -9.306   9.591  65.737  1.00  0.00    -0.213 NA 
HETATM    9  C   UNL     1      -8.946   9.915  64.436  1.00  0.00    -0.239 A  
HETATM   10  N   UNL     1      -9.612  10.972  64.014  1.00  0.00    -0.251 NA 
HETATM   11  C   UNL     1      -7.942   9.183  63.614  1.00  0.00    -0.146 C  
HETATM   12  C   UNL     1     -10.439  11.341  65.038  1.00  0.00    -0.298 A  
HETATM   13  C   UNL     1     -10.285  10.487  66.100  1.00  0.00    -0.236 A  
HETATM   14  N   UNL     1     -11.011  10.500  67.324  1.00  0.00    -0.285 N  
HETATM   15  O   UNL     1     -10.839   9.557  68.103  1.00  0.00    -0.222 OA 
HETATM   16  O   UNL     1     -11.793  11.441  67.493  1.00  0.00    -0.614 OA 
ENDBRANCH   7   8
ENDBRANCH   6   7
ENDBRANCH   3   6
ENDBRANCH   2   3
TORSDOF 4
ENDMDL
MODEL      190
REMARK 921   NORMALIZED FREE ENERGY PREDICTED BY IDOCK:   -2.71 KCAL/MOL
REMARK 922        TOTAL FREE ENERGY PREDICTED BY IDOCK:   -3.75 KCAL/MOL
REMARK 923 INTER-LIGAND FREE ENERGY PREDICTED BY IDOCK:   -3.23 KCAL/MOL
REMARK 924 INTRA-LIGAND FREE ENERGY PREDICTED BY IDOCK:   -0.52 KCAL/MOL
REMARK 927      BINDING AFFINITY PREDICTED BY RF-SCORE:    0.00 PKD
ROOT
HETATM    1  C   UNL     1     -10.953   5.847  67.558  1.00  0.00    -0.249 C  
HETATM    2  C   UNL     1      -9.672   5.942  66.751  1.00  0.00    -0.153 C  
ENDROOT
BRANCH   2   3
HETATM    3  S   UNL     1      -8.934   7.563  66.880  1.00  0.00    -0.141 S  
HETATM    4  O   UNL     1      -9.140   8.255  65.623  1.00  0.00    -0.156 OA 
HETATM    5  O   UNL     1      -7.606   7.418  67.444  1.00  0.00    -0.106 OA 
BRANCH   3   6
HETATM    6  C   UNL     1      -9.944   8.378  68.094  1.00  0.00    -0.191 C  
BRANCH   6   7
HETATM    7  C   UNL     1      -9.155   8.548  69.382  1.00  0.00    -0.150 C  
BRANCH   7   8
HETATM    8  N   UNL     1      -9.712   7.776  70.483  1.00  0.00    -0.175 NA 
HETATM    9  C   UNL     1      -9.329   6.486  70.823  1.00  0.00    -0.158 A  
HETATM   10  N   UNL     1     -10.075   6.019  71.806  1.00  0.00    -0.185 NA 
HETATM   11  C   UNL     1      -8.232   5.716  70.175  1.00  0.00    -0.114 C  
HETATM   12  C   UNL     1     -10.948   7.018  72.135  1.00  0.00    -0.234 A  
HETATM   13  C   UNL     1     -10.724   8.120  71.350  1.00  0.00    -0.232 A  
HETATM   14  N   UNL     1     -11.380   9.379  71.429  1.00  0.00    -0.355 N  
HETATM   15  O   UNL     1     -10.938  10.302  70.738  1.00  0.00    -0.306 OA 
HETATM   16  O   UNL     1     -12.324   9.461  72.223  1.00  0.00    -0.324 OA 
ENDBRANCH   7   8
ENDBRANCH   6   7
ENDBRANCH   3   6
ENDBRANCH   2   3
TORSDOF 4
ENDMDL
MODEL      191
REMARK 921   NORMALIZED FREE ENERGY PREDICTED BY IDOCK:   -2.70 KCAL/MOL
REMARK 922        TOTAL FREE ENERGY PREDICTED BY IDOCK:   -3.74 KCAL/MOL
REMARK 923 INTER-LIGAND FREE ENERGY PREDICTED BY IDOCK:   -3.38 KCAL/MOL
REMARK 924 INTRA-LIGAND FREE ENERGY PREDICTED BY IDOCK:   -0.36 KCAL/MOL
REMARK 927      BINDING AFFINITY PREDICTED BY RF-SCORE:    0.00 PKD
ROOT
HETATM    1  C   UNL     1      -6.203   8.179  71.688  1.00  0.00    -0.043 C  
HETATM    2  C   UNL     1      -6.233   8.181  70.171  1.00  0.00    -0.032 C  
ENDROOT
BRANCH   2   3
HETATM    3  S   UNL     1      -7.392   9.385  69.540  1.00  0.00    -0.080 S  
HETATM    4  O   UNL     1      -7.908   8.896  68.276  1.00  0.00    -0.099 OA 
HETATM    5  O   UNL     1      -6.788  10.699  69.641  1.00  0.00    -0.093 OA 
BRANCH   3   6
HETATM    6  C   UNL     1      -8.730   9.319  70.708  1.00  0.00    -0.217 C  
BRANCH   6   7
HETATM    7  C   UNL     1     -10.033   9.043  69.976  1.00  0.00    -0.188 C  
BRANCH   7   8
HETATM    8  N   UNL     1     -10.882   8.099  70.686  1.00  0.00    -0.229 NA 
HETATM    9  C   UNL     1     -10.703   6.722  70.698  1.00  0.00    -0.235 A  
HETATM   10  N   UNL     1     -11.682   6.129  71.353  1.00  0.00    -0.243 NA 
HETATM   11  C   UNL     1      -9.571   5.996  70.060  1.00  0.00    -0.194 C  
HETATM   12  C   UNL     1     -12.508   7.124  71.798  1.00  0.00    -0.350 A  
HETATM   13  C   UNL     1     -12.018   8.347  71.420  1.00  0.00    -0.297 A  
HETATM   14  N   UNL     1     -12.555   9.624  71.745  1.00  0.00    -0.387 N  
HETATM   15  O   UNL     1     -11.890  10.621  71.443  1.00  0.00    -0.263 OA 
HETATM   16  O   UNL     1     -13.634   9.633  72.347  1.00  0.00    -0.433 OA 
ENDBRANCH   7   8
ENDBRANCH   6   7
ENDBRANCH   3   6
ENDBRANCH   2   3
TORSDOF 4
ENDMDL
MODEL      192
REMARK 921   NORMALIZED FREE ENERGY PREDICTED BY IDOCK:   -2.69 KCAL/MOL
REMARK 922        TOTAL FREE ENERGY PREDICTED BY IDOCK:   -3.73 KCAL/MOL
REMARK 923 INTER-LIGAND FREE ENERGY PREDICTED BY IDOCK:   -3.42 KCAL/MOL
REMARK 924 INTRA-LIGAND FREE ENERGY PREDICTED BY IDOCK:   -0.31 KCAL/MOL
REMARK 927      BINDING AFFINITY PREDICTED BY RF-SCORE:    0.00 PKD
ROOT
HETATM    1  C   UNL     1      -9.269   6.338  70.927  1.00  0.00    -0.163 C  
HETATM    2  C   UNL     1      -9.163   6.336  69.414  1.00  0.00    -0.138 C  
ENDROOT
BRANCH   2   3
HETATM    3  S   UNL     1     -10.740   5.998  68.647  1.00  0.00    -0.297 S  
HETATM    4  O   UNL     1     -11.779   6.209  69.636  1.00  0.00    -0.331 OA 
HETATM    5  O   UNL     1     -10.639   4.744  67.926  1.00  0.00     0.080 OA 
BRANCH   3   6
HETATM    6  C   UNL     1     -10.897   7.295  67.442  1.00  0.00    -0.247 C  
BRANCH   6   7
HETATM    7  C   UNL     1      -9.824   8.345  67.681  1.00  0.00    -0.173 C  
BRANCH   7   8
HETATM    8  N   UNL     1      -9.987   9.513  66.829  1.00  0.00    -0.215 NA 
HETATM    9  C   UNL     1     -10.681  10.663  67.181  1.00  0.00    -0.272 A  
HETATM   10  N   UNL     1     -10.732  11.508  66.169  1.00  0.00    -0.267 NA 
HETATM   11  C   UNL     1     -11.297  10.923  68.511  1.00  0.00    -0.367 C  
HETATM   12  C   UNL     1     -10.045  10.921  65.142  1.00  0.00    -0.292 A  
HETATM   13  C   UNL     1      -9.556   9.703  65.537  1.00  0.00    -0.283 A  
HETATM   14  N   UNL     1      -8.739   8.820  64.778  1.00  0.00    -0.144 N  
HETATM   15  O   UNL     1      -8.269   7.834  65.355  1.00  0.00    -0.128 OA 
HETATM   16  O   UNL     1      -8.529   9.134  63.601  1.00  0.00    -0.184 OA 
ENDBRANCH   7   8
ENDBRANCH   6   7
ENDBRANCH   3   6
ENDBRANCH   2   3
TORSDOF 4
ENDMDL
MODEL      193
REMARK 921   NORMALIZED FREE ENERGY PREDICTED BY IDOCK:   -2.69 KCAL/MOL
REMARK 922        TOTAL FREE ENERGY PREDICTED BY IDOCK:   -3.73 KCAL/MOL
REMARK 923 INTER-LIGAND FREE ENERGY PREDICTED BY IDOCK:   -3.68 KCAL/MOL
REMARK 924 INTRA-LIGAND FREE ENERGY PREDICTED BY IDOCK:   -0.05 KCAL/MOL
REMARK 927      BINDING AFFINITY PREDICTED BY RF-SCORE:    0.00 PKD
ROOT
HETATM    1  C   UNL     1      -8.760  18.234  68.266  1.00  0.00    -0.302 C  
HETATM    2  C   UNL     1      -8.309  16.797  68.443  1.00  0.00    -0.222 C  
ENDROOT
BRANCH   2   3
HETATM    3  S   UNL     1      -9.249  15.682  67.412  1.00  0.00    -0.201 S  
HETATM    4  O   UNL     1      -9.260  16.215  66.064  1.00  0.00    -0.319 OA 
HETATM    5  O   UNL     1     -10.485  15.357  68.096  1.00  0.00    -0.239 OA 
BRANCH   3   6
HETATM    6  C   UNL     1      -8.252  14.211  67.382  1.00  0.00    -0.193 C  
BRANCH   6   7
HETATM    7  C   UNL     1      -8.861  13.202  66.424  1.00  0.00     0.111 C  
BRANCH   7   8
HETATM    8  N   UNL     1      -9.936  12.433  67.033  1.00  0.00    -0.210 NA 
HETATM    9  C   UNL     1      -9.795  11.611  68.143  1.00  0.00    -0.191 A  
HETATM   10  N   UNL     1     -10.923  10.979  68.404  1.00  0.00    -0.210 NA 
HETATM   11  C   UNL     1      -8.548  11.446  68.938  1.00  0.00    -0.020 C  
HETATM   12  C   UNL     1     -11.828  11.404  67.471  1.00  0.00    -0.022 A  
HETATM   13  C   UNL     1     -11.247  12.320  66.633  1.00  0.00    -0.316 A  
HETATM   14  N   UNL     1     -11.876  13.038  65.578  1.00  0.00    -0.371 N  
HETATM   15  O   UNL     1     -11.229  13.935  65.028  1.00  0.00    -0.317 OA 
HETATM   16  O   UNL     1     -13.045  12.731  65.320  1.00  0.00    -0.658 OA 
ENDBRANCH   7   8
ENDBRANCH   6   7
ENDBRANCH   3   6
ENDBRANCH   2   3
TORSDOF 4
ENDMDL
MODEL      194
REMARK 921   NORMALIZED FREE ENERGY PREDICTED BY IDOCK:   -2.69 KCAL/MOL
REMARK 922        TOTAL FREE ENERGY PREDICTED BY IDOCK:   -3.73 KCAL/MOL
REMARK 923 INTER-LIGAND FREE ENERGY PREDICTED BY IDOCK:   -3.80 KCAL/MOL
REMARK 924 INTRA-LIGAND FREE ENERGY PREDICTED BY IDOCK:    0.07 KCAL/MOL
REMARK 927      BINDING AFFINITY PREDICTED BY RF-SCORE:    0.00 PKD
ROOT
HETATM    1  C   UNL     1      -9.216   8.368  69.941  1.00  0.00    -0.151 C  
HETATM    2  C   UNL     1      -8.831   9.831  70.043  1.00  0.00    -0.215 C  
ENDROOT
BRANCH   2   3
HETATM    3  S   UNL     1      -8.205  10.455  68.491  1.00  0.00    -0.126 S  
HETATM    4  O   UNL     1      -8.690   9.594  67.429  1.00  0.00    -0.128 OA 
HETATM    5  O   UNL     1      -6.789  10.726  68.643  1.00  0.00    -0.056 OA 
BRANCH   3   6
HETATM    6  C   UNL     1      -9.033  12.017  68.312  1.00  0.00    -0.186 C  
BRANCH   6   7
HETATM    7  C   UNL     1      -8.808  12.556  66.909  1.00  0.00    -0.203 C  
BRANCH   7   8
HETATM    8  N   UNL     1     -10.016  13.118  66.327  1.00  0.00    -0.281 NA 
HETATM    9  C   UNL     1     -11.180  12.406  66.069  1.00  0.00    -0.335 A  
HETATM   10  N   UNL     1     -12.068  13.166  65.457  1.00  0.00    -0.415 NA 
HETATM   11  C   UNL     1     -11.411  10.978  66.421  1.00  0.00     0.097 C  
HETATM   12  C   UNL     1     -11.496  14.400  65.327  1.00  0.00    -0.350 A  
HETATM   13  C   UNL     1     -10.241  14.400  65.881  1.00  0.00    -0.325 A  
HETATM   14  N   UNL     1      -9.355  15.506  66.001  1.00  0.00    -0.339 N  
HETATM   15  O   UNL     1      -8.327  15.349  66.665  1.00  0.00    -0.258 OA 
HETATM   16  O   UNL     1      -9.709  16.559  65.459  1.00  0.00    -0.524 OA 
ENDBRANCH   7   8
ENDBRANCH   6   7
ENDBRANCH   3   6
ENDBRANCH   2   3
TORSDOF 4
ENDMDL
MODEL      195
REMARK 921   NORMALIZED FREE ENERGY PREDICTED BY IDOCK:   -2.67 KCAL/MOL
REMARK 922        TOTAL FREE ENERGY PREDICTED BY IDOCK:   -3.71 KCAL/MOL
REMARK 923 INTER-LIGAND FREE ENERGY PREDICTED BY IDOCK:   -3.66 KCAL/MOL
REMARK 924 INTRA-LIGAND FREE ENERGY PREDICTED BY IDOCK:   -0.05 KCAL/MOL
REMARK 927      BINDING AFFINITY PREDICTED BY RF-SCORE:    0.00 PKD
ROOT
HETATM    1  C   UNL     1      -7.652   5.741  70.185  1.00  0.00    -0.086 C  
HETATM    2  C   UNL     1      -8.719   6.504  69.424  1.00  0.00    -0.134 C  
ENDROOT
BRANCH   2   3
HETATM    3  S   UNL     1     -10.244   5.580  69.328  1.00  0.00    -0.257 S  
HETATM    4  O   UNL     1     -10.157   4.467  70.254  1.00  0.00    -0.230 OA 
HETATM    5  O   UNL     1     -10.564   5.365  67.931  1.00  0.00    -0.176 OA 
BRANCH   3   6
HETATM    6  C   UNL     1     -11.450   6.709  69.985  1.00  0.00    -0.375 C  
BRANCH   6   7
HETATM    7  C   UNL     1     -11.611   6.470  71.478  1.00  0.00    -0.315 C  
BRANCH   7   8
HETATM    8  N   UNL     1     -10.521   7.040  72.254  1.00  0.00    -0.204 NA 
HETATM    9  C   UNL     1     -10.030   8.330  72.108  1.00  0.00    -0.273 A  
HETATM   10  N   UNL     1      -8.984   8.525  72.888  1.00  0.00    -0.340 NA 
HETATM   11  C   UNL     1     -10.590   9.366  71.196  1.00  0.00    -0.403 C  
HETATM   12  C   UNL     1      -8.792   7.358  73.574  1.00  0.00    -0.187 A  
HETATM   13  C   UNL     1      -9.745   6.439  73.218  1.00  0.00    -0.163 A  
HETATM   14  N   UNL     1      -9.922   5.134  73.755  1.00  0.00    -0.163 N  
HETATM   15  O   UNL     1     -10.930   4.505  73.418  1.00  0.00    -0.245 OA 
HETATM   16  O   UNL     1      -9.065   4.745  74.557  1.00  0.00    -0.110 OA 
ENDBRANCH   7   8
ENDBRANCH   6   7
ENDBRANCH   3   6
ENDBRANCH   2   3
TORSDOF 4
ENDMDL
MODEL      196
REMARK 921   NORMALIZED FREE ENERGY PREDICTED BY IDOCK:   -2.65 KCAL/MOL
REMARK 922        TOTAL FREE ENERGY PREDICTED BY IDOCK:   -3.68 KCAL/MOL
REMARK 923 INTER-LIGAND FREE ENERGY PREDICTED BY IDOCK:   -3.46 KCAL/MOL
REMARK 924 INTRA-LIGAND FREE ENERGY PREDICTED BY IDOCK:   -0.22 KCAL/MOL
REMARK 927      BINDING AFFINITY PREDICTED BY RF-SCORE:    0.00 PKD
ROOT
HETATM    1  C   UNL     1      -7.003   8.158  65.761  1.00  0.00    -0.064 C  
HETATM    2  C   UNL     1      -7.631   8.331  67.131  1.00  0.00    -0.093 C  
ENDROOT
BRANCH   2   3
HETATM    3  S   UNL     1      -8.755   6.996  67.511  1.00  0.00    -0.120 S  
HETATM    4  O   UNL     1      -8.204   6.244  68.622  1.00  0.00    -0.111 OA 
HETATM    5  O   UNL     1      -9.121   6.338  66.273  1.00  0.00    -0.152 OA 
BRANCH   3   6
HETATM    6  C   UNL     1     -10.199   7.836  68.118  1.00  0.00    -0.202 C  
BRANCH   6   7
HETATM    7  C   UNL     1      -9.949   8.320  69.537  1.00  0.00    -0.187 C  
BRANCH   7   8
HETATM    8  N   UNL     1     -10.975   9.240  70.001  1.00  0.00    -0.234 NA 
HETATM    9  C   UNL     1     -11.023  10.595  69.701  1.00  0.00    -0.278 A  
HETATM   10  N   UNL     1     -12.018  11.181  70.338  1.00  0.00    -0.353 NA 
HETATM   11  C   UNL     1     -10.085  11.308  68.791  1.00  0.00    -0.204 C  
HETATM   12  C   UNL     1     -12.650  10.201  71.051  1.00  0.00    -0.381 A  
HETATM   13  C   UNL     1     -12.039   8.993  70.837  1.00  0.00    -0.198 A  
HETATM   14  N   UNL     1     -12.438   7.726  71.348  1.00  0.00    -0.323 N  
HETATM   15  O   UNL     1     -11.853   6.725  70.922  1.00  0.00    -0.350 OA 
HETATM   16  O   UNL     1     -13.375   7.726  72.154  1.00  0.00    -0.212 OA 
ENDBRANCH   7   8
ENDBRANCH   6   7
ENDBRANCH   3   6
ENDBRANCH   2   3
TORSDOF 4
ENDMDL
MODEL      197
REMARK 921   NORMALIZED FREE ENERGY PREDICTED BY IDOCK:   -2.63 KCAL/MOL
REMARK 922        TOTAL FREE ENERGY PREDICTED BY IDOCK:   -3.65 KCAL/MOL
REMARK 923 INTER-LIGAND FREE ENERGY PREDICTED BY IDOCK:   -3.31 KCAL/MOL
REMARK 924 INTRA-LIGAND FREE ENERGY PREDICTED BY IDOCK:   -0.34 KCAL/MOL
REMARK 927      BINDING AFFINITY PREDICTED BY RF-SCORE:    0.00 PKD
ROOT
HETATM    1  C   UNL     1      -7.626   6.844  74.556  1.00  0.00    -0.126 C  
HETATM    2  C   UNL     1      -7.797   7.916  73.497  1.00  0.00    -0.167 C  
ENDROOT
BRANCH   2   3
HETATM    3  S   UNL     1      -8.828   7.351  72.152  1.00  0.00    -0.126 S  
HETATM    4  O   UNL     1     -10.017   6.745  72.718  1.00  0.00    -0.168 OA 
HETATM    5  O   UNL     1      -7.997   6.626  71.211  1.00  0.00    -0.105 OA 
BRANCH   3   6
HETATM    6  C   UNL     1      -9.338   8.860  71.364  1.00  0.00    -0.268 C  
BRANCH   6   7
HETATM    7  C   UNL     1     -10.717   8.675  70.754  1.00  0.00    -0.216 C  
BRANCH   7   8
HETATM    8  N   UNL     1     -10.664   8.407  69.325  1.00  0.00    -0.176 NA 
HETATM    9  C   UNL     1     -10.684   7.142  68.752  1.00  0.00    -0.169 A  
HETATM   10  N   UNL     1     -10.531   7.218  67.444  1.00  0.00    -0.258 NA 
HETATM   11  C   UNL     1     -10.848   5.863  69.496  1.00  0.00    -0.442 C  
HETATM   12  C   UNL     1     -10.431   8.548  67.144  1.00  0.00    -0.299 A  
HETATM   13  C   UNL     1     -10.537   9.299  68.286  1.00  0.00    -0.189 A  
HETATM   14  N   UNL     1     -10.545  10.718  68.382  1.00  0.00    -0.184 N  
HETATM   15  O   UNL     1     -10.802  11.218  69.482  1.00  0.00    -0.226 OA 
HETATM   16  O   UNL     1     -10.333  11.345  67.338  1.00  0.00    -0.193 OA 
ENDBRANCH   7   8
ENDBRANCH   6   7
ENDBRANCH   3   6
ENDBRANCH   2   3
TORSDOF 4
ENDMDL
MODEL      198
REMARK 921   NORMALIZED FREE ENERGY PREDICTED BY IDOCK:   -2.59 KCAL/MOL
REMARK 922        TOTAL FREE ENERGY PREDICTED BY IDOCK:   -3.61 KCAL/MOL
REMARK 923 INTER-LIGAND FREE ENERGY PREDICTED BY IDOCK:   -3.41 KCAL/MOL
REMARK 924 INTRA-LIGAND FREE ENERGY PREDICTED BY IDOCK:   -0.20 KCAL/MOL
REMARK 927      BINDING AFFINITY PREDICTED BY RF-SCORE:    0.00 PKD
ROOT
HETATM    1  C   UNL     1      -8.130   6.429  70.398  1.00  0.00    -0.117 C  
HETATM    2  C   UNL     1      -8.052   7.698  69.572  1.00  0.00    -0.127 C  
ENDROOT
BRANCH   2   3
HETATM    3  S   UNL     1      -9.469   8.749  69.848  1.00  0.00    -0.175 S  
HETATM    4  O   UNL     1      -9.603   8.960  71.276  1.00  0.00    -0.227 OA 
HETATM    5  O   UNL     1     -10.576   8.243  69.062  1.00  0.00    -0.215 OA 
BRANCH   3   6
HETATM    6  C   UNL     1      -8.974  10.302  69.138  1.00  0.00    -0.180 C  
BRANCH   6   7
HETATM    7  C   UNL     1     -10.040  10.779  68.165  1.00  0.00    -0.164 C  
BRANCH   7   8
HETATM    8  N   UNL     1     -10.730  11.971  68.635  1.00  0.00    -0.230 NA 
HETATM    9  C   UNL     1     -11.836  11.970  69.474  1.00  0.00    -0.326 A  
HETATM   10  N   UNL     1     -12.292  13.195  69.650  1.00  0.00    -0.149 NA 
HETATM   11  C   UNL     1     -12.443  10.761  70.095  1.00  0.00    -0.357 C  
HETATM   12  C   UNL     1     -11.466  14.020  68.937  1.00  0.00    -0.294 A  
HETATM   13  C   UNL     1     -10.481  13.288  68.326  1.00  0.00    -0.250 A  
HETATM   14  N   UNL     1      -9.397  13.786  67.551  1.00  0.00    -0.213 N  
HETATM   15  O   UNL     1      -8.522  12.986  67.206  1.00  0.00    -0.188 OA 
HETATM   16  O   UNL     1      -9.397  15.000  67.316  1.00  0.00    -0.194 OA 
ENDBRANCH   7   8
ENDBRANCH   6   7
ENDBRANCH   3   6
ENDBRANCH   2   3
TORSDOF 4
ENDMDL
MODEL      199
REMARK 921   NORMALIZED FREE ENERGY PREDICTED BY IDOCK:   -2.57 KCAL/MOL
REMARK 922        TOTAL FREE ENERGY PREDICTED BY IDOCK:   -3.59 KCAL/MOL
REMARK 923 INTER-LIGAND FREE ENERGY PREDICTED BY IDOCK:   -4.08 KCAL/MOL
REMARK 924 INTRA-LIGAND FREE ENERGY PREDICTED BY IDOCK:    0.49 KCAL/MOL
REMARK 927      BINDING AFFINITY PREDICTED BY RF-SCORE:    0.00 PKD
ROOT
HETATM    1  C   UNL     1     -11.575   7.980  71.286  1.00  0.00    -0.306 C  
HETATM    2  C   UNL     1     -10.613   9.151  71.227  1.00  0.00    -0.329 C  
ENDROOT
BRANCH   2   3
HETATM    3  S   UNL     1      -8.992   8.642  70.675  1.00  0.00    -0.188 S  
HETATM    4  O   UNL     1      -9.114   7.334  70.061  1.00  0.00    -0.148 OA 
HETATM    5  O   UNL     1      -8.047   8.877  71.749  1.00  0.00    -0.313 OA 
BRANCH   3   6
HETATM    6  C   UNL     1      -8.621   9.794  69.374  1.00  0.00    -0.165 C  
BRANCH   6   7
HETATM    7  C   UNL     1      -9.730  10.829  69.278  1.00  0.00    -0.120 C  
BRANCH   7   8
HETATM    8  N   UNL     1      -9.437  11.871  68.306  1.00  0.00    -0.194 NA 
HETATM    9  C   UNL     1      -8.183  12.426  68.088  1.00  0.00    -0.173 A  
HETATM   10  N   UNL     1      -8.251  13.408  67.210  1.00  0.00    -0.174 NA 
HETATM   11  C   UNL     1      -6.923  11.989  68.749  1.00  0.00    -0.101 C  
HETATM   12  C   UNL     1      -9.561  13.492  66.826  1.00  0.00    -0.267 A  
HETATM   13  C   UNL     1     -10.304  12.536  67.470  1.00  0.00    -0.220 A  
HETATM   14  N   UNL     1     -11.688  12.261  67.291  1.00  0.00    -0.347 N  
HETATM   15  O   UNL     1     -12.151  11.260  67.848  1.00  0.00    -0.634 OA 
HETATM   16  O   UNL     1     -12.314  13.029  66.553  1.00  0.00    -0.399 OA 
ENDBRANCH   7   8
ENDBRANCH   6   7
ENDBRANCH   3   6
ENDBRANCH   2   3
TORSDOF 4
ENDMDL
MODEL      200
REMARK 921   NORMALIZED FREE ENERGY PREDICTED BY IDOCK:   -2.57 KCAL/MOL
REMARK 922        TOTAL FREE ENERGY PREDICTED BY IDOCK:   -3.58 KCAL/MOL
REMARK 923 INTER-LIGAND FREE ENERGY PREDICTED BY IDOCK:   -3.24 KCAL/MOL
REMARK 924 INTRA-LIGAND FREE ENERGY PREDICTED BY IDOCK:   -0.35 KCAL/MOL
REMARK 927      BINDING AFFINITY PREDICTED BY RF-SCORE:    0.00 PKD
ROOT
HETATM    1  C   UNL     1     -11.387   8.004  72.923  1.00  0.00    -0.364 C  
HETATM    2  C   UNL     1     -10.228   7.036  72.786  1.00  0.00    -0.201 C  
ENDROOT
BRANCH   2   3
HETATM    3  S   UNL     1      -8.680   7.894  72.543  1.00  0.00    -0.173 S  
HETATM    4  O   UNL     1      -7.694   6.929  72.098  1.00  0.00    -0.092 OA 
HETATM    5  O   UNL     1      -8.435   8.733  73.700  1.00  0.00    -0.307 OA 
BRANCH   3   6
HETATM    6  C   UNL     1      -9.017   8.966  71.166  1.00  0.00    -0.241 C  
BRANCH   6   7
HETATM    7  C   UNL     1      -8.382   8.396  69.909  1.00  0.00    -0.124 C  
BRANCH   7   8
HETATM    8  N   UNL     1      -9.260   8.484  68.752  1.00  0.00    -0.143 NA 
HETATM    9  C   UNL     1     -10.208   7.533  68.399  1.00  0.00    -0.185 A  
HETATM   10  N   UNL     1     -10.784   7.848  67.255  1.00  0.00    -0.284 NA 
HETATM   11  C   UNL     1     -10.541   6.316  69.189  1.00  0.00    -0.325 C  
HETATM   12  C   UNL     1     -10.226   9.031  66.855  1.00  0.00    -0.269 A  
HETATM   13  C   UNL     1      -9.304   9.453  67.777  1.00  0.00    -0.128 A  
HETATM   14  N   UNL     1      -8.559  10.665  67.753  1.00  0.00    -0.122 N  
HETATM   15  O   UNL     1      -7.885  10.945  68.749  1.00  0.00    -0.116 OA 
HETATM   16  O   UNL     1      -8.679  11.368  66.743  1.00  0.00    -0.162 OA 
ENDBRANCH   7   8
ENDBRANCH   6   7
ENDBRANCH   3   6
ENDBRANCH   2   3
TORSDOF 4
ENDMDL
MODEL      201
REMARK 921   NORMALIZED FREE ENERGY PREDICTED BY IDOCK:   -2.57 KCAL/MOL
REMARK 922        TOTAL FREE ENERGY PREDICTED BY IDOCK:   -3.58 KCAL/MOL
REMARK 923 INTER-LIGAND FREE ENERGY PREDICTED BY IDOCK:   -3.19 KCAL/MOL
REMARK 924 INTRA-LIGAND FREE ENERGY PREDICTED BY IDOCK:   -0.40 KCAL/MOL
REMARK 927      BINDING AFFINITY PREDICTED BY RF-SCORE:    0.00 PKD
ROOT
HETATM    1  C   UNL     1      -9.664   8.015  72.998  1.00  0.00    -0.348 C  
HETATM    2  C   UNL     1     -10.056   6.626  72.532  1.00  0.00    -0.172 C  
ENDROOT
BRANCH   2   3
HETATM    3  S   UNL     1     -10.689   6.648  70.861  1.00  0.00    -0.245 S  
HETATM    4  O   UNL     1     -10.081   7.764  70.163  1.00  0.00    -0.193 OA 
HETATM    5  O   UNL     1     -12.129   6.497  70.915  1.00  0.00    -0.355 OA 
BRANCH   3   6
HETATM    6  C   UNL     1     -10.020   5.163  70.149  1.00  0.00    -0.253 C  
BRANCH   6   7
HETATM    7  C   UNL     1      -9.039   5.524  69.046  1.00  0.00    -0.114 C  
BRANCH   7   8
HETATM    8  N   UNL     1      -9.371   4.894  67.777  1.00  0.00    -0.125 NA 
HETATM    9  C   UNL     1     -10.279   5.395  66.854  1.00  0.00    -0.240 A  
HETATM   10  N   UNL     1     -10.433   4.557  65.847  1.00  0.00    -0.268 NA 
HETATM   11  C   UNL     1     -10.997   6.694  66.971  1.00  0.00    -0.463 C  
HETATM   12  C   UNL     1      -9.602   3.500  66.093  1.00  0.00    -0.092 A  
HETATM   13  C   UNL     1      -8.918   3.701  67.265  1.00  0.00    -0.141 A  
HETATM   14  N   UNL     1      -7.917   2.862  67.829  1.00  0.00    -0.070 N  
HETATM   15  O   UNL     1      -7.304   3.282  68.815  1.00  0.00    -0.049 OA 
HETATM   16  O   UNL     1      -7.711   1.786  67.257  1.00  0.00    -0.059 OA 
ENDBRANCH   7   8
ENDBRANCH   6   7
ENDBRANCH   3   6
ENDBRANCH   2   3
TORSDOF 4
ENDMDL
MODEL      202
REMARK 921   NORMALIZED FREE ENERGY PREDICTED BY IDOCK:   -2.54 KCAL/MOL
REMARK 922        TOTAL FREE ENERGY PREDICTED BY IDOCK:   -3.55 KCAL/MOL
REMARK 923 INTER-LIGAND FREE ENERGY PREDICTED BY IDOCK:   -3.13 KCAL/MOL
REMARK 924 INTRA-LIGAND FREE ENERGY PREDICTED BY IDOCK:   -0.42 KCAL/MOL
REMARK 927      BINDING AFFINITY PREDICTED BY RF-SCORE:    0.00 PKD
ROOT
HETATM    1  C   UNL     1      -9.932   5.759  66.756  1.00  0.00    -0.207 C  
HETATM    2  C   UNL     1     -11.007   6.496  67.532  1.00  0.00    -0.359 C  
ENDROOT
BRANCH   2   3
HETATM    3  S   UNL     1     -10.653   6.517  69.283  1.00  0.00    -0.275 S  
HETATM    4  O   UNL     1     -10.272   5.177  69.683  1.00  0.00    -0.241 OA 
HETATM    5  O   UNL     1     -11.724   7.222  69.959  1.00  0.00    -0.127 OA 
BRANCH   3   6
HETATM    6  C   UNL     1      -9.194   7.527  69.394  1.00  0.00    -0.149 C  
BRANCH   6   7
HETATM    7  C   UNL     1      -9.546   8.863  70.028  1.00  0.00    -0.178 C  
BRANCH   7   8
HETATM    8  N   UNL     1      -8.968   9.989  69.312  1.00  0.00    -0.167 NA 
HETATM    9  C   UNL     1      -9.561  10.636  68.236  1.00  0.00    -0.162 A  
HETATM   10  N   UNL     1      -8.756  11.558  67.743  1.00  0.00    -0.138 NA 
HETATM   11  C   UNL     1     -10.916  10.340  67.695  1.00  0.00    -0.356 C  
HETATM   12  C   UNL     1      -7.627  11.537  68.513  1.00  0.00    -0.130 A  
HETATM   13  C   UNL     1      -7.748  10.595  69.502  1.00  0.00    -0.106 A  
HETATM   14  N   UNL     1      -6.815  10.316  70.540  1.00  0.00    -0.102 N  
HETATM   15  O   UNL     1      -7.165   9.536  71.431  1.00  0.00    -0.330 OA 
HETATM   16  O   UNL     1      -5.735  10.914  70.488  1.00  0.00    -0.103 OA 
ENDBRANCH   7   8
ENDBRANCH   6   7
ENDBRANCH   3   6
ENDBRANCH   2   3
TORSDOF 4
ENDMDL
MODEL      203
REMARK 921   NORMALIZED FREE ENERGY PREDICTED BY IDOCK:   -2.53 KCAL/MOL
REMARK 922        TOTAL FREE ENERGY PREDICTED BY IDOCK:   -3.54 KCAL/MOL
REMARK 923 INTER-LIGAND FREE ENERGY PREDICTED BY IDOCK:   -3.45 KCAL/MOL
REMARK 924 INTRA-LIGAND FREE ENERGY PREDICTED BY IDOCK:   -0.09 KCAL/MOL
REMARK 927      BINDING AFFINITY PREDICTED BY RF-SCORE:    0.00 PKD
ROOT
HETATM    1  C   UNL     1     -12.977  10.604  70.845  1.00  0.00    -0.429 C  
HETATM    2  C   UNL     1     -12.830   9.517  71.892  1.00  0.00    -0.420 C  
ENDROOT
BRANCH   2   3
HETATM    3  S   UNL     1     -11.283   8.642  71.718  1.00  0.00    -0.351 S  
HETATM    4  O   UNL     1     -11.098   7.814  72.893  1.00  0.00    -0.368 OA 
HETATM    5  O   UNL     1     -10.266   9.587  71.303  1.00  0.00    -0.296 OA 
BRANCH   3   6
HETATM    6  C   UNL     1     -11.584   7.546  70.351  1.00  0.00    -0.149 C  
BRANCH   6   7
HETATM    7  C   UNL     1     -10.440   6.551  70.235  1.00  0.00    -0.216 C  
BRANCH   7   8
HETATM    8  N   UNL     1      -9.341   7.059  69.429  1.00  0.00    -0.147 NA 
HETATM    9  C   UNL     1      -9.436   7.424  68.092  1.00  0.00    -0.138 A  
HETATM   10  N   UNL     1      -8.255   7.759  67.612  1.00  0.00    -0.123 NA 
HETATM   11  C   UNL     1     -10.692   7.436  67.292  1.00  0.00    -0.379 C  
HETATM   12  C   UNL     1      -7.369   7.636  68.646  1.00  0.00    -0.091 A  
HETATM   13  C   UNL     1      -8.023   7.231  69.782  1.00  0.00    -0.123 A  
HETATM   14  N   UNL     1      -7.462   7.053  71.077  1.00  0.00    -0.080 N  
HETATM   15  O   UNL     1      -8.237   6.830  72.013  1.00  0.00    -0.105 OA 
HETATM   16  O   UNL     1      -6.236   7.176  71.171  1.00  0.00    -0.036 OA 
ENDBRANCH   7   8
ENDBRANCH   6   7
ENDBRANCH   3   6
ENDBRANCH   2   3
TORSDOF 4
ENDMDL
MODEL      204
REMARK 921   NORMALIZED FREE ENERGY PREDICTED BY IDOCK:   -2.53 KCAL/MOL
REMARK 922        TOTAL FREE ENERGY PREDICTED BY IDOCK:   -3.53 KCAL/MOL
REMARK 923 INTER-LIGAND FREE ENERGY PREDICTED BY IDOCK:   -3.43 KCAL/MOL
REMARK 924 INTRA-LIGAND FREE ENERGY PREDICTED BY IDOCK:   -0.10 KCAL/MOL
REMARK 927      BINDING AFFINITY PREDICTED BY RF-SCORE:    0.00 PKD
ROOT
HETATM    1  C   UNL     1     -11.085   5.260  72.682  1.00  0.00    -0.319 C  
HETATM    2  C   UNL     1     -10.559   6.678  72.789  1.00  0.00    -0.232 C  
ENDROOT
BRANCH   2   3
HETATM    3  S   UNL     1     -11.285   7.742  71.552  1.00  0.00    -0.250 S  
HETATM    4  O   UNL     1     -11.604   9.011  72.178  1.00  0.00    -0.355 OA 
HETATM    5  O   UNL     1     -12.294   6.989  70.835  1.00  0.00    -0.369 OA 
BRANCH   3   6
HETATM    6  C   UNL     1      -9.941   8.042  70.428  1.00  0.00    -0.188 C  
BRANCH   6   7
HETATM    7  C   UNL     1     -10.490   8.493  69.085  1.00  0.00    -0.205 C  
BRANCH   7   8
HETATM    8  N   UNL     1      -9.615   8.142  67.978  1.00  0.00    -0.153 NA 
HETATM    9  C   UNL     1      -8.558   8.919  67.522  1.00  0.00    -0.120 A  
HETATM   10  N   UNL     1      -8.009   8.381  66.451  1.00  0.00    -0.098 NA 
HETATM   11  C   UNL     1      -8.096  10.191  68.142  1.00  0.00    -0.105 C  
HETATM   12  C   UNL     1      -8.695   7.224  66.205  1.00  0.00    -0.149 A  
HETATM   13  C   UNL     1      -9.672   7.044  67.151  1.00  0.00    -0.161 A  
HETATM   14  N   UNL     1     -10.552   5.934  67.276  1.00  0.00    -0.261 N  
HETATM   15  O   UNL     1     -11.265   5.877  68.282  1.00  0.00    -0.189 OA 
HETATM   16  O   UNL     1     -10.502   5.085  66.379  1.00  0.00    -0.276 OA 
ENDBRANCH   7   8
ENDBRANCH   6   7
ENDBRANCH   3   6
ENDBRANCH   2   3
TORSDOF 4
ENDMDL
MODEL      205
REMARK 921   NORMALIZED FREE ENERGY PREDICTED BY IDOCK:   -2.51 KCAL/MOL
REMARK 922        TOTAL FREE ENERGY PREDICTED BY IDOCK:   -3.51 KCAL/MOL
REMARK 923 INTER-LIGAND FREE ENERGY PREDICTED BY IDOCK:   -3.22 KCAL/MOL
REMARK 924 INTRA-LIGAND FREE ENERGY PREDICTED BY IDOCK:   -0.29 KCAL/MOL
REMARK 927      BINDING AFFINITY PREDICTED BY RF-SCORE:    0.00 PKD
ROOT
HETATM    1  C   UNL     1      -8.707  10.545  66.429  1.00  0.00    -0.152 C  
HETATM    2  C   UNL     1      -8.065  11.898  66.674  1.00  0.00    -0.063 C  
ENDROOT
BRANCH   2   3
HETATM    3  S   UNL     1      -8.752  12.699  68.115  1.00  0.00    -0.179 S  
HETATM    4  O   UNL     1      -7.676  12.933  69.058  1.00  0.00     0.031 OA 
HETATM    5  O   UNL     1      -9.949  11.983  68.511  1.00  0.00    -0.209 OA 
BRANCH   3   6
HETATM    6  C   UNL     1      -9.258  14.288  67.499  1.00  0.00    -0.197 C  
BRANCH   6   7
HETATM    7  C   UNL     1      -8.988  15.351  68.551  1.00  0.00    -0.192 C  
BRANCH   7   8
HETATM    8  N   UNL     1      -8.448  16.575  67.980  1.00  0.00    -0.182 NA 
HETATM    9  C   UNL     1      -7.107  16.796  67.697  1.00  0.00    -0.134 A  
HETATM   10  N   UNL     1      -6.915  18.030  67.273  1.00  0.00    -0.185 NA 
HETATM   11  C   UNL     1      -6.019  15.792  67.851  1.00  0.00    -0.156 C  
HETATM   12  C   UNL     1      -8.145  18.627  67.253  1.00  0.00    -0.241 A  
HETATM   13  C   UNL     1      -9.107  17.740  67.661  1.00  0.00    -0.246 A  
HETATM   14  N   UNL     1     -10.511  17.961  67.715  1.00  0.00    -0.388 N  
HETATM   15  O   UNL     1     -11.236  16.993  67.964  1.00  0.00    -0.251 OA 
HETATM   16  O   UNL     1     -10.900  19.107  67.466  1.00  0.00    -0.473 OA 
ENDBRANCH   7   8
ENDBRANCH   6   7
ENDBRANCH   3   6
ENDBRANCH   2   3
TORSDOF 4
ENDMDL
MODEL      206
REMARK 921   NORMALIZED FREE ENERGY PREDICTED BY IDOCK:   -2.51 KCAL/MOL
REMARK 922        TOTAL FREE ENERGY PREDICTED BY IDOCK:   -3.51 KCAL/MOL
REMARK 923 INTER-LIGAND FREE ENERGY PREDICTED BY IDOCK:   -3.25 KCAL/MOL
REMARK 924 INTRA-LIGAND FREE ENERGY PREDICTED BY IDOCK:   -0.26 KCAL/MOL
REMARK 927      BINDING AFFINITY PREDICTED BY RF-SCORE:    0.00 PKD
ROOT
HETATM    1  C   UNL     1     -10.483   6.914  73.483  1.00  0.00    -0.382 C  
HETATM    2  C   UNL     1     -11.293   6.090  72.500  1.00  0.00    -0.300 C  
ENDROOT
BRANCH   2   3
HETATM    3  S   UNL     1     -10.812   6.423  70.812  1.00  0.00    -0.285 S  
HETATM    4  O   UNL     1      -9.718   7.375  70.834  1.00  0.00    -0.170 OA 
HETATM    5  O   UNL     1     -12.009   6.679  70.036  1.00  0.00    -0.340 OA 
BRANCH   3   6
HETATM    6  C   UNL     1     -10.139   4.871  70.264  1.00  0.00    -0.252 C  
BRANCH   6   7
HETATM    7  C   UNL     1      -9.083   5.121  69.200  1.00  0.00    -0.102 C  
BRANCH   7   8
HETATM    8  N   UNL     1      -8.930   3.995  68.292  1.00  0.00    -0.109 NA 
HETATM    9  C   UNL     1      -8.179   2.858  68.555  1.00  0.00    -0.064 A  
HETATM   10  N   UNL     1      -8.158   2.056  67.507  1.00  0.00    -0.064 NA 
HETATM   11  C   UNL     1      -7.479   2.567  69.837  1.00  0.00    -0.043 C  
HETATM   12  C   UNL     1      -8.922   2.659  66.547  1.00  0.00    -0.139 A  
HETATM   13  C   UNL     1      -9.429   3.842  67.019  1.00  0.00    -0.200 A  
HETATM   14  N   UNL     1     -10.317   4.725  66.345  1.00  0.00    -0.281 N  
HETATM   15  O   UNL     1     -10.787   5.669  66.988  1.00  0.00    -0.275 OA 
HETATM   16  O   UNL     1     -10.583   4.451  65.169  1.00  0.00    -0.246 OA 
ENDBRANCH   7   8
ENDBRANCH   6   7
ENDBRANCH   3   6
ENDBRANCH   2   3
TORSDOF 4
ENDMDL
MODEL      207
REMARK 921   NORMALIZED FREE ENERGY PREDICTED BY IDOCK:   -2.51 KCAL/MOL
REMARK 922        TOTAL FREE ENERGY PREDICTED BY IDOCK:   -3.51 KCAL/MOL
REMARK 923 INTER-LIGAND FREE ENERGY PREDICTED BY IDOCK:   -3.54 KCAL/MOL
REMARK 924 INTRA-LIGAND FREE ENERGY PREDICTED BY IDOCK:    0.04 KCAL/MOL
REMARK 927      BINDING AFFINITY PREDICTED BY RF-SCORE:    0.00 PKD
ROOT
HETATM    1  C   UNL     1      -8.379   3.511  68.028  1.00  0.00    -0.095 C  
HETATM    2  C   UNL     1      -9.001   4.798  68.535  1.00  0.00    -0.111 C  
ENDROOT
BRANCH   2   3
HETATM    3  S   UNL     1      -9.594   5.814  67.192  1.00  0.00    -0.135 S  
HETATM    4  O   UNL     1     -10.550   5.037  66.426  1.00  0.00    -0.300 OA 
HETATM    5  O   UNL     1      -8.454   6.438  66.550  1.00  0.00    -0.112 OA 
BRANCH   3   6
HETATM    6  C   UNL     1     -10.510   7.094  68.018  1.00  0.00    -0.201 C  
BRANCH   6   7
HETATM    7  C   UNL     1      -9.715   7.600  69.211  1.00  0.00    -0.164 C  
BRANCH   7   8
HETATM    8  N   UNL     1     -10.556   8.241  70.210  1.00  0.00    -0.223 NA 
HETATM    9  C   UNL     1     -10.965   9.568  70.172  1.00  0.00    -0.262 A  
HETATM   10  N   UNL     1     -11.642   9.881  71.259  1.00  0.00    -0.380 NA 
HETATM   11  C   UNL     1     -10.682  10.524  69.066  1.00  0.00    -0.259 C  
HETATM   12  C   UNL     1     -11.702   8.744  72.017  1.00  0.00    -0.372 A  
HETATM   13  C   UNL     1     -11.061   7.715  71.376  1.00  0.00    -0.238 A  
HETATM   14  N   UNL     1     -10.961   6.364  71.808  1.00  0.00    -0.244 N  
HETATM   15  O   UNL     1     -10.474   5.544  71.024  1.00  0.00    -0.229 OA 
HETATM   16  O   UNL     1     -11.412   6.108  72.931  1.00  0.00    -0.216 OA 
ENDBRANCH   7   8
ENDBRANCH   6   7
ENDBRANCH   3   6
ENDBRANCH   2   3
TORSDOF 4
ENDMDL
MODEL      208
REMARK 921   NORMALIZED FREE ENERGY PREDICTED BY IDOCK:   -2.48 KCAL/MOL
REMARK 922        TOTAL FREE ENERGY PREDICTED BY IDOCK:   -3.47 KCAL/MOL
REMARK 923 INTER-LIGAND FREE ENERGY PREDICTED BY IDOCK:   -3.19 KCAL/MOL
REMARK 924 INTRA-LIGAND FREE ENERGY PREDICTED BY IDOCK:   -0.29 KCAL/MOL
REMARK 927      BINDING AFFINITY PREDICTED BY RF-SCORE:    0.00 PKD
ROOT
HETATM    1  C   UNL     1     -10.581   5.226  66.543  1.00  0.00    -0.348 C  
HETATM    2  C   UNL     1     -10.914   6.607  67.073  1.00  0.00    -0.393 C  
ENDROOT
BRANCH   2   3
HETATM    3  S   UNL     1      -9.619   7.236  68.130  1.00  0.00    -0.142 S  
HETATM    4  O   UNL     1     -10.124   8.409  68.816  1.00  0.00    -0.186 OA 
HETATM    5  O   UNL     1      -8.389   7.291  67.364  1.00  0.00    -0.118 OA 
BRANCH   3   6
HETATM    6  C   UNL     1      -9.431   5.959  69.353  1.00  0.00    -0.130 C  
BRANCH   6   7
HETATM    7  C   UNL     1      -9.373   6.584  70.737  1.00  0.00    -0.158 C  
BRANCH   7   8
HETATM    8  N   UNL     1     -10.274   5.939  71.679  1.00  0.00    -0.196 NA 
HETATM    9  C   UNL     1     -11.618   6.252  71.836  1.00  0.00    -0.317 A  
HETATM   10  N   UNL     1     -12.147   5.560  72.826  1.00  0.00    -0.083 NA 
HETATM   11  C   UNL     1     -12.373   7.236  71.013  1.00  0.00    -0.335 C  
HETATM   12  C   UNL     1     -11.150   4.764  73.317  1.00  0.00    -0.333 A  
HETATM   13  C   UNL     1      -9.994   4.962  72.607  1.00  0.00    -0.165 A  
HETATM   14  N   UNL     1      -8.758   4.278  72.770  1.00  0.00    -0.104 N  
HETATM   15  O   UNL     1      -7.872   4.487  71.936  1.00  0.00    -0.091 OA 
HETATM   16  O   UNL     1      -8.683   3.491  73.720  1.00  0.00    -0.088 OA 
ENDBRANCH   7   8
ENDBRANCH   6   7
ENDBRANCH   3   6
ENDBRANCH   2   3
TORSDOF 4
ENDMDL
MODEL      209
REMARK 921   NORMALIZED FREE ENERGY PREDICTED BY IDOCK:   -2.47 KCAL/MOL
REMARK 922        TOTAL FREE ENERGY PREDICTED BY IDOCK:   -3.46 KCAL/MOL
REMARK 923 INTER-LIGAND FREE ENERGY PREDICTED BY IDOCK:   -3.08 KCAL/MOL
REMARK 924 INTRA-LIGAND FREE ENERGY PREDICTED BY IDOCK:   -0.38 KCAL/MOL
REMARK 927      BINDING AFFINITY PREDICTED BY RF-SCORE:    0.00 PKD
ROOT
HETATM    1  C   UNL     1     -10.627   6.801  67.905  1.00  0.00    -0.296 C  
HETATM    2  C   UNL     1     -11.151   6.537  69.303  1.00  0.00    -0.334 C  
ENDROOT
BRANCH   2   3
HETATM    3  S   UNL     1     -10.839   7.918  70.393  1.00  0.00    -0.243 S  
HETATM    4  O   UNL     1      -9.422   7.943  70.696  1.00  0.00    -0.161 OA 
HETATM    5  O   UNL     1     -11.829   7.899  71.452  1.00  0.00    -0.286 OA 
BRANCH   3   6
HETATM    6  C   UNL     1     -11.177   9.332  69.370  1.00  0.00     0.052 C  
BRANCH   6   7
HETATM    7  C   UNL     1      -9.923  10.182  69.247  1.00  0.00    -0.219 C  
BRANCH   7   8
HETATM    8  N   UNL     1      -9.817  10.834  67.950  1.00  0.00    -0.164 NA 
HETATM    9  C   UNL     1     -10.504  11.982  67.578  1.00  0.00    -0.212 A  
HETATM   10  N   UNL     1     -10.270  12.279  66.315  1.00  0.00    -0.224 NA 
HETATM   11  C   UNL     1     -11.392  12.778  68.468  1.00  0.00    -0.326 C  
HETATM   12  C   UNL     1      -9.402  11.331  65.850  1.00  0.00    -0.219 A  
HETATM   13  C   UNL     1      -9.089  10.446  66.849  1.00  0.00    -0.143 A  
HETATM   14  N   UNL     1      -8.173   9.360  66.779  1.00  0.00    -0.112 N  
HETATM   15  O   UNL     1      -7.908   8.763  67.827  1.00  0.00    -0.101 OA 
HETATM   16  O   UNL     1      -7.680   9.123  65.671  1.00  0.00    -0.092 OA 
ENDBRANCH   7   8
ENDBRANCH   6   7
ENDBRANCH   3   6
ENDBRANCH   2   3
TORSDOF 4
ENDMDL
MODEL      210
REMARK 921   NORMALIZED FREE ENERGY PREDICTED BY IDOCK:   -2.46 KCAL/MOL
REMARK 922        TOTAL FREE ENERGY PREDICTED BY IDOCK:   -3.45 KCAL/MOL
REMARK 923 INTER-LIGAND FREE ENERGY PREDICTED BY IDOCK:   -3.23 KCAL/MOL
REMARK 924 INTRA-LIGAND FREE ENERGY PREDICTED BY IDOCK:   -0.22 KCAL/MOL
REMARK 927      BINDING AFFINITY PREDICTED BY RF-SCORE:    0.00 PKD
ROOT
HETATM    1  C   UNL     1      -8.293   8.762  68.861  1.00  0.00    -0.127 C  
HETATM    2  C   UNL     1      -9.665   9.398  68.982  1.00  0.00    -0.166 C  
ENDROOT
BRANCH   2   3
HETATM    3  S   UNL     1     -10.650   8.599  70.240  1.00  0.00    -0.227 S  
HETATM    4  O   UNL     1     -10.812   7.206  69.869  1.00  0.00    -0.243 OA 
HETATM    5  O   UNL     1     -11.800   9.435  70.522  1.00  0.00    -0.243 OA 
BRANCH   3   6
HETATM    6  C   UNL     1      -9.597   8.636  71.671  1.00  0.00    -0.274 C  
BRANCH   6   7
HETATM    7  C   UNL     1     -10.329   8.032  72.858  1.00  0.00    -0.327 C  
BRANCH   7   8
HETATM    8  N   UNL     1      -9.597   6.929  73.461  1.00  0.00    -0.173 NA 
HETATM    9  C   UNL     1      -8.399   7.052  74.153  1.00  0.00    -0.145 A  
HETATM   10  N   UNL     1      -7.936   5.867  74.502  1.00  0.00    -0.102 NA 
HETATM   11  C   UNL     1      -7.714   8.336  74.463  1.00  0.00    -0.298 C  
HETATM   12  C   UNL     1      -8.846   4.950  74.056  1.00  0.00    -0.114 A  
HETATM   13  C   UNL     1      -9.891   5.585  73.435  1.00  0.00    -0.162 A  
HETATM   14  N   UNL     1     -11.063   4.984  72.896  1.00  0.00    -0.274 N  
HETATM   15  O   UNL     1     -11.966   5.733  72.511  1.00  0.00    -0.275 OA 
HETATM   16  O   UNL     1     -11.100   3.749  72.895  1.00  0.00    -0.081 OA 
ENDBRANCH   7   8
ENDBRANCH   6   7
ENDBRANCH   3   6
ENDBRANCH   2   3
TORSDOF 4
ENDMDL
MODEL      211
REMARK 921   NORMALIZED FREE ENERGY PREDICTED BY IDOCK:   -2.46 KCAL/MOL
REMARK 922        TOTAL FREE ENERGY PREDICTED BY IDOCK:   -3.45 KCAL/MOL
REMARK 923 INTER-LIGAND FREE ENERGY PREDICTED BY IDOCK:   -3.09 KCAL/MOL
REMARK 924 INTRA-LIGAND FREE ENERGY PREDICTED BY IDOCK:   -0.36 KCAL/MOL
REMARK 927      BINDING AFFINITY PREDICTED BY RF-SCORE:    0.00 PKD
ROOT
HETATM    1  C   UNL     1     -11.323   7.796  72.477  1.00  0.00    -0.429 C  
HETATM    2  C   UNL     1     -10.122   6.916  72.185  1.00  0.00    -0.181 C  
ENDROOT
BRANCH   2   3
HETATM    3  S   UNL     1      -8.608   7.863  72.149  1.00  0.00    -0.155 S  
HETATM    4  O   UNL     1      -7.538   6.987  71.713  1.00  0.00    -0.087 OA 
HETATM    5  O   UNL     1      -8.504   8.608  73.388  1.00  0.00    -0.385 OA 
BRANCH   3   6
HETATM    6  C   UNL     1      -8.886   9.034  70.841  1.00  0.00    -0.240 C  
BRANCH   6   7
HETATM    7  C   UNL     1      -8.211   8.547  69.569  1.00  0.00    -0.116 C  
BRANCH   7   8
HETATM    8  N   UNL     1      -9.092   8.605  68.413  1.00  0.00    -0.138 NA 
HETATM    9  C   UNL     1      -9.411   9.762  67.714  1.00  0.00    -0.133 A  
HETATM   10  N   UNL     1     -10.302   9.510  66.774  1.00  0.00    -0.243 NA 
HETATM   11  C   UNL     1      -8.841  11.111  67.978  1.00  0.00    -0.142 C  
HETATM   12  C   UNL     1     -10.560   8.169  66.836  1.00  0.00    -0.241 A  
HETATM   13  C   UNL     1      -9.805   7.588  67.822  1.00  0.00    -0.155 A  
HETATM   14  N   UNL     1      -9.743   6.206  68.154  1.00  0.00    -0.118 N  
HETATM   15  O   UNL     1      -8.890   5.850  68.973  1.00  0.00    -0.119 OA 
HETATM   16  O   UNL     1     -10.527   5.459  67.559  1.00  0.00    -0.207 OA 
ENDBRANCH   7   8
ENDBRANCH   6   7
ENDBRANCH   3   6
ENDBRANCH   2   3
TORSDOF 4
ENDMDL
MODEL      212
REMARK 921   NORMALIZED FREE ENERGY PREDICTED BY IDOCK:   -2.44 KCAL/MOL
REMARK 922        TOTAL FREE ENERGY PREDICTED BY IDOCK:   -3.42 KCAL/MOL
REMARK 923 INTER-LIGAND FREE ENERGY PREDICTED BY IDOCK:   -3.58 KCAL/MOL
REMARK 924 INTRA-LIGAND FREE ENERGY PREDICTED BY IDOCK:    0.16 KCAL/MOL
REMARK 927      BINDING AFFINITY PREDICTED BY RF-SCORE:    0.00 PKD
ROOT
HETATM    1  C   UNL     1      -7.221   7.944  64.693  1.00  0.00    -0.079 C  
HETATM    2  C   UNL     1      -8.158   9.056  64.262  1.00  0.00    -0.151 C  
ENDROOT
BRANCH   2   3
HETATM    3  S   UNL     1      -9.357   9.433  65.532  1.00  0.00    -0.243 S  
HETATM    4  O   UNL     1      -9.347   8.351  66.497  1.00  0.00    -0.172 OA 
HETATM    5  O   UNL     1     -10.588   9.850  64.891  1.00  0.00     0.301 OA 
BRANCH   3   6
HETATM    6  C   UNL     1      -8.665  10.857  66.339  1.00  0.00    -0.170 C  
BRANCH   6   7
HETATM    7  C   UNL     1      -9.757  11.594  67.096  1.00  0.00    -0.181 C  
BRANCH   7   8
HETATM    8  N   UNL     1      -9.726  13.030  66.862  1.00  0.00    -0.232 NA 
HETATM    9  C   UNL     1      -8.644  13.856  67.132  1.00  0.00    -0.203 A  
HETATM   10  N   UNL     1      -8.948  15.118  66.899  1.00  0.00    -0.235 NA 
HETATM   11  C   UNL     1      -7.315  13.400  67.625  1.00  0.00    -0.173 C  
HETATM   12  C   UNL     1     -10.239  15.127  66.448  1.00  0.00    -0.281 A  
HETATM   13  C   UNL     1     -10.728  13.847  66.392  1.00  0.00    -0.281 A  
HETATM   14  N   UNL     1     -12.004  13.436  65.917  1.00  0.00    -0.386 N  
HETATM   15  O   UNL     1     -12.211  12.224  65.801  1.00  0.00    -0.622 OA 
HETATM   16  O   UNL     1     -12.798  14.334  65.615  1.00  0.00    -0.475 OA 
ENDBRANCH   7   8
ENDBRANCH   6   7
ENDBRANCH   3   6
ENDBRANCH   2   3
TORSDOF 4
ENDMDL
MODEL      213
REMARK 921   NORMALIZED FREE ENERGY PREDICTED BY IDOCK:   -2.43 KCAL/MOL
REMARK 922        TOTAL FREE ENERGY PREDICTED BY IDOCK:   -3.42 KCAL/MOL
REMARK 923 INTER-LIGAND FREE ENERGY PREDICTED BY IDOCK:   -3.63 KCAL/MOL
REMARK 924 INTRA-LIGAND FREE ENERGY PREDICTED BY IDOCK:    0.21 KCAL/MOL
REMARK 927      BINDING AFFINITY PREDICTED BY RF-SCORE:    0.00 PKD
ROOT
HETATM    1  C   UNL     1      -6.526   6.483  72.682  1.00  0.00    -0.059 C  
HETATM    2  C   UNL     1      -6.264   6.994  71.278  1.00  0.00    -0.037 C  
ENDROOT
BRANCH   2   3
HETATM    3  S   UNL     1      -7.003   8.599  71.015  1.00  0.00    -0.078 S  
HETATM    4  O   UNL     1      -7.242   8.759  69.594  1.00  0.00    -0.053 OA 
HETATM    5  O   UNL     1      -6.240   9.582  71.759  1.00  0.00    -0.261 OA 
BRANCH   3   6
HETATM    6  C   UNL     1      -8.593   8.451  71.796  1.00  0.00    -0.176 C  
BRANCH   6   7
HETATM    7  C   UNL     1      -9.686   8.513  70.742  1.00  0.00    -0.183 C  
BRANCH   7   8
HETATM    8  N   UNL     1     -10.953   8.982  71.280  1.00  0.00    -0.285 NA 
HETATM    9  C   UNL     1     -11.573   8.473  72.414  1.00  0.00    -0.354 A  
HETATM   10  N   UNL     1     -12.750   9.039  72.598  1.00  0.00    -0.301 NA 
HETATM   11  C   UNL     1     -11.005   7.427  73.308  1.00  0.00    -0.367 C  
HETATM   12  C   UNL     1     -12.904   9.948  71.589  1.00  0.00    -0.436 A  
HETATM   13  C   UNL     1     -11.796   9.947  70.781  1.00  0.00    -0.330 A  
HETATM   14  N   UNL     1     -11.547  10.794  69.665  1.00  0.00    -0.289 N  
HETATM   15  O   UNL     1     -10.426  10.751  69.150  1.00  0.00    -0.199 OA 
HETATM   16  O   UNL     1     -12.469  11.543  69.322  1.00  0.00    -0.221 OA 
ENDBRANCH   7   8
ENDBRANCH   6   7
ENDBRANCH   3   6
ENDBRANCH   2   3
TORSDOF 4
ENDMDL
MODEL      214
REMARK 921   NORMALIZED FREE ENERGY PREDICTED BY IDOCK:   -2.43 KCAL/MOL
REMARK 922        TOTAL FREE ENERGY PREDICTED BY IDOCK:   -3.42 KCAL/MOL
REMARK 923 INTER-LIGAND FREE ENERGY PREDICTED BY IDOCK:   -3.32 KCAL/MOL
REMARK 924 INTRA-LIGAND FREE ENERGY PREDICTED BY IDOCK:   -0.09 KCAL/MOL
REMARK 927      BINDING AFFINITY PREDICTED BY RF-SCORE:    0.00 PKD
ROOT
HETATM    1  C   UNL     1     -12.308   7.346  71.772  1.00  0.00    -0.365 C  
HETATM    2  C   UNL     1     -10.843   7.580  71.457  1.00  0.00    -0.227 C  
ENDROOT
BRANCH   2   3
HETATM    3  S   UNL     1     -10.491   7.303  69.728  1.00  0.00    -0.231 S  
HETATM    4  O   UNL     1     -11.432   6.319  69.228  1.00  0.00    -0.411 OA 
HETATM    5  O   UNL     1      -9.062   7.114  69.575  1.00  0.00    -0.146 OA 
BRANCH   3   6
HETATM    6  C   UNL     1     -10.910   8.855  68.970  1.00  0.00    -0.046 C  
BRANCH   6   7
HETATM    7  C   UNL     1     -10.142   9.977  69.649  1.00  0.00    -0.236 C  
BRANCH   7   8
HETATM    8  N   UNL     1      -9.385  10.785  68.705  1.00  0.00    -0.177 NA 
HETATM    9  C   UNL     1      -9.933  11.484  67.638  1.00  0.00    -0.184 A  
HETATM   10  N   UNL     1      -8.986  12.047  66.911  1.00  0.00    -0.194 NA 
HETATM   11  C   UNL     1     -11.386  11.592  67.336  1.00  0.00    -0.367 C  
HETATM   12  C   UNL     1      -7.800  11.735  67.514  1.00  0.00    -0.148 A  
HETATM   13  C   UNL     1      -8.025  10.980  68.636  1.00  0.00    -0.143 A  
HETATM   14  N   UNL     1      -7.054  10.513  69.566  1.00  0.00    -0.109 N  
HETATM   15  O   UNL     1      -7.462   9.975  70.600  1.00  0.00    -0.302 OA 
HETATM   16  O   UNL     1      -5.870  10.723  69.281  1.00  0.00    -0.041 OA 
ENDBRANCH   7   8
ENDBRANCH   6   7
ENDBRANCH   3   6
ENDBRANCH   2   3
TORSDOF 4
ENDMDL
MODEL      215
REMARK 921   NORMALIZED FREE ENERGY PREDICTED BY IDOCK:   -2.43 KCAL/MOL
REMARK 922        TOTAL FREE ENERGY PREDICTED BY IDOCK:   -3.41 KCAL/MOL
REMARK 923 INTER-LIGAND FREE ENERGY PREDICTED BY IDOCK:   -3.09 KCAL/MOL
REMARK 924 INTRA-LIGAND FREE ENERGY PREDICTED BY IDOCK:   -0.32 KCAL/MOL
REMARK 927      BINDING AFFINITY PREDICTED BY RF-SCORE:    0.00 PKD
ROOT
HETATM    1  C   UNL     1      -9.606  12.107  66.292  1.00  0.00    -0.246 C  
HETATM    2  C   UNL     1      -9.270  11.662  67.703  1.00  0.00    -0.178 C  
ENDROOT
BRANCH   2   3
HETATM    3  S   UNL     1     -10.597  10.707  68.423  1.00  0.00    -0.217 S  
HETATM    4  O   UNL     1     -11.781  10.890  67.605  1.00  0.00    -0.566 OA 
HETATM    5  O   UNL     1     -10.628  10.966  69.848  1.00  0.00    -0.158 OA 
BRANCH   3   6
HETATM    6  C   UNL     1     -10.063   9.027  68.195  1.00  0.00    -0.191 C  
BRANCH   6   7
HETATM    7  C   UNL     1     -11.080   8.081  68.813  1.00  0.00     0.328 C  
BRANCH   7   8
HETATM    8  N   UNL     1     -10.456   7.024  69.594  1.00  0.00    -0.215 NA 
HETATM    9  C   UNL     1     -10.137   7.114  70.942  1.00  0.00    -0.193 A  
HETATM   10  N   UNL     1      -9.500   6.032  71.346  1.00  0.00    -0.156 NA 
HETATM   11  C   UNL     1     -10.456   8.269  71.826  1.00  0.00    -0.325 C  
HETATM   12  C   UNL     1      -9.416   5.206  70.260  1.00  0.00    -0.172 A  
HETATM   13  C   UNL     1     -10.022   5.787  69.176  1.00  0.00    -0.177 A  
HETATM   14  N   UNL     1     -10.198   5.219  67.884  1.00  0.00    -0.164 N  
HETATM   15  O   UNL     1     -10.904   5.834  67.078  1.00  0.00    -0.291 OA 
HETATM   16  O   UNL     1      -9.659   4.126  67.683  1.00  0.00    -0.173 OA 
ENDBRANCH   7   8
ENDBRANCH   6   7
ENDBRANCH   3   6
ENDBRANCH   2   3
TORSDOF 4
ENDMDL
MODEL      216
REMARK 921   NORMALIZED FREE ENERGY PREDICTED BY IDOCK:   -2.41 KCAL/MOL
REMARK 922        TOTAL FREE ENERGY PREDICTED BY IDOCK:   -3.39 KCAL/MOL
REMARK 923 INTER-LIGAND FREE ENERGY PREDICTED BY IDOCK:   -3.18 KCAL/MOL
REMARK 924 INTRA-LIGAND FREE ENERGY PREDICTED BY IDOCK:   -0.21 KCAL/MOL
REMARK 927      BINDING AFFINITY PREDICTED BY RF-SCORE:    0.00 PKD
ROOT
HETATM    1  C   UNL     1     -10.320  17.118  66.390  1.00  0.00    -0.307 C  
HETATM    2  C   UNL     1     -10.510  16.593  67.800  1.00  0.00    -0.316 C  
ENDROOT
BRANCH   2   3
HETATM    3  S   UNL     1     -10.767  14.825  67.813  1.00  0.00    -0.274 S  
HETATM    4  O   UNL     1     -11.083  14.405  66.461  1.00  0.00    -0.317 OA 
HETATM    5  O   UNL     1     -11.643  14.497  68.920  1.00  0.00    -0.276 OA 
BRANCH   3   6
HETATM    6  C   UNL     1      -9.156  14.179  68.195  1.00  0.00    -0.193 C  
BRANCH   6   7
HETATM    7  C   UNL     1      -8.978  12.826  67.526  1.00  0.00    -0.192 C  
BRANCH   7   8
HETATM    8  N   UNL     1      -8.635  11.777  68.474  1.00  0.00    -0.152 NA 
HETATM    9  C   UNL     1      -7.410  11.655  69.116  1.00  0.00    -0.032 A  
HETATM   10  N   UNL     1      -7.371  10.555  69.844  1.00  0.00    -0.143 NA 
HETATM   11  C   UNL     1      -6.282  12.619  69.007  1.00  0.00    -0.091 C  
HETATM   12  C   UNL     1      -8.589   9.953  69.699  1.00  0.00    -0.194 A  
HETATM   13  C   UNL     1      -9.393  10.703  68.880  1.00  0.00    -0.184 A  
HETATM   14  N   UNL     1     -10.750  10.446  68.538  1.00  0.00    -0.206 N  
HETATM   15  O   UNL     1     -11.358  11.316  67.908  1.00  0.00    -0.266 OA 
HETATM   16  O   UNL     1     -11.228   9.379  68.939  1.00  0.00    -0.035 OA 
ENDBRANCH   7   8
ENDBRANCH   6   7
ENDBRANCH   3   6
ENDBRANCH   2   3
TORSDOF 4
ENDMDL
MODEL      217
REMARK 921   NORMALIZED FREE ENERGY PREDICTED BY IDOCK:   -2.40 KCAL/MOL
REMARK 922        TOTAL FREE ENERGY PREDICTED BY IDOCK:   -3.37 KCAL/MOL
REMARK 923 INTER-LIGAND FREE ENERGY PREDICTED BY IDOCK:   -3.64 KCAL/MOL
REMARK 924 INTRA-LIGAND FREE ENERGY PREDICTED BY IDOCK:    0.27 KCAL/MOL
REMARK 927      BINDING AFFINITY PREDICTED BY RF-SCORE:    0.00 PKD
ROOT
HETATM    1  C   UNL     1      -6.586  16.955  67.148  1.00  0.00    -0.224 C  
HETATM    2  C   UNL     1      -5.775  15.771  67.637  1.00  0.00    -0.124 C  
ENDROOT
BRANCH   2   3
HETATM    3  S   UNL     1      -6.794  14.319  67.848  1.00  0.00    -0.177 S  
HETATM    4  O   UNL     1      -7.255  14.287  69.223  1.00  0.00    -0.125 OA 
HETATM    5  O   UNL     1      -6.104  13.186  67.266  1.00  0.00    -0.320 OA 
BRANCH   3   6
HETATM    6  C   UNL     1      -8.212  14.662  66.833  1.00  0.00    -0.076 C  
BRANCH   6   7
HETATM    7  C   UNL     1      -9.124  13.447  66.803  1.00  0.00    -0.212 C  
BRANCH   7   8
HETATM    8  N   UNL     1     -10.496  13.788  66.461  1.00  0.00    -0.279 NA 
HETATM    9  C   UNL     1     -11.217  14.838  67.014  1.00  0.00    -0.345 A  
HETATM   10  N   UNL     1     -12.459  14.838  66.571  1.00  0.00     0.080 NA 
HETATM   11  C   UNL     1     -10.679  15.834  67.982  1.00  0.00    -0.296 C  
HETATM   12  C   UNL     1     -12.558  13.791  65.698  1.00  0.00    -0.509 A  
HETATM   13  C   UNL     1     -11.352  13.147  65.595  1.00  0.00    -0.303 A  
HETATM   14  N   UNL     1     -11.033  12.053  64.744  1.00  0.00    -0.301 N  
HETATM   15  O   UNL     1      -9.851  11.701  64.678  1.00  0.00    -0.244 OA 
HETATM   16  O   UNL     1     -11.967  11.562  64.101  1.00  0.00    -0.185 OA 
ENDBRANCH   7   8
ENDBRANCH   6   7
ENDBRANCH   3   6
ENDBRANCH   2   3
TORSDOF 4
ENDMDL
MODEL      218
REMARK 921   NORMALIZED FREE ENERGY PREDICTED BY IDOCK:   -2.39 KCAL/MOL
REMARK 922        TOTAL FREE ENERGY PREDICTED BY IDOCK:   -3.36 KCAL/MOL
REMARK 923 INTER-LIGAND FREE ENERGY PREDICTED BY IDOCK:   -3.83 KCAL/MOL
REMARK 924 INTRA-LIGAND FREE ENERGY PREDICTED BY IDOCK:    0.46 KCAL/MOL
REMARK 927      BINDING AFFINITY PREDICTED BY RF-SCORE:    0.00 PKD
ROOT
HETATM    1  C   UNL     1     -12.566  10.665  70.701  1.00  0.00    -0.454 C  
HETATM    2  C   UNL     1     -12.567   9.728  71.893  1.00  0.00    -0.391 C  
ENDROOT
BRANCH   2   3
HETATM    3  S   UNL     1     -11.174   8.610  71.850  1.00  0.00    -0.365 S  
HETATM    4  O   UNL     1     -10.956   8.108  73.192  1.00  0.00    -0.262 OA 
HETATM    5  O   UNL     1     -10.102   9.242  71.106  1.00  0.00    -0.288 OA 
BRANCH   3   6
HETATM    6  C   UNL     1     -11.770   7.248  70.875  1.00  0.00    -0.315 C  
BRANCH   6   7
HETATM    7  C   UNL     1     -11.820   5.993  71.731  1.00  0.00    -0.126 C  
BRANCH   7   8
HETATM    8  N   UNL     1     -10.645   5.153  71.556  1.00  0.00    -0.187 NA 
HETATM    9  C   UNL     1      -9.962   4.980  70.359  1.00  0.00    -0.247 A  
HETATM   10  N   UNL     1      -8.998   4.091  70.495  1.00  0.00    -0.090 NA 
HETATM   11  C   UNL     1     -10.266   5.688  69.086  1.00  0.00    -0.305 C  
HETATM   12  C   UNL     1      -9.027   3.685  71.800  1.00  0.00    -0.106 A  
HETATM   13  C   UNL     1     -10.018   4.347  72.478  1.00  0.00    -0.169 A  
HETATM   14  N   UNL     1     -10.324   4.249  73.864  1.00  0.00    -0.179 N  
HETATM   15  O   UNL     1     -11.155   5.037  74.326  1.00  0.00    -0.237 OA 
HETATM   16  O   UNL     1      -9.697   3.402  74.509  1.00  0.00    -0.103 OA 
ENDBRANCH   7   8
ENDBRANCH   6   7
ENDBRANCH   3   6
ENDBRANCH   2   3
TORSDOF 4
ENDMDL
MODEL      219
REMARK 921   NORMALIZED FREE ENERGY PREDICTED BY IDOCK:   -2.38 KCAL/MOL
REMARK 922        TOTAL FREE ENERGY PREDICTED BY IDOCK:   -3.35 KCAL/MOL
REMARK 923 INTER-LIGAND FREE ENERGY PREDICTED BY IDOCK:   -3.12 KCAL/MOL
REMARK 924 INTRA-LIGAND FREE ENERGY PREDICTED BY IDOCK:   -0.23 KCAL/MOL
REMARK 927      BINDING AFFINITY PREDICTED BY RF-SCORE:    0.00 PKD
ROOT
HETATM    1  C   UNL     1      -8.559   7.180  68.424  1.00  0.00    -0.123 C  
HETATM    2  C   UNL     1      -8.427   8.617  67.955  1.00  0.00    -0.127 C  
ENDROOT
BRANCH   2   3
HETATM    3  S   UNL     1      -9.517   8.963  66.583  1.00  0.00    -0.222 S  
HETATM    4  O   UNL     1     -10.720   8.171  66.752  1.00  0.00    -0.278 OA 
HETATM    5  O   UNL     1      -8.746   8.898  65.358  1.00  0.00    -0.171 OA 
BRANCH   3   6
HETATM    6  C   UNL     1      -9.973  10.661  66.840  1.00  0.00    -0.202 C  
BRANCH   6   7
HETATM    7  C   UNL     1      -9.327  11.176  68.116  1.00  0.00    -0.176 C  
BRANCH   7   8
HETATM    8  N   UNL     1      -9.221  12.626  68.141  1.00  0.00    -0.206 NA 
HETATM    9  C   UNL     1     -10.291  13.499  68.291  1.00  0.00    -0.252 A  
HETATM   10  N   UNL     1      -9.892  14.752  68.185  1.00  0.00    -0.217 NA 
HETATM   11  C   UNL     1     -11.703  13.095  68.533  1.00  0.00    -0.387 C  
HETATM   12  C   UNL     1      -8.540  14.710  67.984  1.00  0.00    -0.162 A  
HETATM   13  C   UNL     1      -8.103  13.411  67.980  1.00  0.00    -0.160 A  
HETATM   14  N   UNL     1      -6.759  12.958  67.865  1.00  0.00    -0.106 N  
HETATM   15  O   UNL     1      -6.543  11.754  68.034  1.00  0.00    -0.056 OA 
HETATM   16  O   UNL     1      -5.902  13.820  67.641  1.00  0.00    -0.271 OA 
ENDBRANCH   7   8
ENDBRANCH   6   7
ENDBRANCH   3   6
ENDBRANCH   2   3
TORSDOF 4
ENDMDL
MODEL      220
REMARK 921   NORMALIZED FREE ENERGY PREDICTED BY IDOCK:   -2.37 KCAL/MOL
REMARK 922        TOTAL FREE ENERGY PREDICTED BY IDOCK:   -3.34 KCAL/MOL
REMARK 923 INTER-LIGAND FREE ENERGY PREDICTED BY IDOCK:   -3.07 KCAL/MOL
REMARK 924 INTRA-LIGAND FREE ENERGY PREDICTED BY IDOCK:   -0.27 KCAL/MOL
REMARK 927      BINDING AFFINITY PREDICTED BY RF-SCORE:    0.00 PKD
ROOT
HETATM    1  C   UNL     1      -7.247  10.367  64.827  1.00  0.00    -0.034 C  
HETATM    2  C   UNL     1      -7.294  10.245  66.338  1.00  0.00    -0.114 C  
ENDROOT
BRANCH   2   3
HETATM    3  S   UNL     1      -8.941  10.533  66.968  1.00  0.00    -0.140 S  
HETATM    4  O   UNL     1      -9.891  10.038  65.992  1.00  0.00    -0.222 OA 
HETATM    5  O   UNL     1      -9.013  11.896  67.456  1.00  0.00    -0.162 OA 
BRANCH   3   6
HETATM    6  C   UNL     1      -9.034   9.455  68.378  1.00  0.00    -0.128 C  
BRANCH   6   7
HETATM    7  C   UNL     1      -8.752  10.246  69.645  1.00  0.00    -0.105 C  
BRANCH   7   8
HETATM    8  N   UNL     1      -8.804   9.420  70.841  1.00  0.00    -0.251 NA 
HETATM    9  C   UNL     1      -7.716   8.768  71.405  1.00  0.00    -0.114 A  
HETATM   10  N   UNL     1      -8.094   8.026  72.429  1.00  0.00    -0.120 NA 
HETATM   11  C   UNL     1      -6.309   8.874  70.931  1.00  0.00    -0.054 C  
HETATM   12  C   UNL     1      -9.443   8.206  72.558  1.00  0.00    -0.269 A  
HETATM   13  C   UNL     1      -9.896   9.082  71.606  1.00  0.00    -0.296 A  
HETATM   14  N   UNL     1     -11.223   9.571  71.453  1.00  0.00    -0.375 N  
HETATM   15  O   UNL     1     -11.411  10.473  70.630  1.00  0.00    -0.322 OA 
HETATM   16  O   UNL     1     -12.083   9.079  72.191  1.00  0.00    -0.363 OA 
ENDBRANCH   7   8
ENDBRANCH   6   7
ENDBRANCH   3   6
ENDBRANCH   2   3
TORSDOF 4
ENDMDL
MODEL      221
REMARK 921   NORMALIZED FREE ENERGY PREDICTED BY IDOCK:   -2.37 KCAL/MOL
REMARK 922        TOTAL FREE ENERGY PREDICTED BY IDOCK:   -3.33 KCAL/MOL
REMARK 923 INTER-LIGAND FREE ENERGY PREDICTED BY IDOCK:   -3.03 KCAL/MOL
REMARK 924 INTRA-LIGAND FREE ENERGY PREDICTED BY IDOCK:   -0.31 KCAL/MOL
REMARK 927      BINDING AFFINITY PREDICTED BY RF-SCORE:    0.00 PKD
ROOT
HETATM    1  C   UNL     1      -8.235  12.567  68.307  1.00  0.00    -0.168 C  
HETATM    2  C   UNL     1      -7.067  11.823  68.927  1.00  0.00    -0.114 C  
ENDROOT
BRANCH   2   3
HETATM    3  S   UNL     1      -7.309  10.054  68.866  1.00  0.00    -0.085 S  
HETATM    4  O   UNL     1      -6.481   9.450  69.891  1.00  0.00    -0.041 OA 
HETATM    5  O   UNL     1      -7.218   9.626  67.485  1.00  0.00    -0.088 OA 
BRANCH   3   6
HETATM    6  C   UNL     1      -8.999   9.853  69.379  1.00  0.00    -0.195 C  
BRANCH   6   7
HETATM    7  C   UNL     1      -9.064   8.893  70.555  1.00  0.00    -0.200 C  
BRANCH   7   8
HETATM    8  N   UNL     1     -10.275   8.087  70.550  1.00  0.00    -0.197 NA 
HETATM    9  C   UNL     1     -11.499   8.486  71.070  1.00  0.00    -0.273 A  
HETATM   10  N   UNL     1     -12.380   7.507  71.000  1.00  0.00    -0.275 NA 
HETATM   11  C   UNL     1     -11.794   9.830  71.639  1.00  0.00    -0.429 C  
HETATM   12  C   UNL     1     -11.740   6.454  70.408  1.00  0.00    -0.321 A  
HETATM   13  C   UNL     1     -10.450   6.799  70.098  1.00  0.00    -0.209 A  
HETATM   14  N   UNL     1      -9.488   6.002  69.419  1.00  0.00    -0.133 N  
HETATM   15  O   UNL     1      -8.423   6.538  69.094  1.00  0.00    -0.124 OA 
HETATM   16  O   UNL     1      -9.813   4.836  69.168  1.00  0.00    -0.175 OA 
ENDBRANCH   7   8
ENDBRANCH   6   7
ENDBRANCH   3   6
ENDBRANCH   2   3
TORSDOF 4
ENDMDL
MODEL      222
REMARK 921   NORMALIZED FREE ENERGY PREDICTED BY IDOCK:   -2.36 KCAL/MOL
REMARK 922        TOTAL FREE ENERGY PREDICTED BY IDOCK:   -3.33 KCAL/MOL
REMARK 923 INTER-LIGAND FREE ENERGY PREDICTED BY IDOCK:   -3.03 KCAL/MOL
REMARK 924 INTRA-LIGAND FREE ENERGY PREDICTED BY IDOCK:   -0.30 KCAL/MOL
REMARK 927      BINDING AFFINITY PREDICTED BY RF-SCORE:    0.00 PKD
ROOT
HETATM    1  C   UNL     1      -5.140   9.770  72.627  1.00  0.00    -0.041 C  
HETATM    2  C   UNL     1      -5.430   8.937  71.393  1.00  0.00    -0.042 C  
ENDROOT
BRANCH   2   3
HETATM    3  S   UNL     1      -6.488   9.808  70.248  1.00  0.00    -0.107 S  
HETATM    4  O   UNL     1      -6.283   9.246  68.927  1.00  0.00    -0.043 OA 
HETATM    5  O   UNL     1      -6.345  11.231  70.483  1.00  0.00    -0.306 OA 
BRANCH   3   6
HETATM    6  C   UNL     1      -8.123   9.341  70.763  1.00  0.00    -0.156 C  
BRANCH   6   7
HETATM    7  C   UNL     1      -8.141   7.864  71.125  1.00  0.00    -0.092 C  
BRANCH   7   8
HETATM    8  N   UNL     1      -9.291   7.504  71.940  1.00  0.00    -0.142 NA 
HETATM    9  C   UNL     1      -9.308   7.492  73.328  1.00  0.00    -0.219 A  
HETATM   10  N   UNL     1     -10.462   7.036  73.778  1.00  0.00    -0.380 NA 
HETATM   11  C   UNL     1      -8.186   7.923  74.207  1.00  0.00    -0.303 C  
HETATM   12  C   UNL     1     -11.225   6.765  72.677  1.00  0.00    -0.255 A  
HETATM   13  C   UNL     1     -10.532   7.071  71.535  1.00  0.00    -0.204 A  
HETATM   14  N   UNL     1     -11.005   6.990  70.196  1.00  0.00    -0.262 N  
HETATM   15  O   UNL     1     -10.287   7.453  69.304  1.00  0.00    -0.195 OA 
HETATM   16  O   UNL     1     -12.126   6.494  70.034  1.00  0.00    -0.282 OA 
ENDBRANCH   7   8
ENDBRANCH   6   7
ENDBRANCH   3   6
ENDBRANCH   2   3
TORSDOF 4
ENDMDL
MODEL      223
REMARK 921   NORMALIZED FREE ENERGY PREDICTED BY IDOCK:   -2.36 KCAL/MOL
REMARK 922        TOTAL FREE ENERGY PREDICTED BY IDOCK:   -3.32 KCAL/MOL
REMARK 923 INTER-LIGAND FREE ENERGY PREDICTED BY IDOCK:   -3.04 KCAL/MOL
REMARK 924 INTRA-LIGAND FREE ENERGY PREDICTED BY IDOCK:   -0.29 KCAL/MOL
REMARK 927      BINDING AFFINITY PREDICTED BY RF-SCORE:    0.00 PKD
ROOT
HETATM    1  C   UNL     1     -13.324   9.684  71.417  1.00  0.00    -0.444 C  
HETATM    2  C   UNL     1     -12.196  10.696  71.336  1.00  0.00    -0.302 C  
ENDROOT
BRANCH   2   3
HETATM    3  S   UNL     1     -11.897  11.211  69.652  1.00  0.00    -0.376 S  
HETATM    4  O   UNL     1     -11.454  12.591  69.675  1.00  0.00    -0.250 OA 
HETATM    5  O   UNL     1     -13.026  10.803  68.840  1.00  0.00     0.361 OA 
BRANCH   3   6
HETATM    6  C   UNL     1     -10.501  10.225  69.163  1.00  0.00    -0.224 C  
BRANCH   6   7
HETATM    7  C   UNL     1     -10.803   9.534  67.844  1.00  0.00    -0.180 C  
BRANCH   7   8
HETATM    8  N   UNL     1      -9.914   9.962  66.774  1.00  0.00    -0.202 NA 
HETATM    9  C   UNL     1     -10.185  10.986  65.877  1.00  0.00    -0.254 A  
HETATM   10  N   UNL     1      -9.232  11.079  64.970  1.00  0.00    -0.209 NA 
HETATM   11  C   UNL     1     -11.385  11.866  65.914  1.00  0.00    -0.365 C  
HETATM   12  C   UNL     1      -8.308  10.120  65.282  1.00  0.00    -0.159 A  
HETATM   13  C   UNL     1      -8.697   9.438  66.406  1.00  0.00    -0.135 A  
HETATM   14  N   UNL     1      -7.976   8.414  67.080  1.00  0.00    -0.104 N  
HETATM   15  O   UNL     1      -8.416   8.021  68.166  1.00  0.00    -0.122 OA 
HETATM   16  O   UNL     1      -6.935   8.023  66.541  1.00  0.00    -0.068 OA 
ENDBRANCH   7   8
ENDBRANCH   6   7
ENDBRANCH   3   6
ENDBRANCH   2   3
TORSDOF 4
ENDMDL
MODEL      224
REMARK 921   NORMALIZED FREE ENERGY PREDICTED BY IDOCK:   -2.33 KCAL/MOL
REMARK 922        TOTAL FREE ENERGY PREDICTED BY IDOCK:   -3.29 KCAL/MOL
REMARK 923 INTER-LIGAND FREE ENERGY PREDICTED BY IDOCK:   -3.01 KCAL/MOL
REMARK 924 INTRA-LIGAND FREE ENERGY PREDICTED BY IDOCK:   -0.28 KCAL/MOL
REMARK 927      BINDING AFFINITY PREDICTED BY RF-SCORE:    0.00 PKD
ROOT
HETATM    1  C   UNL     1      -7.316   3.007  74.161  1.00  0.00    -0.047 C  
HETATM    2  C   UNL     1      -8.484   3.535  73.350  1.00  0.00    -0.082 C  
ENDROOT
BRANCH   2   3
HETATM    3  S   UNL     1      -8.219   3.316  71.598  1.00  0.00    -0.062 S  
HETATM    4  O   UNL     1      -8.488   1.930  71.269  1.00  0.00    -0.052 OA 
HETATM    5  O   UNL     1      -6.957   3.936  71.244  1.00  0.00    -0.031 OA 
BRANCH   3   6
HETATM    6  C   UNL     1      -9.516   4.285  70.863  1.00  0.00    -0.169 C  
BRANCH   6   7
HETATM    7  C   UNL     1      -9.049   5.723  70.703  1.00  0.00    -0.151 C  
BRANCH   7   8
HETATM    8  N   UNL     1      -9.611   6.606  71.713  1.00  0.00    -0.159 NA 
HETATM    9  C   UNL     1      -8.909   7.130  72.790  1.00  0.00    -0.122 A  
HETATM   10  N   UNL     1      -9.709   7.821  73.579  1.00  0.00    -0.293 NA 
HETATM   11  C   UNL     1      -7.453   6.943  73.041  1.00  0.00    -0.078 C  
HETATM   12  C   UNL     1     -10.950   7.773  73.008  1.00  0.00    -0.381 A  
HETATM   13  C   UNL     1     -10.906   7.052  71.843  1.00  0.00    -0.224 A  
HETATM   14  N   UNL     1     -11.974   6.830  70.930  1.00  0.00    -0.381 N  
HETATM   15  O   UNL     1     -11.707   6.282  69.856  1.00  0.00    -0.408 OA 
HETATM   16  O   UNL     1     -13.087   7.245  71.270  1.00  0.00    -0.369 OA 
ENDBRANCH   7   8
ENDBRANCH   6   7
ENDBRANCH   3   6
ENDBRANCH   2   3
TORSDOF 4
ENDMDL
MODEL      225
REMARK 921   NORMALIZED FREE ENERGY PREDICTED BY IDOCK:   -2.31 KCAL/MOL
REMARK 922        TOTAL FREE ENERGY PREDICTED BY IDOCK:   -3.27 KCAL/MOL
REMARK 923 INTER-LIGAND FREE ENERGY PREDICTED BY IDOCK:   -3.16 KCAL/MOL
REMARK 924 INTRA-LIGAND FREE ENERGY PREDICTED BY IDOCK:   -0.11 KCAL/MOL
REMARK 927      BINDING AFFINITY PREDICTED BY RF-SCORE:    0.00 PKD
ROOT
HETATM    1  C   UNL     1      -9.630  13.280  66.906  1.00  0.00    -0.249 C  
HETATM    2  C   UNL     1      -9.813  11.987  66.135  1.00  0.00    -0.235 C  
ENDROOT
BRANCH   2   3
HETATM    3  S   UNL     1     -10.118  10.608  67.230  1.00  0.00    -0.208 S  
HETATM    4  O   UNL     1     -10.030   9.387  66.453  1.00  0.00    -0.244 OA 
HETATM    5  O   UNL     1     -11.294  10.905  68.024  1.00  0.00    -0.291 OA 
BRANCH   3   6
HETATM    6  C   UNL     1      -8.715  10.632  68.321  1.00  0.00    -0.135 C  
BRANCH   6   7
HETATM    7  C   UNL     1      -9.032   9.837  69.576  1.00  0.00    -0.204 C  
BRANCH   7   8
HETATM    8  N   UNL     1      -8.744   8.419  69.425  1.00  0.00    -0.136 NA 
HETATM    9  C   UNL     1      -7.518   7.893  69.039  1.00  0.00    -0.097 A  
HETATM   10  N   UNL     1      -7.592   6.583  68.904  1.00  0.00    -0.098 NA 
HETATM   11  C   UNL     1      -6.280   8.685  68.800  1.00  0.00    -0.045 C  
HETATM   12  C   UNL     1      -8.874   6.234  69.225  1.00  0.00    -0.123 A  
HETATM   13  C   UNL     1      -9.594   7.347  69.574  1.00  0.00    -0.155 A  
HETATM   14  N   UNL     1     -10.940   7.390  70.031  1.00  0.00    -0.259 N  
HETATM   15  O   UNL     1     -11.372   8.471  70.444  1.00  0.00    -0.256 OA 
HETATM   16  O   UNL     1     -11.564   6.324  70.015  1.00  0.00    -0.425 OA 
ENDBRANCH   7   8
ENDBRANCH   6   7
ENDBRANCH   3   6
ENDBRANCH   2   3
TORSDOF 4
ENDMDL
MODEL      226
REMARK 921   NORMALIZED FREE ENERGY PREDICTED BY IDOCK:   -2.30 KCAL/MOL
REMARK 922        TOTAL FREE ENERGY PREDICTED BY IDOCK:   -3.25 KCAL/MOL
REMARK 923 INTER-LIGAND FREE ENERGY PREDICTED BY IDOCK:   -2.93 KCAL/MOL
REMARK 924 INTRA-LIGAND FREE ENERGY PREDICTED BY IDOCK:   -0.31 KCAL/MOL
REMARK 927      BINDING AFFINITY PREDICTED BY RF-SCORE:    0.00 PKD
ROOT
HETATM    1  C   UNL     1     -11.940  11.302  69.101  1.00  0.00    -0.405 C  
HETATM    2  C   UNL     1     -10.845  10.355  69.554  1.00  0.00    -0.255 C  
ENDROOT
BRANCH   2   3
HETATM    3  S   UNL     1      -9.823   9.832  68.186  1.00  0.00    -0.153 S  
HETATM    4  O   UNL     1      -8.840  10.869  67.934  1.00  0.00    -0.130 OA 
HETATM    5  O   UNL     1     -10.686   9.349  67.126  1.00  0.00    -0.249 OA 
BRANCH   3   6
HETATM    6  C   UNL     1      -8.944   8.433  68.841  1.00  0.00    -0.146 C  
BRANCH   6   7
HETATM    7  C   UNL     1      -9.470   8.106  70.229  1.00  0.00    -0.170 C  
BRANCH   7   8
HETATM    8  N   UNL     1      -8.710   7.048  70.878  1.00  0.00    -0.143 NA 
HETATM    9  C   UNL     1      -7.594   7.247  71.679  1.00  0.00    -0.086 A  
HETATM   10  N   UNL     1      -7.071   6.094  72.048  1.00  0.00    -0.081 NA 
HETATM   11  C   UNL     1      -7.043   8.573  72.072  1.00  0.00    -0.104 C  
HETATM   12  C   UNL     1      -7.861   5.120  71.505  1.00  0.00    -0.111 A  
HETATM   13  C   UNL     1      -8.893   5.687  70.802  1.00  0.00    -0.139 A  
HETATM   14  N   UNL     1      -9.959   5.010  70.147  1.00  0.00    -0.238 N  
HETATM   15  O   UNL     1     -10.881   5.694  69.693  1.00  0.00    -0.337 OA 
HETATM   16  O   UNL     1      -9.898   3.776  70.122  1.00  0.00    -0.188 OA 
ENDBRANCH   7   8
ENDBRANCH   6   7
ENDBRANCH   3   6
ENDBRANCH   2   3
TORSDOF 4
ENDMDL
MODEL      227
REMARK 921   NORMALIZED FREE ENERGY PREDICTED BY IDOCK:   -2.29 KCAL/MOL
REMARK 922        TOTAL FREE ENERGY PREDICTED BY IDOCK:   -3.23 KCAL/MOL
REMARK 923 INTER-LIGAND FREE ENERGY PREDICTED BY IDOCK:   -2.86 KCAL/MOL
REMARK 924 INTRA-LIGAND FREE ENERGY PREDICTED BY IDOCK:   -0.37 KCAL/MOL
REMARK 927      BINDING AFFINITY PREDICTED BY RF-SCORE:    0.00 PKD
ROOT
HETATM    1  C   UNL     1      -9.164   8.768  71.710  1.00  0.00    -0.332 C  
HETATM    2  C   UNL     1     -10.087   7.576  71.874  1.00  0.00    -0.172 C  
ENDROOT
BRANCH   2   3
HETATM    3  S   UNL     1     -11.250   7.457  70.524  1.00  0.00    -0.265 S  
HETATM    4  O   UNL     1     -11.481   8.792  70.007  1.00  0.00    -0.116 OA 
HETATM    5  O   UNL     1     -12.356   6.618  70.943  1.00  0.00    -0.353 OA 
BRANCH   3   6
HETATM    6  C   UNL     1     -10.345   6.567  69.280  1.00  0.00    -0.202 C  
BRANCH   6   7
HETATM    7  C   UNL     1     -10.576   7.211  67.923  1.00  0.00    -0.208 C  
BRANCH   7   8
HETATM    8  N   UNL     1      -9.470   6.989  67.005  1.00  0.00    -0.143 NA 
HETATM    9  C   UNL     1      -9.372   5.925  66.119  1.00  0.00    -0.132 A  
HETATM   10  N   UNL     1      -8.216   5.946  65.486  1.00  0.00    -0.131 NA 
HETATM   11  C   UNL     1     -10.418   4.888  65.903  1.00  0.00    -0.282 C  
HETATM   12  C   UNL     1      -7.547   7.048  65.941  1.00  0.00    -0.097 A  
HETATM   13  C   UNL     1      -8.313   7.720  66.858  1.00  0.00    -0.124 A  
HETATM   14  N   UNL     1      -7.996   8.944  67.510  1.00  0.00    -0.101 N  
HETATM   15  O   UNL     1      -8.877   9.477  68.192  1.00  0.00    -0.124 OA 
HETATM   16  O   UNL     1      -6.867   9.403  67.306  1.00  0.00    -0.081 OA 
ENDBRANCH   7   8
ENDBRANCH   6   7
ENDBRANCH   3   6
ENDBRANCH   2   3
TORSDOF 4
ENDMDL
MODEL      228
REMARK 921   NORMALIZED FREE ENERGY PREDICTED BY IDOCK:   -2.27 KCAL/MOL
REMARK 922        TOTAL FREE ENERGY PREDICTED BY IDOCK:   -3.22 KCAL/MOL
REMARK 923 INTER-LIGAND FREE ENERGY PREDICTED BY IDOCK:   -3.52 KCAL/MOL
REMARK 924 INTRA-LIGAND FREE ENERGY PREDICTED BY IDOCK:    0.31 KCAL/MOL
REMARK 927      BINDING AFFINITY PREDICTED BY RF-SCORE:    0.00 PKD
ROOT
HETATM    1  C   UNL     1      -5.531  20.488  71.309  1.00  0.00    -0.234 C  
HETATM    2  C   UNL     1      -5.194  20.058  69.894  1.00  0.00    -0.211 C  
ENDROOT
BRANCH   2   3
HETATM    3  S   UNL     1      -6.668  19.738  68.937  1.00  0.00    -0.330 S  
HETATM    4  O   UNL     1      -6.798  20.786  67.944  1.00  0.00    -0.309 OA 
HETATM    5  O   UNL     1      -7.752  19.438  69.851  1.00  0.00     0.157 OA 
BRANCH   3   6
HETATM    6  C   UNL     1      -6.273  18.240  68.065  1.00  0.00    -0.181 C  
BRANCH   6   7
HETATM    7  C   UNL     1      -7.431  17.860  67.156  1.00  0.00    -0.195 C  
BRANCH   7   8
HETATM    8  N   UNL     1      -8.627  17.496  67.899  1.00  0.00    -0.233 NA 
HETATM    9  C   UNL     1      -8.708  16.455  68.814  1.00  0.00    -0.246 A  
HETATM   10  N   UNL     1      -9.943  16.315  69.256  1.00  0.00    -0.257 NA 
HETATM   11  C   UNL     1      -7.569  15.599  69.247  1.00  0.00    -0.222 C  
HETATM   12  C   UNL     1     -10.684  17.286  68.644  1.00  0.00    -0.280 A  
HETATM   13  C   UNL     1      -9.887  18.042  67.823  1.00  0.00    -0.305 A  
HETATM   14  N   UNL     1     -10.272  19.183  67.066  1.00  0.00    -0.364 N  
HETATM   15  O   UNL     1      -9.380  19.826  66.503  1.00  0.00    -0.351 OA 
HETATM   16  O   UNL     1     -11.475  19.466  67.065  1.00  0.00     0.037 OA 
ENDBRANCH   7   8
ENDBRANCH   6   7
ENDBRANCH   3   6
ENDBRANCH   2   3
TORSDOF 4
ENDMDL
MODEL      229
REMARK 921   NORMALIZED FREE ENERGY PREDICTED BY IDOCK:   -2.27 KCAL/MOL
REMARK 922        TOTAL FREE ENERGY PREDICTED BY IDOCK:   -3.22 KCAL/MOL
REMARK 923 INTER-LIGAND FREE ENERGY PREDICTED BY IDOCK:   -2.99 KCAL/MOL
REMARK 924 INTRA-LIGAND FREE ENERGY PREDICTED BY IDOCK:   -0.23 KCAL/MOL
REMARK 927      BINDING AFFINITY PREDICTED BY RF-SCORE:    0.00 PKD
ROOT
HETATM    1  C   UNL     1      -6.678   3.471  72.465  1.00  0.00    -0.029 C  
HETATM    2  C   UNL     1      -8.074   3.531  71.874  1.00  0.00    -0.063 C  
ENDROOT
BRANCH   2   3
HETATM    3  S   UNL     1      -8.062   4.238  70.234  1.00  0.00    -0.058 S  
HETATM    4  O   UNL     1      -9.064   3.554  69.440  1.00  0.00    -0.105 OA 
HETATM    5  O   UNL     1      -6.688   4.330  69.784  1.00  0.00    -0.033 OA 
BRANCH   3   6
HETATM    6  C   UNL     1      -8.651   5.895  70.497  1.00  0.00    -0.136 C  
BRANCH   6   7
HETATM    7  C   UNL     1     -10.155   5.941  70.286  1.00  0.00    -0.202 C  
BRANCH   7   8
HETATM    8  N   UNL     1     -10.800   6.967  71.091  1.00  0.00    -0.236 NA 
HETATM    9  C   UNL     1     -11.309   6.773  72.369  1.00  0.00    -0.268 A  
HETATM   10  N   UNL     1     -11.911   7.863  72.803  1.00  0.00    -0.304 NA 
HETATM   11  C   UNL     1     -11.204   5.512  73.154  1.00  0.00    -0.321 C  
HETATM   12  C   UNL     1     -11.782   8.796  71.813  1.00  0.00    -0.346 A  
HETATM   13  C   UNL     1     -11.077   8.273  70.760  1.00  0.00    -0.258 A  
HETATM   14  N   UNL     1     -10.681   8.948  69.572  1.00  0.00    -0.224 N  
HETATM   15  O   UNL     1      -9.919   8.355  68.801  1.00  0.00    -0.176 OA 
HETATM   16  O   UNL     1     -11.102  10.100  69.424  1.00  0.00    -0.232 OA 
ENDBRANCH   7   8
ENDBRANCH   6   7
ENDBRANCH   3   6
ENDBRANCH   2   3
TORSDOF 4
ENDMDL
MODEL      230
REMARK 921   NORMALIZED FREE ENERGY PREDICTED BY IDOCK:   -2.26 KCAL/MOL
REMARK 922        TOTAL FREE ENERGY PREDICTED BY IDOCK:   -3.21 KCAL/MOL
REMARK 923 INTER-LIGAND FREE ENERGY PREDICTED BY IDOCK:   -3.26 KCAL/MOL
REMARK 924 INTRA-LIGAND FREE ENERGY PREDICTED BY IDOCK:    0.05 KCAL/MOL
REMARK 927      BINDING AFFINITY PREDICTED BY RF-SCORE:    0.00 PKD
ROOT
HETATM    1  C   UNL     1      -8.964   7.692  66.066  1.00  0.00    -0.178 C  
HETATM    2  C   UNL     1      -7.637   8.383  65.814  1.00  0.00    -0.085 C  
ENDROOT
BRANCH   2   3
HETATM    3  S   UNL     1      -7.858  10.119  65.457  1.00  0.00    -0.151 S  
HETATM    4  O   UNL     1      -8.241  10.249  64.065  1.00  0.00    -0.159 OA 
HETATM    5  O   UNL     1      -6.721  10.844  65.989  1.00  0.00    -0.125 OA 
BRANCH   3   6
HETATM    6  C   UNL     1      -9.278  10.560  66.431  1.00  0.00    -0.166 C  
BRANCH   6   7
HETATM    7  C   UNL     1      -8.832  11.325  67.666  1.00  0.00    -0.138 C  
BRANCH   7   8
HETATM    8  N   UNL     1      -9.820  12.298  68.106  1.00  0.00    -0.207 NA 
HETATM    9  C   UNL     1      -9.713  13.672  67.938  1.00  0.00    -0.234 A  
HETATM   10  N   UNL     1     -10.720  14.295  68.520  1.00  0.00    -0.248 NA 
HETATM   11  C   UNL     1      -8.618  14.366  67.207  1.00  0.00    -0.230 C  
HETATM   12  C   UNL     1     -11.513  13.323  69.062  1.00  0.00    -0.302 A  
HETATM   13  C   UNL     1     -10.991  12.083  68.796  1.00  0.00    -0.239 A  
HETATM   14  N   UNL     1     -11.556  10.822  69.134  1.00  0.00    -0.297 N  
HETATM   15  O   UNL     1     -11.016   9.810  68.677  1.00  0.00    -0.213 OA 
HETATM   16  O   UNL     1     -12.576  10.843  69.832  1.00  0.00    -0.289 OA 
ENDBRANCH   7   8
ENDBRANCH   6   7
ENDBRANCH   3   6
ENDBRANCH   2   3
TORSDOF 4
ENDMDL
MODEL      231
REMARK 921   NORMALIZED FREE ENERGY PREDICTED BY IDOCK:   -2.25 KCAL/MOL
REMARK 922        TOTAL FREE ENERGY PREDICTED BY IDOCK:   -3.19 KCAL/MOL
REMARK 923 INTER-LIGAND FREE ENERGY PREDICTED BY IDOCK:   -3.10 KCAL/MOL
REMARK 924 INTRA-LIGAND FREE ENERGY PREDICTED BY IDOCK:   -0.09 KCAL/MOL
REMARK 927      BINDING AFFINITY PREDICTED BY RF-SCORE:    0.00 PKD
ROOT
HETATM    1  C   UNL     1     -11.171   5.190  72.579  1.00  0.00    -0.229 C  
HETATM    2  C   UNL     1     -11.049   6.698  72.684  1.00  0.00    -0.257 C  
ENDROOT
BRANCH   2   3
HETATM    3  S   UNL     1     -12.308   7.526  71.725  1.00  0.00    -0.332 S  
HETATM    4  O   UNL     1     -12.714   8.718  72.444  1.00  0.00    -0.386 OA 
HETATM    5  O   UNL     1     -13.284   6.541  71.302  1.00  0.00     0.003 OA 
BRANCH   3   6
HETATM    6  C   UNL     1     -11.431   8.067  70.276  1.00  0.00    -0.073 C  
BRANCH   6   7
HETATM    7  C   UNL     1     -10.104   7.333  70.180  1.00  0.00    -0.189 C  
BRANCH   7   8
HETATM    8  N   UNL     1      -9.137   8.035  69.351  1.00  0.00    -0.148 NA 
HETATM    9  C   UNL     1      -9.136   8.042  67.962  1.00  0.00    -0.129 A  
HETATM   10  N   UNL     1      -8.086   8.690  67.498  1.00  0.00    -0.106 NA 
HETATM   11  C   UNL     1     -10.169   7.406  67.099  1.00  0.00    -0.347 C  
HETATM   12  C   UNL     1      -7.394   9.136  68.589  1.00  0.00    -0.076 A  
HETATM   13  C   UNL     1      -8.039   8.766  69.741  1.00  0.00    -0.111 A  
HETATM   14  N   UNL     1      -7.669   9.094  71.075  1.00  0.00    -0.124 N  
HETATM   15  O   UNL     1      -8.458   8.799  71.978  1.00  0.00    -0.322 OA 
HETATM   16  O   UNL     1      -6.597   9.691  71.221  1.00  0.00    -0.273 OA 
ENDBRANCH   7   8
ENDBRANCH   6   7
ENDBRANCH   3   6
ENDBRANCH   2   3
TORSDOF 4
ENDMDL
MODEL      232
REMARK 921   NORMALIZED FREE ENERGY PREDICTED BY IDOCK:   -2.23 KCAL/MOL
REMARK 922        TOTAL FREE ENERGY PREDICTED BY IDOCK:   -3.17 KCAL/MOL
REMARK 923 INTER-LIGAND FREE ENERGY PREDICTED BY IDOCK:   -3.44 KCAL/MOL
REMARK 924 INTRA-LIGAND FREE ENERGY PREDICTED BY IDOCK:    0.27 KCAL/MOL
REMARK 927      BINDING AFFINITY PREDICTED BY RF-SCORE:    0.00 PKD
ROOT
HETATM    1  C   UNL     1     -10.667   5.859  70.135  1.00  0.00    -0.389 C  
HETATM    2  C   UNL     1     -10.632   7.318  69.724  1.00  0.00    -0.235 C  
ENDROOT
BRANCH   2   3
HETATM    3  S   UNL     1     -10.071   7.511  68.039  1.00  0.00    -0.191 S  
HETATM    4  O   UNL     1     -10.665   6.457  67.241  1.00  0.00    -0.262 OA 
HETATM    5  O   UNL     1      -8.636   7.717  68.054  1.00  0.00    -0.123 OA 
BRANCH   3   6
HETATM    6  C   UNL     1     -10.825   9.038  67.528  1.00  0.00    -0.060 C  
BRANCH   6   7
HETATM    7  C   UNL     1     -10.661  10.079  68.622  1.00  0.00    -0.212 C  
BRANCH   7   8
HETATM    8  N   UNL     1     -10.546  11.430  68.094  1.00  0.00    -0.180 NA 
HETATM    9  C   UNL     1      -9.718  11.805  67.045  1.00  0.00    -0.185 A  
HETATM   10  N   UNL     1      -9.766  13.110  66.855  1.00  0.00    -0.237 NA 
HETATM   11  C   UNL     1      -8.879  10.878  66.237  1.00  0.00    -0.187 C  
HETATM   12  C   UNL     1     -10.651  13.602  67.773  1.00  0.00    -0.242 A  
HETATM   13  C   UNL     1     -11.163  12.579  68.529  1.00  0.00    -0.283 A  
HETATM   14  N   UNL     1     -12.157  12.676  69.542  1.00  0.00    -0.240 N  
HETATM   15  O   UNL     1     -12.604  11.624  70.011  1.00  0.00    -0.118 OA 
HETATM   16  O   UNL     1     -12.528  13.815  69.847  1.00  0.00    -0.299 OA 
ENDBRANCH   7   8
ENDBRANCH   6   7
ENDBRANCH   3   6
ENDBRANCH   2   3
TORSDOF 4
ENDMDL
MODEL      233
REMARK 921   NORMALIZED FREE ENERGY PREDICTED BY IDOCK:   -2.23 KCAL/MOL
REMARK 922        TOTAL FREE ENERGY PREDICTED BY IDOCK:   -3.16 KCAL/MOL
REMARK 923 INTER-LIGAND FREE ENERGY PREDICTED BY IDOCK:   -2.93 KCAL/MOL
REMARK 924 INTRA-LIGAND FREE ENERGY PREDICTED BY IDOCK:   -0.24 KCAL/MOL
REMARK 927      BINDING AFFINITY PREDICTED BY RF-SCORE:    0.00 PKD
ROOT
HETATM    1  C   UNL     1      -8.542  11.199  68.560  1.00  0.00    -0.157 C  
HETATM    2  C   UNL     1      -8.634   9.849  67.875  1.00  0.00    -0.125 C  
ENDROOT
BRANCH   2   3
HETATM    3  S   UNL     1     -10.329   9.397  67.541  1.00  0.00    -0.270 S  
HETATM    4  O   UNL     1     -10.349   8.561  66.356  1.00  0.00    -0.246 OA 
HETATM    5  O   UNL     1     -11.148  10.590  67.625  1.00  0.00    -0.300 OA 
BRANCH   3   6
HETATM    6  C   UNL     1     -10.756   8.357  68.918  1.00  0.00    -0.068 C  
BRANCH   6   7
HETATM    7  C   UNL     1      -9.600   8.317  69.903  1.00  0.00    -0.171 C  
BRANCH   7   8
HETATM    8  N   UNL     1      -9.364   6.983  70.433  1.00  0.00    -0.159 NA 
HETATM    9  C   UNL     1      -8.636   5.989  69.791  1.00  0.00    -0.130 A  
HETATM   10  N   UNL     1      -8.675   4.863  70.476  1.00  0.00    -0.106 NA 
HETATM   11  C   UNL     1      -7.910   6.153  68.501  1.00  0.00    -0.104 C  
HETATM   12  C   UNL     1      -9.417   5.118  71.595  1.00  0.00    -0.150 A  
HETATM   13  C   UNL     1      -9.829   6.426  71.601  1.00  0.00    -0.167 A  
HETATM   14  N   UNL     1     -10.565   7.089  72.622  1.00  0.00    -0.229 N  
HETATM   15  O   UNL     1     -10.715   8.311  72.520  1.00  0.00    -0.322 OA 
HETATM   16  O   UNL     1     -10.965   6.390  73.559  1.00  0.00    -0.222 OA 
ENDBRANCH   7   8
ENDBRANCH   6   7
ENDBRANCH   3   6
ENDBRANCH   2   3
TORSDOF 4
ENDMDL
MODEL      234
REMARK 921   NORMALIZED FREE ENERGY PREDICTED BY IDOCK:   -2.23 KCAL/MOL
REMARK 922        TOTAL FREE ENERGY PREDICTED BY IDOCK:   -3.16 KCAL/MOL
REMARK 923 INTER-LIGAND FREE ENERGY PREDICTED BY IDOCK:   -2.93 KCAL/MOL
REMARK 924 INTRA-LIGAND FREE ENERGY PREDICTED BY IDOCK:   -0.23 KCAL/MOL
REMARK 927      BINDING AFFINITY PREDICTED BY RF-SCORE:    0.00 PKD
ROOT
HETATM    1  C   UNL     1      -8.293  10.197  63.611  1.00  0.00    -0.170 C  
HETATM    2  C   UNL     1      -8.172  10.627  65.060  1.00  0.00    -0.074 C  
ENDROOT
BRANCH   2   3
HETATM    3  S   UNL     1      -9.600  10.133  66.013  1.00  0.00    -0.226 S  
HETATM    4  O   UNL     1      -9.835   8.723  65.775  1.00  0.00    -0.180 OA 
HETATM    5  O   UNL     1     -10.650  11.111  65.806  1.00  0.00    -0.259 OA 
BRANCH   3   6
HETATM    6  C   UNL     1      -9.046  10.291  67.695  1.00  0.00    -0.137 C  
BRANCH   6   7
HETATM    7  C   UNL     1      -8.432   8.979  68.154  1.00  0.00    -0.129 C  
BRANCH   7   8
HETATM    8  N   UNL     1      -8.512   8.801  69.596  1.00  0.00    -0.125 NA 
HETATM    9  C   UNL     1      -7.675   9.412  70.520  1.00  0.00    -0.161 A  
HETATM   10  N   UNL     1      -7.936   8.986  71.741  1.00  0.00    -0.349 NA 
HETATM   11  C   UNL     1      -6.619  10.410  70.197  1.00  0.00    -0.146 C  
HETATM   12  C   UNL     1      -8.970   8.099  71.628  1.00  0.00    -0.163 A  
HETATM   13  C   UNL     1      -9.358   7.991  70.317  1.00  0.00    -0.159 A  
HETATM   14  N   UNL     1     -10.437   7.220  69.802  1.00  0.00    -0.221 N  
HETATM   15  O   UNL     1     -10.730   7.366  68.611  1.00  0.00    -0.183 OA 
HETATM   16  O   UNL     1     -11.028   6.490  70.605  1.00  0.00    -0.250 OA 
ENDBRANCH   7   8
ENDBRANCH   6   7
ENDBRANCH   3   6
ENDBRANCH   2   3
TORSDOF 4
ENDMDL
MODEL      235
REMARK 921   NORMALIZED FREE ENERGY PREDICTED BY IDOCK:   -2.22 KCAL/MOL
REMARK 922        TOTAL FREE ENERGY PREDICTED BY IDOCK:   -3.16 KCAL/MOL
REMARK 923 INTER-LIGAND FREE ENERGY PREDICTED BY IDOCK:   -2.88 KCAL/MOL
REMARK 924 INTRA-LIGAND FREE ENERGY PREDICTED BY IDOCK:   -0.28 KCAL/MOL
REMARK 927      BINDING AFFINITY PREDICTED BY RF-SCORE:    0.00 PKD
ROOT
HETATM    1  C   UNL     1      -5.920   7.358  64.605  1.00  0.00    -0.038 C  
HETATM    2  C   UNL     1      -6.709   7.098  65.874  1.00  0.00    -0.053 C  
ENDROOT
BRANCH   2   3
HETATM    3  S   UNL     1      -8.189   6.153  65.544  1.00  0.00    -0.147 S  
HETATM    4  O   UNL     1      -8.161   4.965  66.374  1.00  0.00    -0.106 OA 
HETATM    5  O   UNL     1      -8.361   6.057  64.108  1.00  0.00    -0.096 OA 
BRANCH   3   6
HETATM    6  C   UNL     1      -9.488   7.193  66.170  1.00  0.00     0.002 C  
BRANCH   6   7
HETATM    7  C   UNL     1      -8.886   8.445  66.786  1.00  0.00    -0.138 C  
BRANCH   7   8
HETATM    8  N   UNL     1      -9.842   9.538  66.875  1.00  0.00    -0.190 NA 
HETATM    9  C   UNL     1     -10.121  10.435  65.853  1.00  0.00    -0.261 A  
HETATM   10  N   UNL     1     -10.962  11.365  66.262  1.00  0.00    -0.275 NA 
HETATM   11  C   UNL     1      -9.555  10.375  64.477  1.00  0.00    -0.369 C  
HETATM   12  C   UNL     1     -11.260  11.070  67.563  1.00  0.00    -0.302 A  
HETATM   13  C   UNL     1     -10.601   9.932  67.952  1.00  0.00    -0.254 A  
HETATM   14  N   UNL     1     -10.700   9.269  69.207  1.00  0.00    -0.219 N  
HETATM   15  O   UNL     1     -10.145   8.171  69.322  1.00  0.00    -0.191 OA 
HETATM   16  O   UNL     1     -11.373   9.831  70.078  1.00  0.00    -0.242 OA 
ENDBRANCH   7   8
ENDBRANCH   6   7
ENDBRANCH   3   6
ENDBRANCH   2   3
TORSDOF 4
ENDMDL
MODEL      236
REMARK 921   NORMALIZED FREE ENERGY PREDICTED BY IDOCK:   -2.20 KCAL/MOL
REMARK 922        TOTAL FREE ENERGY PREDICTED BY IDOCK:   -3.13 KCAL/MOL
REMARK 923 INTER-LIGAND FREE ENERGY PREDICTED BY IDOCK:   -3.28 KCAL/MOL
REMARK 924 INTRA-LIGAND FREE ENERGY PREDICTED BY IDOCK:    0.15 KCAL/MOL
REMARK 927      BINDING AFFINITY PREDICTED BY RF-SCORE:    0.00 PKD
ROOT
HETATM    1  C   UNL     1      -8.914  12.289  67.340  1.00  0.00    -0.183 C  
HETATM    2  C   UNL     1      -9.864  12.154  68.515  1.00  0.00    -0.162 C  
ENDROOT
BRANCH   2   3
HETATM    3  S   UNL     1     -10.937  10.738  68.332  1.00  0.00    -0.271 S  
HETATM    4  O   UNL     1     -10.345   9.846  67.355  1.00  0.00    -0.213 OA 
HETATM    5  O   UNL     1     -12.299  11.212  68.181  1.00  0.00    -0.469 OA 
BRANCH   3   6
HETATM    6  C   UNL     1     -10.824   9.930  69.911  1.00  0.00    -0.278 C  
BRANCH   6   7
HETATM    7  C   UNL     1      -9.399   9.451  70.137  1.00  0.00    -0.241 C  
BRANCH   7   8
HETATM    8  N   UNL     1      -9.335   8.045  70.505  1.00  0.00    -0.154 NA 
HETATM    9  C   UNL     1      -9.908   7.495  71.645  1.00  0.00    -0.161 A  
HETATM   10  N   UNL     1      -9.604   6.216  71.751  1.00  0.00    -0.151 NA 
HETATM   11  C   UNL     1     -10.748   8.234  72.627  1.00  0.00    -0.384 C  
HETATM   12  C   UNL     1      -8.839   5.910  70.660  1.00  0.00    -0.141 A  
HETATM   13  C   UNL     1      -8.684   7.016  69.866  1.00  0.00    -0.142 A  
HETATM   14  N   UNL     1      -8.011   7.087  68.614  1.00  0.00    -0.118 N  
HETATM   15  O   UNL     1      -8.105   8.137  67.971  1.00  0.00    -0.124 OA 
HETATM   16  O   UNL     1      -7.415   6.068  68.249  1.00  0.00    -0.083 OA 
ENDBRANCH   7   8
ENDBRANCH   6   7
ENDBRANCH   3   6
ENDBRANCH   2   3
TORSDOF 4
ENDMDL
MODEL      237
REMARK 921   NORMALIZED FREE ENERGY PREDICTED BY IDOCK:   -2.20 KCAL/MOL
REMARK 922        TOTAL FREE ENERGY PREDICTED BY IDOCK:   -3.13 KCAL/MOL
REMARK 923 INTER-LIGAND FREE ENERGY PREDICTED BY IDOCK:   -3.03 KCAL/MOL
REMARK 924 INTRA-LIGAND FREE ENERGY PREDICTED BY IDOCK:   -0.10 KCAL/MOL
REMARK 927      BINDING AFFINITY PREDICTED BY RF-SCORE:    0.00 PKD
ROOT
HETATM    1  C   UNL     1      -9.798   6.560  66.288  1.00  0.00    -0.032 C  
HETATM    2  C   UNL     1     -10.838   6.771  67.372  1.00  0.00    -0.347 C  
ENDROOT
BRANCH   2   3
HETATM    3  S   UNL     1     -10.091   6.842  68.993  1.00  0.00    -0.176 S  
HETATM    4  O   UNL     1      -9.827   8.232  69.308  1.00  0.00    -0.178 OA 
HETATM    5  O   UNL     1      -9.037   5.849  69.056  1.00  0.00    -0.121 OA 
BRANCH   3   6
HETATM    6  C   UNL     1     -11.399   6.304  70.070  1.00  0.00    -0.416 C  
BRANCH   6   7
HETATM    7  C   UNL     1     -10.805   5.597  71.277  1.00  0.00    -0.219 C  
BRANCH   7   8
HETATM    8  N   UNL     1     -10.073   6.502  72.150  1.00  0.00    -0.180 NA 
HETATM    9  C   UNL     1     -10.577   7.687  72.669  1.00  0.00    -0.299 A  
HETATM   10  N   UNL     1      -9.649   8.333  73.349  1.00  0.00    -0.124 NA 
HETATM   11  C   UNL     1     -11.970   8.181  72.489  1.00  0.00    -0.410 C  
HETATM   12  C   UNL     1      -8.524   7.558  73.298  1.00  0.00    -0.137 A  
HETATM   13  C   UNL     1      -8.772   6.412  72.586  1.00  0.00    -0.126 A  
HETATM   14  N   UNL     1      -7.877   5.329  72.365  1.00  0.00    -0.101 N  
HETATM   15  O   UNL     1      -8.327   4.313  71.826  1.00  0.00    -0.096 OA 
HETATM   16  O   UNL     1      -6.718   5.477  72.770  1.00  0.00    -0.068 OA 
ENDBRANCH   7   8
ENDBRANCH   6   7
ENDBRANCH   3   6
ENDBRANCH   2   3
TORSDOF 4
ENDMDL
MODEL      238
REMARK 921   NORMALIZED FREE ENERGY PREDICTED BY IDOCK:   -2.18 KCAL/MOL
REMARK 922        TOTAL FREE ENERGY PREDICTED BY IDOCK:   -3.11 KCAL/MOL
REMARK 923 INTER-LIGAND FREE ENERGY PREDICTED BY IDOCK:   -2.99 KCAL/MOL
REMARK 924 INTRA-LIGAND FREE ENERGY PREDICTED BY IDOCK:   -0.12 KCAL/MOL
REMARK 927      BINDING AFFINITY PREDICTED BY RF-SCORE:    0.00 PKD
ROOT
HETATM    1  C   UNL     1     -10.866   4.864  72.909  1.00  0.00    -0.313 C  
HETATM    2  C   UNL     1     -10.980   6.367  73.078  1.00  0.00    -0.238 C  
ENDROOT
BRANCH   2   3
HETATM    3  S   UNL     1     -12.003   7.094  71.807  1.00  0.00    -0.329 S  
HETATM    4  O   UNL     1     -12.001   8.532  71.994  1.00  0.00    -0.313 OA 
HETATM    5  O   UNL     1     -13.246   6.352  71.738  1.00  0.00    -0.080 OA 
BRANCH   3   6
HETATM    6  C   UNL     1     -11.099   6.764  70.313  1.00  0.00    -0.310 C  
BRANCH   6   7
HETATM    7  C   UNL     1     -10.410   8.034  69.842  1.00  0.00    -0.221 C  
BRANCH   7   8
HETATM    8  N   UNL     1      -9.032   7.804  69.438  1.00  0.00    -0.142 NA 
HETATM    9  C   UNL     1      -7.978   7.559  70.309  1.00  0.00    -0.103 A  
HETATM   10  N   UNL     1      -6.837   7.481  69.653  1.00  0.00    -0.044 NA 
HETATM   11  C   UNL     1      -8.100   7.408  71.785  1.00  0.00    -0.105 C  
HETATM   12  C   UNL     1      -7.138   7.655  68.331  1.00  0.00    -0.081 A  
HETATM   13  C   UNL     1      -8.489   7.829  68.174  1.00  0.00    -0.124 A  
HETATM   14  N   UNL     1      -9.200   7.976  66.951  1.00  0.00    -0.145 N  
HETATM   15  O   UNL     1     -10.434   7.970  66.999  1.00  0.00    -0.316 OA 
HETATM   16  O   UNL     1      -8.519   8.057  65.922  1.00  0.00    -0.128 OA 
ENDBRANCH   7   8
ENDBRANCH   6   7
ENDBRANCH   3   6
ENDBRANCH   2   3
TORSDOF 4
ENDMDL
MODEL      239
REMARK 921   NORMALIZED FREE ENERGY PREDICTED BY IDOCK:   -2.18 KCAL/MOL
REMARK 922        TOTAL FREE ENERGY PREDICTED BY IDOCK:   -3.10 KCAL/MOL
REMARK 923 INTER-LIGAND FREE ENERGY PREDICTED BY IDOCK:   -2.79 KCAL/MOL
REMARK 924 INTRA-LIGAND FREE ENERGY PREDICTED BY IDOCK:   -0.31 KCAL/MOL
REMARK 927      BINDING AFFINITY PREDICTED BY RF-SCORE:    0.00 PKD
ROOT
HETATM    1  C   UNL     1     -10.754   7.266  73.424  1.00  0.00    -0.415 C  
HETATM    2  C   UNL     1     -11.634   7.421  72.198  1.00  0.00    -0.293 C  
ENDROOT
BRANCH   2   3
HETATM    3  S   UNL     1     -10.675   7.846  70.752  1.00  0.00    -0.226 S  
HETATM    4  O   UNL     1      -9.275   7.867  71.128  1.00  0.00    -0.144 OA 
HETATM    5  O   UNL     1     -11.293   8.990  70.112  1.00  0.00    -0.222 OA 
BRANCH   3   6
HETATM    6  C   UNL     1     -10.905   6.445  69.681  1.00  0.00    -0.320 C  
BRANCH   6   7
HETATM    7  C   UNL     1      -9.596   6.119  68.982  1.00  0.00    -0.127 C  
BRANCH   7   8
HETATM    8  N   UNL     1      -9.505   4.719  68.594  1.00  0.00    -0.140 NA 
HETATM    9  C   UNL     1      -9.867   4.214  67.352  1.00  0.00    -0.101 A  
HETATM   10  N   UNL     1      -9.758   2.899  67.332  1.00  0.00     0.062 NA 
HETATM   11  C   UNL     1     -10.325   5.027  66.193  1.00  0.00    -0.309 C  
HETATM   12  C   UNL     1      -9.298   2.531  68.565  1.00  0.00    -0.193 A  
HETATM   13  C   UNL     1      -9.110   3.640  69.350  1.00  0.00    -0.135 A  
HETATM   14  N   UNL     1      -8.584   3.678  70.671  1.00  0.00    -0.069 N  
HETATM   15  O   UNL     1      -8.346   4.786  71.163  1.00  0.00    -0.100 OA 
HETATM   16  O   UNL     1      -8.365   2.588  71.211  1.00  0.00    -0.056 OA 
ENDBRANCH   7   8
ENDBRANCH   6   7
ENDBRANCH   3   6
ENDBRANCH   2   3
TORSDOF 4
ENDMDL
MODEL      240
REMARK 921   NORMALIZED FREE ENERGY PREDICTED BY IDOCK:   -2.17 KCAL/MOL
REMARK 922        TOTAL FREE ENERGY PREDICTED BY IDOCK:   -3.09 KCAL/MOL
REMARK 923 INTER-LIGAND FREE ENERGY PREDICTED BY IDOCK:   -2.91 KCAL/MOL
REMARK 924 INTRA-LIGAND FREE ENERGY PREDICTED BY IDOCK:   -0.17 KCAL/MOL
REMARK 927      BINDING AFFINITY PREDICTED BY RF-SCORE:    0.00 PKD
ROOT
HETATM    1  C   UNL     1     -10.761   5.931  73.426  1.00  0.00    -0.293 C  
HETATM    2  C   UNL     1     -10.541   7.136  72.532  1.00  0.00    -0.240 C  
ENDROOT
BRANCH   2   3
HETATM    3  S   UNL     1     -11.844   7.304  71.323  1.00  0.00    -0.323 S  
HETATM    4  O   UNL     1     -11.989   8.711  71.006  1.00  0.00    -0.290 OA 
HETATM    5  O   UNL     1     -12.980   6.517  71.761  1.00  0.00    -0.262 OA 
BRANCH   3   6
HETATM    6  C   UNL     1     -11.170   6.513  69.881  1.00  0.00    -0.395 C  
BRANCH   6   7
HETATM    7  C   UNL     1      -9.832   5.879  70.226  1.00  0.00    -0.185 C  
BRANCH   7   8
HETATM    8  N   UNL     1      -8.794   6.211  69.262  1.00  0.00    -0.124 NA 
HETATM    9  C   UNL     1      -7.922   7.287  69.371  1.00  0.00    -0.125 A  
HETATM   10  N   UNL     1      -7.156   7.379  68.302  1.00  0.00    -0.082 NA 
HETATM   11  C   UNL     1      -7.851   8.222  70.528  1.00  0.00    -0.087 C  
HETATM   12  C   UNL     1      -7.508   6.342  67.484  1.00  0.00    -0.088 A  
HETATM   13  C   UNL     1      -8.498   5.594  68.069  1.00  0.00    -0.102 A  
HETATM   14  N   UNL     1      -9.084   4.401  67.564  1.00  0.00    -0.121 N  
HETATM   15  O   UNL     1      -9.856   3.783  68.304  1.00  0.00    -0.086 OA 
HETATM   16  O   UNL     1      -8.740   4.053  66.429  1.00  0.00    -0.112 OA 
ENDBRANCH   7   8
ENDBRANCH   6   7
ENDBRANCH   3   6
ENDBRANCH   2   3
TORSDOF 4
ENDMDL
MODEL      241
REMARK 921   NORMALIZED FREE ENERGY PREDICTED BY IDOCK:   -2.13 KCAL/MOL
REMARK 922        TOTAL FREE ENERGY PREDICTED BY IDOCK:   -3.04 KCAL/MOL
REMARK 923 INTER-LIGAND FREE ENERGY PREDICTED BY IDOCK:   -2.89 KCAL/MOL
REMARK 924 INTRA-LIGAND FREE ENERGY PREDICTED BY IDOCK:   -0.15 KCAL/MOL
REMARK 927      BINDING AFFINITY PREDICTED BY RF-SCORE:    0.00 PKD
ROOT
HETATM    1  C   UNL     1      -9.480  14.056  66.530  1.00  0.00    -0.295 C  
HETATM    2  C   UNL     1     -10.244  12.810  66.124  1.00  0.00    -0.275 C  
ENDROOT
BRANCH   2   3
HETATM    3  S   UNL     1     -11.157  12.123  67.497  1.00  0.00    -0.295 S  
HETATM    4  O   UNL     1     -11.524  10.762  67.160  1.00  0.00    -0.400 OA 
HETATM    5  O   UNL     1     -12.160  13.086  67.908  1.00  0.00    -0.321 OA 
BRANCH   3   6
HETATM    6  C   UNL     1      -9.943  12.029  68.791  1.00  0.00    -0.073 C  
BRANCH   6   7
HETATM    7  C   UNL     1      -9.259  10.672  68.750  1.00  0.00    -0.180 C  
BRANCH   7   8
HETATM    8  N   UNL     1      -8.156  10.633  67.802  1.00  0.00    -0.110 NA 
HETATM    9  C   UNL     1      -7.106  11.541  67.765  1.00  0.00    -0.079 A  
HETATM   10  N   UNL     1      -6.312  11.297  66.741  1.00  0.00    -0.126 NA 
HETATM   11  C   UNL     1      -6.893  12.649  68.737  1.00  0.00    -0.096 C  
HETATM   12  C   UNL     1      -6.828  10.203  66.104  1.00  0.00    -0.108 A  
HETATM   13  C   UNL     1      -7.949   9.762  66.758  1.00  0.00    -0.105 A  
HETATM   14  N   UNL     1      -8.731   8.616  66.443  1.00  0.00    -0.124 N  
HETATM   15  O   UNL     1      -9.619   8.290  67.238  1.00  0.00    -0.149 OA 
HETATM   16  O   UNL     1      -8.430   8.007  65.410  1.00  0.00    -0.149 OA 
ENDBRANCH   7   8
ENDBRANCH   6   7
ENDBRANCH   3   6
ENDBRANCH   2   3
TORSDOF 4
ENDMDL
MODEL      242
REMARK 921   NORMALIZED FREE ENERGY PREDICTED BY IDOCK:   -2.12 KCAL/MOL
REMARK 922        TOTAL FREE ENERGY PREDICTED BY IDOCK:   -3.03 KCAL/MOL
REMARK 923 INTER-LIGAND FREE ENERGY PREDICTED BY IDOCK:   -2.67 KCAL/MOL
REMARK 924 INTRA-LIGAND FREE ENERGY PREDICTED BY IDOCK:   -0.35 KCAL/MOL
REMARK 927      BINDING AFFINITY PREDICTED BY RF-SCORE:    0.00 PKD
ROOT
HETATM    1  C   UNL     1      -9.706   7.675  73.228  1.00  0.00    -0.346 C  
HETATM    2  C   UNL     1      -9.663   7.172  71.798  1.00  0.00    -0.157 C  
ENDROOT
BRANCH   2   3
HETATM    3  S   UNL     1     -10.280   8.395  70.653  1.00  0.00    -0.199 S  
HETATM    4  O   UNL     1     -10.881   9.469  71.419  1.00  0.00    -0.347 OA 
HETATM    5  O   UNL     1     -11.024   7.715  69.612  1.00  0.00    -0.226 OA 
BRANCH   3   6
HETATM    6  C   UNL     1      -8.802   9.049  69.914  1.00  0.00    -0.158 C  
BRANCH   6   7
HETATM    7  C   UNL     1      -9.117  10.364  69.220  1.00  0.00    -0.175 C  
BRANCH   7   8
HETATM    8  N   UNL     1      -8.509  10.459  67.902  1.00  0.00    -0.114 NA 
HETATM    9  C   UNL     1      -9.081   9.991  66.727  1.00  0.00    -0.139 A  
HETATM   10  N   UNL     1      -8.253  10.139  65.711  1.00  0.00    -0.138 NA 
HETATM   11  C   UNL     1     -10.440   9.394  66.610  1.00  0.00    -0.238 C  
HETATM   12  C   UNL     1      -7.128  10.732  66.214  1.00  0.00    -0.134 A  
HETATM   13  C   UNL     1      -7.276  10.962  67.557  1.00  0.00    -0.095 A  
HETATM   14  N   UNL     1      -6.356  11.616  68.422  1.00  0.00    -0.050 N  
HETATM   15  O   UNL     1      -6.728  11.866  69.573  1.00  0.00    -0.112 OA 
HETATM   16  O   UNL     1      -5.261  11.921  67.937  1.00  0.00    -0.047 OA 
ENDBRANCH   7   8
ENDBRANCH   6   7
ENDBRANCH   3   6
ENDBRANCH   2   3
TORSDOF 4
ENDMDL
MODEL      243
REMARK 921   NORMALIZED FREE ENERGY PREDICTED BY IDOCK:   -2.10 KCAL/MOL
REMARK 922        TOTAL FREE ENERGY PREDICTED BY IDOCK:   -3.01 KCAL/MOL
REMARK 923 INTER-LIGAND FREE ENERGY PREDICTED BY IDOCK:   -2.69 KCAL/MOL
REMARK 924 INTRA-LIGAND FREE ENERGY PREDICTED BY IDOCK:   -0.32 KCAL/MOL
REMARK 927      BINDING AFFINITY PREDICTED BY RF-SCORE:    0.00 PKD
ROOT
HETATM    1  C   UNL     1      -9.341  12.234  66.334  1.00  0.00    -0.219 C  
HETATM    2  C   UNL     1      -8.173  11.739  67.165  1.00  0.00    -0.169 C  
ENDROOT
BRANCH   2   3
HETATM    3  S   UNL     1      -8.718  10.703  68.513  1.00  0.00    -0.148 S  
HETATM    4  O   UNL     1     -10.037  11.147  68.919  1.00  0.00    -0.200 OA 
HETATM    5  O   UNL     1      -7.639  10.594  69.474  1.00  0.00    -0.146 OA 
BRANCH   3   6
HETATM    6  C   UNL     1      -8.919   9.109  67.750  1.00  0.00    -0.127 C  
BRANCH   6   7
HETATM    7  C   UNL     1      -9.524   8.138  68.751  1.00  0.00    -0.148 C  
BRANCH   7   8
HETATM    8  N   UNL     1      -9.020   6.784  68.588  1.00  0.00    -0.126 NA 
HETATM    9  C   UNL     1      -7.929   6.254  69.264  1.00  0.00    -0.109 A  
HETATM   10  N   UNL     1      -7.660   5.035  68.839  1.00  0.00    -0.072 NA 
HETATM   11  C   UNL     1      -7.152   6.954  70.324  1.00  0.00    -0.067 C  
HETATM   12  C   UNL     1      -8.596   4.744  67.885  1.00  0.00    -0.103 A  
HETATM   13  C   UNL     1      -9.460   5.798  67.734  1.00  0.00    -0.112 A  
HETATM   14  N   UNL     1     -10.602   5.858  66.889  1.00  0.00    -0.286 N  
HETATM   15  O   UNL     1     -11.348   6.836  66.999  1.00  0.00    -0.337 OA 
HETATM   16  O   UNL     1     -10.781   4.897  66.133  1.00  0.00    -0.317 OA 
ENDBRANCH   7   8
ENDBRANCH   6   7
ENDBRANCH   3   6
ENDBRANCH   2   3
TORSDOF 4
ENDMDL
MODEL      244
REMARK 921   NORMALIZED FREE ENERGY PREDICTED BY IDOCK:   -2.10 KCAL/MOL
REMARK 922        TOTAL FREE ENERGY PREDICTED BY IDOCK:   -3.00 KCAL/MOL
REMARK 923 INTER-LIGAND FREE ENERGY PREDICTED BY IDOCK:   -3.08 KCAL/MOL
REMARK 924 INTRA-LIGAND FREE ENERGY PREDICTED BY IDOCK:    0.07 KCAL/MOL
REMARK 927      BINDING AFFINITY PREDICTED BY RF-SCORE:    0.00 PKD
ROOT
HETATM    1  C   UNL     1      -8.385   3.269  67.591  1.00  0.00    -0.095 C  
HETATM    2  C   UNL     1      -9.496   4.009  68.312  1.00  0.00    -0.156 C  
ENDROOT
BRANCH   2   3
HETATM    3  S   UNL     1      -9.961   5.501  67.446  1.00  0.00    -0.179 S  
HETATM    4  O   UNL     1     -10.686   5.121  66.249  1.00  0.00    -0.310 OA 
HETATM    5  O   UNL     1      -8.802   6.368  67.372  1.00  0.00    -0.107 OA 
BRANCH   3   6
HETATM    6  C   UNL     1     -11.132   6.264  68.543  1.00  0.00    -0.308 C  
BRANCH   6   7
HETATM    7  C   UNL     1     -10.398   7.154  69.532  1.00  0.00    -0.215 C  
BRANCH   7   8
HETATM    8  N   UNL     1     -10.462   6.645  70.894  1.00  0.00    -0.212 NA 
HETATM    9  C   UNL     1     -11.612   6.597  71.672  1.00  0.00    -0.304 A  
HETATM   10  N   UNL     1     -11.336   6.170  72.889  1.00  0.00    -0.213 NA 
HETATM   11  C   UNL     1     -12.976   6.978  71.214  1.00  0.00    -0.357 C  
HETATM   12  C   UNL     1      -9.994   5.911  72.912  1.00  0.00    -0.173 A  
HETATM   13  C   UNL     1      -9.441   6.172  71.685  1.00  0.00    -0.148 A  
HETATM   14  N   UNL     1      -8.089   5.969  71.291  1.00  0.00    -0.116 N  
HETATM   15  O   UNL     1      -7.810   6.120  70.097  1.00  0.00    -0.098 OA 
HETATM   16  O   UNL     1      -7.303   5.614  72.176  1.00  0.00    -0.087 OA 
ENDBRANCH   7   8
ENDBRANCH   6   7
ENDBRANCH   3   6
ENDBRANCH   2   3
TORSDOF 4
ENDMDL
MODEL      245
REMARK 921   NORMALIZED FREE ENERGY PREDICTED BY IDOCK:   -2.10 KCAL/MOL
REMARK 922        TOTAL FREE ENERGY PREDICTED BY IDOCK:   -3.00 KCAL/MOL
REMARK 923 INTER-LIGAND FREE ENERGY PREDICTED BY IDOCK:   -2.49 KCAL/MOL
REMARK 924 INTRA-LIGAND FREE ENERGY PREDICTED BY IDOCK:   -0.51 KCAL/MOL
REMARK 927      BINDING AFFINITY PREDICTED BY RF-SCORE:    0.00 PKD
ROOT
HETATM    1  C   UNL     1      -8.364  11.970  67.001  1.00  0.00    -0.178 C  
HETATM    2  C   UNL     1      -9.449  11.002  66.569  1.00  0.00    -0.187 C  
ENDROOT
BRANCH   2   3
HETATM    3  S   UNL     1      -9.928   9.916  67.903  1.00  0.00    -0.168 S  
HETATM    4  O   UNL     1     -11.201  10.376  68.425  1.00  0.00    -0.271 OA 
HETATM    5  O   UNL     1      -8.787   9.731  68.777  1.00  0.00    -0.122 OA 
BRANCH   3   6
HETATM    6  C   UNL     1     -10.231   8.368  67.084  1.00  0.00    -0.292 C  
BRANCH   6   7
HETATM    7  C   UNL     1      -9.137   7.378  67.444  1.00  0.00    -0.122 C  
BRANCH   7   8
HETATM    8  N   UNL     1      -8.448   6.858  66.273  1.00  0.00    -0.125 NA 
HETATM    9  C   UNL     1      -7.339   7.444  65.677  1.00  0.00    -0.074 A  
HETATM   10  N   UNL     1      -6.996   6.792  64.583  1.00  0.00    -0.053 NA 
HETATM   11  C   UNL     1      -6.625   8.647  66.186  1.00  0.00    -0.061 C  
HETATM   12  C   UNL     1      -7.873   5.750  64.464  1.00  0.00    -0.113 A  
HETATM   13  C   UNL     1      -8.759   5.757  65.510  1.00  0.00    -0.138 A  
HETATM   14  N   UNL     1      -9.780   4.803  65.776  1.00  0.00    -0.177 N  
HETATM   15  O   UNL     1     -10.384   4.892  66.850  1.00  0.00    -0.224 OA 
HETATM   16  O   UNL     1      -9.957   3.928  64.920  1.00  0.00    -0.189 OA 
ENDBRANCH   7   8
ENDBRANCH   6   7
ENDBRANCH   3   6
ENDBRANCH   2   3
TORSDOF 4
ENDMDL
MODEL      246
REMARK 921   NORMALIZED FREE ENERGY PREDICTED BY IDOCK:   -2.09 KCAL/MOL
REMARK 922        TOTAL FREE ENERGY PREDICTED BY IDOCK:   -2.99 KCAL/MOL
REMARK 923 INTER-LIGAND FREE ENERGY PREDICTED BY IDOCK:   -2.60 KCAL/MOL
REMARK 924 INTRA-LIGAND FREE ENERGY PREDICTED BY IDOCK:   -0.39 KCAL/MOL
REMARK 927      BINDING AFFINITY PREDICTED BY RF-SCORE:    0.00 PKD
ROOT
HETATM    1  C   UNL     1     -10.398  10.831  69.126  1.00  0.00    -0.238 C  
HETATM    2  C   UNL     1      -9.161   9.991  69.383  1.00  0.00    -0.216 C  
ENDROOT
BRANCH   2   3
HETATM    3  S   UNL     1      -9.346   8.337  68.736  1.00  0.00    -0.143 S  
HETATM    4  O   UNL     1      -8.022   7.794  68.499  1.00  0.00    -0.118 OA 
HETATM    5  O   UNL     1     -10.340   8.365  67.681  1.00  0.00    -0.226 OA 
BRANCH   3   6
HETATM    6  C   UNL     1     -10.041   7.437  70.102  1.00  0.00    -0.197 C  
BRANCH   6   7
HETATM    7  C   UNL     1      -9.727   8.160  71.401  1.00  0.00    -0.171 C  
BRANCH   7   8
HETATM    8  N   UNL     1      -8.919   7.357  72.305  1.00  0.00    -0.126 NA 
HETATM    9  C   UNL     1      -7.540   7.453  72.438  1.00  0.00    -0.084 A  
HETATM   10  N   UNL     1      -7.084   6.534  73.267  1.00  0.00    -0.078 NA 
HETATM   11  C   UNL     1      -6.676   8.446  71.742  1.00  0.00    -0.076 C  
HETATM   12  C   UNL     1      -8.174   5.836  73.706  1.00  0.00    -0.110 A  
HETATM   13  C   UNL     1      -9.317   6.344  73.146  1.00  0.00    -0.134 A  
HETATM   14  N   UNL     1     -10.655   5.931  73.401  1.00  0.00    -0.244 N  
HETATM   15  O   UNL     1     -11.567   6.608  72.917  1.00  0.00    -0.142 OA 
HETATM   16  O   UNL     1     -10.799   4.942  74.128  1.00  0.00    -0.295 OA 
ENDBRANCH   7   8
ENDBRANCH   6   7
ENDBRANCH   3   6
ENDBRANCH   2   3
TORSDOF 4
ENDMDL
MODEL      247
REMARK 921   NORMALIZED FREE ENERGY PREDICTED BY IDOCK:   -2.08 KCAL/MOL
REMARK 922        TOTAL FREE ENERGY PREDICTED BY IDOCK:   -2.98 KCAL/MOL
REMARK 923 INTER-LIGAND FREE ENERGY PREDICTED BY IDOCK:   -2.69 KCAL/MOL
REMARK 924 INTRA-LIGAND FREE ENERGY PREDICTED BY IDOCK:   -0.29 KCAL/MOL
REMARK 927      BINDING AFFINITY PREDICTED BY RF-SCORE:    0.00 PKD
ROOT
HETATM    1  C   UNL     1     -13.643   8.793  71.609  1.00  0.00    -0.425 C  
HETATM    2  C   UNL     1     -12.491   7.935  72.097  1.00  0.00    -0.267 C  
ENDROOT
BRANCH   2   3
HETATM    3  S   UNL     1     -11.012   8.215  71.136  1.00  0.00    -0.243 S  
HETATM    4  O   UNL     1     -10.378   9.424  71.624  1.00  0.00    -0.309 OA 
HETATM    5  O   UNL     1     -11.340   8.059  69.733  1.00  0.00    -0.062 OA 
BRANCH   3   6
HETATM    6  C   UNL     1      -9.962   6.856  71.595  1.00  0.00    -0.171 C  
BRANCH   6   7
HETATM    7  C   UNL     1     -10.369   5.613  70.821  1.00  0.00    -0.243 C  
BRANCH   7   8
HETATM    8  N   UNL     1      -9.509   4.474  71.103  1.00  0.00    -0.149 NA 
HETATM    9  C   UNL     1      -9.664   3.606  72.176  1.00  0.00    -0.163 A  
HETATM   10  N   UNL     1      -8.679   2.730  72.215  1.00  0.00    -0.073 NA 
HETATM   11  C   UNL     1     -10.779   3.648  73.161  1.00  0.00    -0.268 C  
HETATM   12  C   UNL     1      -7.874   3.005  71.145  1.00  0.00    -0.050 A  
HETATM   13  C   UNL     1      -8.382   4.060  70.431  1.00  0.00    -0.061 A  
HETATM   14  N   UNL     1      -7.870   4.604  69.221  1.00  0.00    -0.063 N  
HETATM   15  O   UNL     1      -8.549   5.457  68.641  1.00  0.00    -0.096 OA 
HETATM   16  O   UNL     1      -6.794   4.144  68.820  1.00  0.00    -0.045 OA 
ENDBRANCH   7   8
ENDBRANCH   6   7
ENDBRANCH   3   6
ENDBRANCH   2   3
TORSDOF 4
ENDMDL
MODEL      248
REMARK 921   NORMALIZED FREE ENERGY PREDICTED BY IDOCK:   -2.07 KCAL/MOL
REMARK 922        TOTAL FREE ENERGY PREDICTED BY IDOCK:   -2.97 KCAL/MOL
REMARK 923 INTER-LIGAND FREE ENERGY PREDICTED BY IDOCK:   -2.94 KCAL/MOL
REMARK 924 INTRA-LIGAND FREE ENERGY PREDICTED BY IDOCK:   -0.03 KCAL/MOL
REMARK 927      BINDING AFFINITY PREDICTED BY RF-SCORE:    0.00 PKD
ROOT
HETATM    1  C   UNL     1      -5.857   8.952  72.111  1.00  0.00    -0.076 C  
HETATM    2  C   UNL     1      -5.769   8.780  70.606  1.00  0.00    -0.028 C  
ENDROOT
BRANCH   2   3
HETATM    3  S   UNL     1      -6.665  10.065  69.746  1.00  0.00    -0.102 S  
HETATM    4  O   UNL     1      -6.234  10.065  68.362  1.00  0.00    -0.049 OA 
HETATM    5  O   UNL     1      -6.613  11.273  70.545  1.00  0.00    -0.239 OA 
BRANCH   3   6
HETATM    6  C   UNL     1      -8.343   9.480  69.768  1.00  0.00    -0.164 C  
BRANCH   6   7
HETATM    7  C   UNL     1      -8.365   8.009  70.148  1.00  0.00    -0.126 C  
BRANCH   7   8
HETATM    8  N   UNL     1      -9.710   7.453  70.148  1.00  0.00    -0.175 NA 
HETATM    9  C   UNL     1     -10.655   7.659  71.145  1.00  0.00    -0.221 A  
HETATM   10  N   UNL     1     -11.745   6.954  70.909  1.00  0.00    -0.342 NA 
HETATM   11  C   UNL     1     -10.479   8.544  72.328  1.00  0.00    -0.402 C  
HETATM   12  C   UNL     1     -11.529   6.292  69.733  1.00  0.00    -0.379 A  
HETATM   13  C   UNL     1     -10.291   6.606  69.234  1.00  0.00    -0.200 A  
HETATM   14  N   UNL     1      -9.726   6.172  68.003  1.00  0.00    -0.118 N  
HETATM   15  O   UNL     1      -8.658   6.681  67.650  1.00  0.00    -0.120 OA 
HETATM   16  O   UNL     1     -10.376   5.341  67.359  1.00  0.00    -0.200 OA 
ENDBRANCH   7   8
ENDBRANCH   6   7
ENDBRANCH   3   6
ENDBRANCH   2   3
TORSDOF 4
ENDMDL
MODEL      249
REMARK 921   NORMALIZED FREE ENERGY PREDICTED BY IDOCK:   -2.07 KCAL/MOL
REMARK 922        TOTAL FREE ENERGY PREDICTED BY IDOCK:   -2.97 KCAL/MOL
REMARK 923 INTER-LIGAND FREE ENERGY PREDICTED BY IDOCK:   -2.63 KCAL/MOL
REMARK 924 INTRA-LIGAND FREE ENERGY PREDICTED BY IDOCK:   -0.34 KCAL/MOL
REMARK 927      BINDING AFFINITY PREDICTED BY RF-SCORE:    0.00 PKD
ROOT
HETATM    1  C   UNL     1     -10.022   4.942  70.501  1.00  0.00    -0.311 C  
HETATM    2  C   UNL     1      -9.179   5.027  69.243  1.00  0.00    -0.109 C  
ENDROOT
BRANCH   2   3
HETATM    3  S   UNL     1      -9.628   6.439  68.246  1.00  0.00    -0.123 S  
HETATM    4  O   UNL     1     -11.071   6.575  68.279  1.00  0.00    -0.290 OA 
HETATM    5  O   UNL     1      -8.915   6.357  66.987  1.00  0.00    -0.116 OA 
BRANCH   3   6
HETATM    6  C   UNL     1      -8.956   7.813  69.153  1.00  0.00    -0.145 C  
BRANCH   6   7
HETATM    7  C   UNL     1      -7.917   8.525  68.304  1.00  0.00    -0.114 C  
BRANCH   7   8
HETATM    8  N   UNL     1      -8.207   9.941  68.139  1.00  0.00    -0.108 NA 
HETATM    9  C   UNL     1      -9.085  10.469  67.202  1.00  0.00    -0.143 A  
HETATM   10  N   UNL     1      -9.069  11.787  67.235  1.00  0.00    -0.167 NA 
HETATM   11  C   UNL     1      -9.933   9.672  66.273  1.00  0.00    -0.335 C  
HETATM   12  C   UNL     1      -8.187  12.137  68.219  1.00  0.00    -0.168 A  
HETATM   13  C   UNL     1      -7.665  11.014  68.807  1.00  0.00    -0.135 A  
HETATM   14  N   UNL     1      -6.765  10.960  69.907  1.00  0.00    -0.152 N  
HETATM   15  O   UNL     1      -6.522   9.853  70.397  1.00  0.00    -0.087 OA 
HETATM   16  O   UNL     1      -6.325  12.041  70.316  1.00  0.00    -0.128 OA 
ENDBRANCH   7   8
ENDBRANCH   6   7
ENDBRANCH   3   6
ENDBRANCH   2   3
TORSDOF 4
ENDMDL
MODEL      250
REMARK 921   NORMALIZED FREE ENERGY PREDICTED BY IDOCK:   -2.05 KCAL/MOL
REMARK 922        TOTAL FREE ENERGY PREDICTED BY IDOCK:   -2.94 KCAL/MOL
REMARK 923 INTER-LIGAND FREE ENERGY PREDICTED BY IDOCK:   -2.69 KCAL/MOL
REMARK 924 INTRA-LIGAND FREE ENERGY PREDICTED BY IDOCK:   -0.25 KCAL/MOL
REMARK 927      BINDING AFFINITY PREDICTED BY RF-SCORE:    0.00 PKD
ROOT
HETATM    1  C   UNL     1      -6.903   5.983  68.088  1.00  0.00    -0.070 C  
HETATM    2  C   UNL     1      -5.809   6.611  68.930  1.00  0.00    -0.021 C  
ENDROOT
BRANCH   2   3
HETATM    3  S   UNL     1      -6.447   7.234  70.477  1.00  0.00    -0.043 S  
HETATM    4  O   UNL     1      -6.139   8.649  70.556  1.00  0.00    -0.031 OA 
HETATM    5  O   UNL     1      -6.055   6.324  71.535  1.00  0.00    -0.038 OA 
BRANCH   3   6
HETATM    6  C   UNL     1      -8.208   7.097  70.279  1.00  0.00    -0.131 C  
BRANCH   6   7
HETATM    7  C   UNL     1      -8.906   7.697  71.489  1.00  0.00    -0.124 C  
BRANCH   7   8
HETATM    8  N   UNL     1     -10.340   7.453  71.484  1.00  0.00    -0.201 NA 
HETATM    9  C   UNL     1     -11.283   8.264  70.867  1.00  0.00    -0.265 A  
HETATM   10  N   UNL     1     -12.505   7.833  71.112  1.00  0.00    -0.266 NA 
HETATM   11  C   UNL     1     -10.976   9.465  70.042  1.00  0.00    -0.267 C  
HETATM   12  C   UNL     1     -12.370   6.711  71.882  1.00  0.00    -0.318 A  
HETATM   13  C   UNL     1     -11.043   6.444  72.100  1.00  0.00    -0.263 A  
HETATM   14  N   UNL     1     -10.494   5.332  72.798  1.00  0.00    -0.205 N  
HETATM   15  O   UNL     1      -9.269   5.180  72.762  1.00  0.00    -0.135 OA 
HETATM   16  O   UNL     1     -11.299   4.578  73.355  1.00  0.00    -0.312 OA 
ENDBRANCH   7   8
ENDBRANCH   6   7
ENDBRANCH   3   6
ENDBRANCH   2   3
TORSDOF 4
ENDMDL
MODEL      251
REMARK 921   NORMALIZED FREE ENERGY PREDICTED BY IDOCK:   -2.03 KCAL/MOL
REMARK 922        TOTAL FREE ENERGY PREDICTED BY IDOCK:   -2.92 KCAL/MOL
REMARK 923 INTER-LIGAND FREE ENERGY PREDICTED BY IDOCK:   -2.52 KCAL/MOL
REMARK 924 INTRA-LIGAND FREE ENERGY PREDICTED BY IDOCK:   -0.40 KCAL/MOL
REMARK 927      BINDING AFFINITY PREDICTED BY RF-SCORE:    0.00 PKD
ROOT
HETATM    1  C   UNL     1      -6.926   5.357  67.345  1.00  0.00    -0.065 C  
HETATM    2  C   UNL     1      -7.060   4.230  68.351  1.00  0.00    -0.055 C  
ENDROOT
BRANCH   2   3
HETATM    3  S   UNL     1      -7.609   4.832  69.941  1.00  0.00    -0.055 S  
HETATM    4  O   UNL     1      -6.462   5.384  70.635  1.00  0.00    -0.032 OA 
HETATM    5  O   UNL     1      -8.434   3.812  70.557  1.00  0.00    -0.066 OA 
BRANCH   3   6
HETATM    6  C   UNL     1      -8.668   6.196  69.520  1.00  0.00    -0.130 C  
BRANCH   6   7
HETATM    7  C   UNL     1      -8.276   7.416  70.337  1.00  0.00    -0.121 C  
BRANCH   7   8
HETATM    8  N   UNL     1      -9.410   8.012  71.026  1.00  0.00    -0.147 NA 
HETATM    9  C   UNL     1      -9.963   7.535  72.207  1.00  0.00    -0.181 A  
HETATM   10  N   UNL     1     -11.033   8.231  72.538  1.00  0.00    -0.358 NA 
HETATM   11  C   UNL     1      -9.437   6.391  73.003  1.00  0.00    -0.148 C  
HETATM   12  C   UNL     1     -11.180   9.193  71.579  1.00  0.00    -0.360 A  
HETATM   13  C   UNL     1     -10.174   9.093  70.652  1.00  0.00    -0.246 A  
HETATM   14  N   UNL     1      -9.943   9.949  69.540  1.00  0.00    -0.208 N  
HETATM   15  O   UNL     1      -8.898   9.792  68.901  1.00  0.00    -0.129 OA 
HETATM   16  O   UNL     1     -10.796  10.817  69.324  1.00  0.00    -0.212 OA 
ENDBRANCH   7   8
ENDBRANCH   6   7
ENDBRANCH   3   6
ENDBRANCH   2   3
TORSDOF 4
ENDMDL
MODEL      252
REMARK 921   NORMALIZED FREE ENERGY PREDICTED BY IDOCK:   -2.02 KCAL/MOL
REMARK 922        TOTAL FREE ENERGY PREDICTED BY IDOCK:   -2.91 KCAL/MOL
REMARK 923 INTER-LIGAND FREE ENERGY PREDICTED BY IDOCK:   -3.02 KCAL/MOL
REMARK 924 INTRA-LIGAND FREE ENERGY PREDICTED BY IDOCK:    0.11 KCAL/MOL
REMARK 927      BINDING AFFINITY PREDICTED BY RF-SCORE:    0.00 PKD
ROOT
HETATM    1  C   UNL     1      -9.333   5.949  70.789  1.00  0.00    -0.180 C  
HETATM    2  C   UNL     1      -8.991   6.601  69.463  1.00  0.00    -0.138 C  
ENDROOT
BRANCH   2   3
HETATM    3  S   UNL     1     -10.437   6.787  68.431  1.00  0.00    -0.222 S  
HETATM    4  O   UNL     1     -11.518   6.024  69.026  1.00  0.00    -0.275 OA 
HETATM    5  O   UNL     1     -10.046   6.576  67.051  1.00  0.00    -0.150 OA 
BRANCH   3   6
HETATM    6  C   UNL     1     -10.853   8.505  68.613  1.00  0.00     0.060 C  
BRANCH   6   7
HETATM    7  C   UNL     1      -9.579   9.333  68.677  1.00  0.00    -0.147 C  
BRANCH   7   8
HETATM    8  N   UNL     1      -9.231   9.919  67.391  1.00  0.00    -0.134 NA 
HETATM    9  C   UNL     1      -8.143   9.544  66.615  1.00  0.00    -0.108 A  
HETATM   10  N   UNL     1      -8.038  10.316  65.551  1.00  0.00    -0.151 NA 
HETATM   11  C   UNL     1      -7.208   8.429  66.927  1.00  0.00    -0.079 C  
HETATM   12  C   UNL     1      -9.080  11.199  65.611  1.00  0.00    -0.205 A  
HETATM   13  C   UNL     1      -9.843  10.955  66.724  1.00  0.00    -0.195 A  
HETATM   14  N   UNL     1     -11.045  11.615  67.102  1.00  0.00    -0.282 N  
HETATM   15  O   UNL     1     -11.675  11.155  68.060  1.00  0.00    -0.517 OA 
HETATM   16  O   UNL     1     -11.387  12.581  66.411  1.00  0.00    -0.293 OA 
ENDBRANCH   7   8
ENDBRANCH   6   7
ENDBRANCH   3   6
ENDBRANCH   2   3
TORSDOF 4
ENDMDL
MODEL      253
REMARK 921   NORMALIZED FREE ENERGY PREDICTED BY IDOCK:   -1.97 KCAL/MOL
REMARK 922        TOTAL FREE ENERGY PREDICTED BY IDOCK:   -2.84 KCAL/MOL
REMARK 923 INTER-LIGAND FREE ENERGY PREDICTED BY IDOCK:   -2.67 KCAL/MOL
REMARK 924 INTRA-LIGAND FREE ENERGY PREDICTED BY IDOCK:   -0.18 KCAL/MOL
REMARK 927      BINDING AFFINITY PREDICTED BY RF-SCORE:    0.00 PKD
ROOT
HETATM    1  C   UNL     1      -6.730   9.602  71.160  1.00  0.00     0.039 C  
HETATM    2  C   UNL     1      -7.673   8.417  71.073  1.00  0.00    -0.097 C  
ENDROOT
BRANCH   2   3
HETATM    3  S   UNL     1      -9.371   8.941  70.891  1.00  0.00    -0.259 S  
HETATM    4  O   UNL     1      -9.389  10.135  70.069  1.00  0.00    -0.175 OA 
HETATM    5  O   UNL     1      -9.999   8.924  72.197  1.00  0.00    -0.322 OA 
BRANCH   3   6
HETATM    6  C   UNL     1     -10.101   7.636  69.929  1.00  0.00    -0.198 C  
BRANCH   6   7
HETATM    7  C   UNL     1      -9.095   7.130  68.909  1.00  0.00    -0.131 C  
BRANCH   7   8
HETATM    8  N   UNL     1      -9.160   5.687  68.731  1.00  0.00    -0.117 NA 
HETATM    9  C   UNL     1      -8.570   4.755  69.574  1.00  0.00    -0.085 A  
HETATM   10  N   UNL     1      -8.726   3.533  69.103  1.00  0.00    -0.081 NA 
HETATM   11  C   UNL     1      -7.851   5.072  70.839  1.00  0.00    -0.087 C  
HETATM   12  C   UNL     1      -9.445   3.654  67.947  1.00  0.00    -0.169 A  
HETATM   13  C   UNL     1      -9.745   4.971  67.713  1.00  0.00    -0.153 A  
HETATM   14  N   UNL     1     -10.531   5.498  66.650  1.00  0.00    -0.271 N  
HETATM   15  O   UNL     1     -10.819   6.698  66.689  1.00  0.00    -0.265 OA 
HETATM   16  O   UNL     1     -10.899   4.695  65.785  1.00  0.00    -0.293 OA 
ENDBRANCH   7   8
ENDBRANCH   6   7
ENDBRANCH   3   6
ENDBRANCH   2   3
TORSDOF 4
ENDMDL
MODEL      254
REMARK 921   NORMALIZED FREE ENERGY PREDICTED BY IDOCK:   -1.97 KCAL/MOL
REMARK 922        TOTAL FREE ENERGY PREDICTED BY IDOCK:   -2.84 KCAL/MOL
REMARK 923 INTER-LIGAND FREE ENERGY PREDICTED BY IDOCK:   -2.62 KCAL/MOL
REMARK 924 INTRA-LIGAND FREE ENERGY PREDICTED BY IDOCK:   -0.22 KCAL/MOL
REMARK 927      BINDING AFFINITY PREDICTED BY RF-SCORE:    0.00 PKD
ROOT
HETATM    1  C   UNL     1      -9.691   6.020  66.565  1.00  0.00    -0.183 C  
HETATM    2  C   UNL     1     -10.628   6.579  67.619  1.00  0.00    -0.269 C  
ENDROOT
BRANCH   2   3
HETATM    3  S   UNL     1     -10.250   5.936  69.241  1.00  0.00    -0.238 S  
HETATM    4  O   UNL     1      -9.968   4.520  69.112  1.00  0.00    -0.178 OA 
HETATM    5  O   UNL     1     -11.256   6.414  70.170  1.00  0.00    -0.325 OA 
BRANCH   3   6
HETATM    6  C   UNL     1      -8.717   6.736  69.653  1.00  0.00    -0.137 C  
BRANCH   6   7
HETATM    7  C   UNL     1      -7.899   5.832  70.561  1.00  0.00    -0.100 C  
BRANCH   7   8
HETATM    8  N   UNL     1      -8.167   6.069  71.971  1.00  0.00    -0.108 NA 
HETATM    9  C   UNL     1      -9.035   5.317  72.753  1.00  0.00    -0.121 A  
HETATM   10  N   UNL     1      -9.136   5.828  73.964  1.00  0.00    -0.126 NA 
HETATM   11  C   UNL     1      -9.765   4.101  72.301  1.00  0.00    -0.214 C  
HETATM   12  C   UNL     1      -8.310   6.918  73.994  1.00  0.00    -0.136 A  
HETATM   13  C   UNL     1      -7.684   7.068  72.784  1.00  0.00    -0.088 A  
HETATM   14  N   UNL     1      -6.705   8.041  72.438  1.00  0.00    -0.071 N  
HETATM   15  O   UNL     1      -6.141   7.926  71.346  1.00  0.00    -0.035 OA 
HETATM   16  O   UNL     1      -6.465   8.909  73.285  1.00  0.00    -0.294 OA 
ENDBRANCH   7   8
ENDBRANCH   6   7
ENDBRANCH   3   6
ENDBRANCH   2   3
TORSDOF 4
ENDMDL
MODEL      255
REMARK 921   NORMALIZED FREE ENERGY PREDICTED BY IDOCK:   -1.96 KCAL/MOL
REMARK 922        TOTAL FREE ENERGY PREDICTED BY IDOCK:   -2.83 KCAL/MOL
REMARK 923 INTER-LIGAND FREE ENERGY PREDICTED BY IDOCK:   -3.04 KCAL/MOL
REMARK 924 INTRA-LIGAND FREE ENERGY PREDICTED BY IDOCK:    0.21 KCAL/MOL
REMARK 927      BINDING AFFINITY PREDICTED BY RF-SCORE:    0.00 PKD
ROOT
HETATM    1  C   UNL     1     -10.102   5.531  66.417  1.00  0.00    -0.220 C  
HETATM    2  C   UNL     1     -11.082   6.187  67.371  1.00  0.00    -0.225 C  
ENDROOT
BRANCH   2   3
HETATM    3  S   UNL     1     -10.574   5.989  69.072  1.00  0.00    -0.320 S  
HETATM    4  O   UNL     1     -10.114   4.625  69.250  1.00  0.00    -0.193 OA 
HETATM    5  O   UNL     1     -11.604   6.547  69.926  1.00  0.00    -0.409 OA 
BRANCH   3   6
HETATM    6  C   UNL     1      -9.146   7.040  69.198  1.00  0.00    -0.136 C  
BRANCH   6   7
HETATM    7  C   UNL     1      -8.197   6.485  70.248  1.00  0.00    -0.126 C  
BRANCH   7   8
HETATM    8  N   UNL     1      -8.466   7.013  71.577  1.00  0.00    -0.116 NA 
HETATM    9  C   UNL     1      -8.722   8.347  71.866  1.00  0.00    -0.195 A  
HETATM   10  N   UNL     1      -8.837   8.531  73.167  1.00  0.00    -0.337 NA 
HETATM   11  C   UNL     1      -8.846   9.437  70.859  1.00  0.00    -0.168 C  
HETATM   12  C   UNL     1      -8.677   7.303  73.746  1.00  0.00    -0.177 A  
HETATM   13  C   UNL     1      -8.474   6.349  72.781  1.00  0.00    -0.121 A  
HETATM   14  N   UNL     1      -8.330   4.947  72.977  1.00  0.00    -0.101 N  
HETATM   15  O   UNL     1      -8.306   4.227  71.974  1.00  0.00    -0.101 OA 
HETATM   16  O   UNL     1      -8.281   4.555  74.148  1.00  0.00    -0.098 OA 
ENDBRANCH   7   8
ENDBRANCH   6   7
ENDBRANCH   3   6
ENDBRANCH   2   3
TORSDOF 4
ENDMDL
MODEL      256
REMARK 921   NORMALIZED FREE ENERGY PREDICTED BY IDOCK:   -1.96 KCAL/MOL
REMARK 922        TOTAL FREE ENERGY PREDICTED BY IDOCK:   -2.83 KCAL/MOL
REMARK 923 INTER-LIGAND FREE ENERGY PREDICTED BY IDOCK:   -2.51 KCAL/MOL
REMARK 924 INTRA-LIGAND FREE ENERGY PREDICTED BY IDOCK:   -0.32 KCAL/MOL
REMARK 927      BINDING AFFINITY PREDICTED BY RF-SCORE:    0.00 PKD
ROOT
HETATM    1  C   UNL     1     -11.903  12.657  68.347  1.00  0.00    -0.347 C  
HETATM    2  C   UNL     1     -11.288  11.493  69.101  1.00  0.00    -0.286 C  
ENDROOT
BRANCH   2   3
HETATM    3  S   UNL     1     -10.031  10.674  68.132  1.00  0.00    -0.163 S  
HETATM    4  O   UNL     1      -8.769  11.350  68.365  1.00  0.00    -0.147 OA 
HETATM    5  O   UNL     1     -10.539  10.484  66.788  1.00  0.00    -0.247 OA 
BRANCH   3   6
HETATM    6  C   UNL     1      -9.908   9.071  68.890  1.00  0.00    -0.175 C  
BRANCH   6   7
HETATM    7  C   UNL     1      -8.519   8.502  68.657  1.00  0.00    -0.131 C  
BRANCH   7   8
HETATM    8  N   UNL     1      -8.527   7.055  68.508  1.00  0.00    -0.121 NA 
HETATM    9  C   UNL     1      -8.708   6.379  67.309  1.00  0.00    -0.106 A  
HETATM   10  N   UNL     1      -8.756   5.076  67.508  1.00  0.00    -0.104 NA 
HETATM   11  C   UNL     1      -8.840   7.020  65.972  1.00  0.00    -0.155 C  
HETATM   12  C   UNL     1      -8.582   4.884  68.850  1.00  0.00    -0.085 A  
HETATM   13  C   UNL     1      -8.413   6.089  69.482  1.00  0.00    -0.119 A  
HETATM   14  N   UNL     1      -8.142   6.305  70.861  1.00  0.00    -0.122 N  
HETATM   15  O   UNL     1      -7.869   7.455  71.220  1.00  0.00    -0.093 OA 
HETATM   16  O   UNL     1      -8.162   5.308  71.591  1.00  0.00    -0.113 OA 
ENDBRANCH   7   8
ENDBRANCH   6   7
ENDBRANCH   3   6
ENDBRANCH   2   3
TORSDOF 4
ENDMDL
MODEL      257
REMARK 921   NORMALIZED FREE ENERGY PREDICTED BY IDOCK:   -1.95 KCAL/MOL
REMARK 922        TOTAL FREE ENERGY PREDICTED BY IDOCK:   -2.82 KCAL/MOL
REMARK 923 INTER-LIGAND FREE ENERGY PREDICTED BY IDOCK:   -3.69 KCAL/MOL
REMARK 924 INTRA-LIGAND FREE ENERGY PREDICTED BY IDOCK:    0.87 KCAL/MOL
REMARK 927      BINDING AFFINITY PREDICTED BY RF-SCORE:    0.00 PKD
ROOT
HETATM    1  C   UNL     1      -5.782  20.035  71.221  1.00  0.00    -0.371 C  
HETATM    2  C   UNL     1      -5.417  18.723  70.552  1.00  0.00    -0.228 C  
ENDROOT
BRANCH   2   3
HETATM    3  S   UNL     1      -6.256  18.529  68.987  1.00  0.00    -0.246 S  
HETATM    4  O   UNL     1      -5.280  18.698  67.927  1.00  0.00    -0.170 OA 
HETATM    5  O   UNL     1      -7.470  19.320  69.016  1.00  0.00    -0.352 OA 
BRANCH   3   6
HETATM    6  C   UNL     1      -6.732  16.817  68.986  1.00  0.00    -0.209 C  
BRANCH   6   7
HETATM    7  C   UNL     1      -8.183  16.692  68.550  1.00  0.00    -0.231 C  
BRANCH   7   8
HETATM    8  N   UNL     1      -8.602  15.307  68.399  1.00  0.00    -0.155 NA 
HETATM    9  C   UNL     1      -7.742  14.230  68.226  1.00  0.00    -0.136 A  
HETATM   10  N   UNL     1      -8.420  13.116  68.028  1.00  0.00    -0.171 NA 
HETATM   11  C   UNL     1      -6.255  14.304  68.251  1.00  0.00    -0.117 C  
HETATM   12  C   UNL     1      -9.743  13.453  68.092  1.00  0.00    -0.226 A  
HETATM   13  C   UNL     1      -9.877  14.794  68.346  1.00  0.00    -0.220 A  
HETATM   14  N   UNL     1     -11.088  15.513  68.547  1.00  0.00    -0.289 N  
HETATM   15  O   UNL     1     -11.004  16.689  68.916  1.00  0.00    -0.320 OA 
HETATM   16  O   UNL     1     -12.139  14.886  68.375  1.00  0.00    -0.249 OA 
ENDBRANCH   7   8
ENDBRANCH   6   7
ENDBRANCH   3   6
ENDBRANCH   2   3
TORSDOF 4
ENDMDL
MODEL      258
REMARK 921   NORMALIZED FREE ENERGY PREDICTED BY IDOCK:   -1.86 KCAL/MOL
REMARK 922        TOTAL FREE ENERGY PREDICTED BY IDOCK:   -2.71 KCAL/MOL
REMARK 923 INTER-LIGAND FREE ENERGY PREDICTED BY IDOCK:   -2.39 KCAL/MOL
REMARK 924 INTRA-LIGAND FREE ENERGY PREDICTED BY IDOCK:   -0.32 KCAL/MOL
REMARK 927      BINDING AFFINITY PREDICTED BY RF-SCORE:    0.00 PKD
ROOT
HETATM    1  C   UNL     1      -7.345   9.758  70.607  1.00  0.00    -0.070 C  
HETATM    2  C   UNL     1      -8.050   8.497  71.069  1.00  0.00    -0.130 C  
ENDROOT
BRANCH   2   3
HETATM    3  S   UNL     1      -9.733   8.430  70.475  1.00  0.00    -0.177 S  
HETATM    4  O   UNL     1      -9.711   8.598  69.035  1.00  0.00    -0.167 OA 
HETATM    5  O   UNL     1     -10.550   9.286  71.313  1.00  0.00    -0.299 OA 
BRANCH   3   6
HETATM    6  C   UNL     1     -10.216   6.750  70.795  1.00  0.00    -0.195 C  
BRANCH   6   7
HETATM    7  C   UNL     1      -8.982   5.913  71.091  1.00  0.00    -0.139 C  
BRANCH   7   8
HETATM    8  N   UNL     1      -9.227   4.898  72.104  1.00  0.00    -0.134 NA 
HETATM    9  C   UNL     1      -9.261   5.132  73.472  1.00  0.00    -0.130 A  
HETATM   10  N   UNL     1      -9.414   4.003  74.137  1.00  0.00    -0.105 NA 
HETATM   11  C   UNL     1      -9.138   6.466  74.120  1.00  0.00    -0.172 C  
HETATM   12  C   UNL     1      -9.504   3.012  73.199  1.00  0.00    -0.090 A  
HETATM   13  C   UNL     1      -9.418   3.546  71.939  1.00  0.00    -0.137 A  
HETATM   14  N   UNL     1      -9.532   2.851  70.703  1.00  0.00    -0.154 N  
HETATM   15  O   UNL     1      -9.579   3.524  69.668  1.00  0.00    -0.174 OA 
HETATM   16  O   UNL     1      -9.618   1.620  70.766  1.00  0.00    -0.116 OA 
ENDBRANCH   7   8
ENDBRANCH   6   7
ENDBRANCH   3   6
ENDBRANCH   2   3
TORSDOF 4
ENDMDL
MODEL      259
REMARK 921   NORMALIZED FREE ENERGY PREDICTED BY IDOCK:   -1.86 KCAL/MOL
REMARK 922        TOTAL FREE ENERGY PREDICTED BY IDOCK:   -2.71 KCAL/MOL
REMARK 923 INTER-LIGAND FREE ENERGY PREDICTED BY IDOCK:   -3.48 KCAL/MOL
REMARK 924 INTRA-LIGAND FREE ENERGY PREDICTED BY IDOCK:    0.78 KCAL/MOL
REMARK 927      BINDING AFFINITY PREDICTED BY RF-SCORE:    0.00 PKD
ROOT
HETATM    1  C   UNL     1      -9.747   5.783  66.383  1.00  0.00    -0.175 C  
HETATM    2  C   UNL     1     -10.929   6.203  67.235  1.00  0.00    -0.326 C  
ENDROOT
BRANCH   2   3
HETATM    3  S   UNL     1     -10.505   6.249  68.969  1.00  0.00    -0.269 S  
HETATM    4  O   UNL     1      -9.717   5.070  69.272  1.00  0.00    -0.147 OA 
HETATM    5  O   UNL     1     -11.701   6.561  69.726  1.00  0.00    -0.382 OA 
BRANCH   3   6
HETATM    6  C   UNL     1      -9.416   7.648  69.089  1.00  0.00    -0.154 C  
BRANCH   6   7
HETATM    7  C   UNL     1     -10.234   8.918  69.257  1.00  0.00    -0.209 C  
BRANCH   7   8
HETATM    8  N   UNL     1      -9.946   9.906  68.229  1.00  0.00    -0.147 NA 
HETATM    9  C   UNL     1      -8.857   9.864  67.368  1.00  0.00    -0.132 A  
HETATM   10  N   UNL     1      -8.817  10.943  66.610  1.00  0.00    -0.155 NA 
HETATM   11  C   UNL     1      -7.858   8.763  67.299  1.00  0.00    -0.097 C  
HETATM   12  C   UNL     1      -9.903  11.699  66.957  1.00  0.00    -0.193 A  
HETATM   13  C   UNL     1     -10.626  11.065  67.934  1.00  0.00    -0.205 A  
HETATM   14  N   UNL     1     -11.852  11.498  68.511  1.00  0.00    -0.320 N  
HETATM   15  O   UNL     1     -12.436  10.718  69.271  1.00  0.00    -0.356 OA 
HETATM   16  O   UNL     1     -12.260  12.613  68.171  1.00  0.00    -0.217 OA 
ENDBRANCH   7   8
ENDBRANCH   6   7
ENDBRANCH   3   6
ENDBRANCH   2   3
TORSDOF 4
ENDMDL
MODEL      260
REMARK 921   NORMALIZED FREE ENERGY PREDICTED BY IDOCK:   -1.86 KCAL/MOL
REMARK 922        TOTAL FREE ENERGY PREDICTED BY IDOCK:   -2.71 KCAL/MOL
REMARK 923 INTER-LIGAND FREE ENERGY PREDICTED BY IDOCK:   -2.56 KCAL/MOL
REMARK 924 INTRA-LIGAND FREE ENERGY PREDICTED BY IDOCK:   -0.15 KCAL/MOL
REMARK 927      BINDING AFFINITY PREDICTED BY RF-SCORE:    0.00 PKD
ROOT
HETATM    1  C   UNL     1     -10.581   5.226  66.543  1.00  0.00    -0.348 C  
HETATM    2  C   UNL     1     -10.914   6.607  67.073  1.00  0.00    -0.393 C  
ENDROOT
BRANCH   2   3
HETATM    3  S   UNL     1      -9.619   7.236  68.130  1.00  0.00    -0.142 S  
HETATM    4  O   UNL     1     -10.124   8.409  68.816  1.00  0.00    -0.186 OA 
HETATM    5  O   UNL     1      -8.389   7.291  67.364  1.00  0.00    -0.118 OA 
BRANCH   3   6
HETATM    6  C   UNL     1      -9.431   5.959  69.353  1.00  0.00    -0.130 C  
BRANCH   6   7
HETATM    7  C   UNL     1      -8.203   6.243  70.201  1.00  0.00    -0.121 C  
BRANCH   7   8
HETATM    8  N   UNL     1      -8.477   6.153  71.627  1.00  0.00    -0.129 NA 
HETATM    9  C   UNL     1      -8.982   7.186  72.407  1.00  0.00    -0.127 A  
HETATM   10  N   UNL     1      -9.038   6.831  73.676  1.00  0.00    -0.138 NA 
HETATM   11  C   UNL     1      -9.402   8.521  71.898  1.00  0.00    -0.337 C  
HETATM   12  C   UNL     1      -8.586   5.542  73.736  1.00  0.00    -0.113 A  
HETATM   13  C   UNL     1      -8.261   5.097  72.481  1.00  0.00    -0.117 A  
HETATM   14  N   UNL     1      -7.816   3.794  72.120  1.00  0.00    -0.066 N  
HETATM   15  O   UNL     1      -7.716   3.534  70.917  1.00  0.00    -0.046 OA 
HETATM   16  O   UNL     1      -7.602   3.007  73.048  1.00  0.00    -0.049 OA 
ENDBRANCH   7   8
ENDBRANCH   6   7
ENDBRANCH   3   6
ENDBRANCH   2   3
TORSDOF 4
ENDMDL
MODEL      261
REMARK 921   NORMALIZED FREE ENERGY PREDICTED BY IDOCK:   -1.80 KCAL/MOL
REMARK 922        TOTAL FREE ENERGY PREDICTED BY IDOCK:   -2.64 KCAL/MOL
REMARK 923 INTER-LIGAND FREE ENERGY PREDICTED BY IDOCK:   -2.37 KCAL/MOL
REMARK 924 INTRA-LIGAND FREE ENERGY PREDICTED BY IDOCK:   -0.27 KCAL/MOL
REMARK 927      BINDING AFFINITY PREDICTED BY RF-SCORE:    0.00 PKD
ROOT
HETATM    1  C   UNL     1      -7.182   5.744  65.633  1.00  0.00    -0.075 C  
HETATM    2  C   UNL     1      -6.326   5.249  66.783  1.00  0.00    -0.040 C  
ENDROOT
BRANCH   2   3
HETATM    3  S   UNL     1      -7.140   3.945  67.693  1.00  0.00    -0.056 S  
HETATM    4  O   UNL     1      -6.121   3.144  68.344  1.00  0.00    -0.024 OA 
HETATM    5  O   UNL     1      -8.131   3.334  66.830  1.00  0.00    -0.083 OA 
BRANCH   3   6
HETATM    6  C   UNL     1      -8.010   4.819  68.973  1.00  0.00    -0.075 C  
BRANCH   6   7
HETATM    7  C   UNL     1      -9.408   4.244  69.123  1.00  0.00    -0.161 C  
BRANCH   7   8
HETATM    8  N   UNL     1     -10.171   4.900  70.174  1.00  0.00    -0.262 NA 
HETATM    9  C   UNL     1     -11.043   5.963  69.978  1.00  0.00    -0.341 A  
HETATM   10  N   UNL     1     -11.515   6.399  71.130  1.00  0.00    -0.317 NA 
HETATM   11  C   UNL     1     -11.402   6.549  68.657  1.00  0.00    -0.203 C  
HETATM   12  C   UNL     1     -10.969   5.604  72.097  1.00  0.00    -0.250 A  
HETATM   13  C   UNL     1     -10.158   4.656  71.527  1.00  0.00    -0.185 A  
HETATM   14  N   UNL     1      -9.463   3.608  72.193  1.00  0.00    -0.125 N  
HETATM   15  O   UNL     1      -8.902   2.757  71.495  1.00  0.00    -0.071 OA 
HETATM   16  O   UNL     1      -9.511   3.610  73.428  1.00  0.00    -0.103 OA 
ENDBRANCH   7   8
ENDBRANCH   6   7
ENDBRANCH   3   6
ENDBRANCH   2   3
TORSDOF 4
ENDMDL
MODEL      262
REMARK 921   NORMALIZED FREE ENERGY PREDICTED BY IDOCK:   -1.74 KCAL/MOL
REMARK 922        TOTAL FREE ENERGY PREDICTED BY IDOCK:   -2.56 KCAL/MOL
REMARK 923 INTER-LIGAND FREE ENERGY PREDICTED BY IDOCK:   -2.83 KCAL/MOL
REMARK 924 INTRA-LIGAND FREE ENERGY PREDICTED BY IDOCK:    0.27 KCAL/MOL
REMARK 927      BINDING AFFINITY PREDICTED BY RF-SCORE:    0.00 PKD
ROOT
HETATM    1  C   UNL     1      -6.680  19.780  69.733  1.00  0.00    -0.314 C  
HETATM    2  C   UNL     1      -6.142  18.362  69.692  1.00  0.00    -0.249 C  
ENDROOT
BRANCH   2   3
HETATM    3  S   UNL     1      -6.619  17.524  68.188  1.00  0.00    -0.191 S  
HETATM    4  O   UNL     1      -5.423  17.292  67.401  1.00  0.00    -0.117 OA 
HETATM    5  O   UNL     1      -7.763  18.211  67.623  1.00  0.00    -0.219 OA 
BRANCH   3   6
HETATM    6  C   UNL     1      -7.178  15.937  68.763  1.00  0.00    -0.148 C  
BRANCH   6   7
HETATM    7  C   UNL     1      -8.042  15.285  67.697  1.00  0.00    -0.158 C  
BRANCH   7   8
HETATM    8  N   UNL     1      -8.368  13.902  68.012  1.00  0.00    -0.154 NA 
HETATM    9  C   UNL     1      -9.653  13.410  68.197  1.00  0.00    -0.222 A  
HETATM   10  N   UNL     1      -9.621  12.142  68.560  1.00  0.00    -0.175 NA 
HETATM   11  C   UNL     1     -10.907  14.192  68.022  1.00  0.00    -0.256 C  
HETATM   12  C   UNL     1      -8.302  11.783  68.594  1.00  0.00    -0.079 A  
HETATM   13  C   UNL     1      -7.514  12.846  68.234  1.00  0.00    -0.125 A  
HETATM   14  N   UNL     1      -6.099  12.855  68.087  1.00  0.00    -0.082 N  
HETATM   15  O   UNL     1      -5.578  13.867  67.607  1.00  0.00    -0.298 OA 
HETATM   16  O   UNL     1      -5.503  11.824  68.416  1.00  0.00    -0.046 OA 
ENDBRANCH   7   8
ENDBRANCH   6   7
ENDBRANCH   3   6
ENDBRANCH   2   3
TORSDOF 4
ENDMDL
MODEL      263
REMARK 921   NORMALIZED FREE ENERGY PREDICTED BY IDOCK:   -1.73 KCAL/MOL
REMARK 922        TOTAL FREE ENERGY PREDICTED BY IDOCK:   -2.55 KCAL/MOL
REMARK 923 INTER-LIGAND FREE ENERGY PREDICTED BY IDOCK:   -2.83 KCAL/MOL
REMARK 924 INTRA-LIGAND FREE ENERGY PREDICTED BY IDOCK:    0.29 KCAL/MOL
REMARK 927      BINDING AFFINITY PREDICTED BY RF-SCORE:    0.00 PKD
ROOT
HETATM    1  C   UNL     1      -7.498   3.679  72.332  1.00  0.00    -0.054 C  
HETATM    2  C   UNL     1      -8.818   4.252  71.853  1.00  0.00    -0.112 C  
ENDROOT
BRANCH   2   3
HETATM    3  S   UNL     1      -8.904   4.302  70.070  1.00  0.00    -0.083 S  
HETATM    4  O   UNL     1      -9.157   2.956  69.592  1.00  0.00    -0.102 OA 
HETATM    5  O   UNL     1      -7.776   5.069  69.578  1.00  0.00    -0.066 OA 
BRANCH   3   6
HETATM    6  C   UNL     1     -10.374   5.250  69.755  1.00  0.00    -0.299 C  
BRANCH   6   7
HETATM    7  C   UNL     1     -10.035   6.732  69.760  1.00  0.00    -0.177 C  
BRANCH   7   8
HETATM    8  N   UNL     1     -10.039   7.300  71.100  1.00  0.00    -0.187 NA 
HETATM    9  C   UNL     1     -11.054   7.133  72.032  1.00  0.00    -0.245 A  
HETATM   10  N   UNL     1     -10.813   7.841  73.118  1.00  0.00    -0.385 NA 
HETATM   11  C   UNL     1     -12.261   6.282  71.845  1.00  0.00    -0.256 C  
HETATM   12  C   UNL     1      -9.615   8.466  72.914  1.00  0.00    -0.199 A  
HETATM   13  C   UNL     1      -9.108   8.125  71.687  1.00  0.00    -0.163 A  
HETATM   14  N   UNL     1      -7.856   8.517  71.136  1.00  0.00    -0.104 N  
HETATM   15  O   UNL     1      -7.503   7.987  70.078  1.00  0.00    -0.071 OA 
HETATM   16  O   UNL     1      -7.197   9.334  71.788  1.00  0.00    -0.328 OA 
ENDBRANCH   7   8
ENDBRANCH   6   7
ENDBRANCH   3   6
ENDBRANCH   2   3
TORSDOF 4
ENDMDL
MODEL      264
REMARK 921   NORMALIZED FREE ENERGY PREDICTED BY IDOCK:   -1.71 KCAL/MOL
REMARK 922        TOTAL FREE ENERGY PREDICTED BY IDOCK:   -2.52 KCAL/MOL
REMARK 923 INTER-LIGAND FREE ENERGY PREDICTED BY IDOCK:   -3.42 KCAL/MOL
REMARK 924 INTRA-LIGAND FREE ENERGY PREDICTED BY IDOCK:    0.90 KCAL/MOL
REMARK 927      BINDING AFFINITY PREDICTED BY RF-SCORE:    0.00 PKD
ROOT
HETATM    1  C   UNL     1      -5.522  20.535  71.325  1.00  0.00    -0.234 C  
HETATM    2  C   UNL     1      -5.132  20.104  69.924  1.00  0.00    -0.206 C  
ENDROOT
BRANCH   2   3
HETATM    3  S   UNL     1      -6.566  19.883  68.882  1.00  0.00    -0.323 S  
HETATM    4  O   UNL     1      -6.717  21.071  68.064  1.00  0.00    -0.296 OA 
HETATM    5  O   UNL     1      -7.658  19.399  69.702  1.00  0.00    -0.119 OA 
BRANCH   3   6
HETATM    6  C   UNL     1      -6.084  18.561  67.796  1.00  0.00    -0.189 C  
BRANCH   6   7
HETATM    7  C   UNL     1      -7.318  17.973  67.131  1.00  0.00    -0.195 C  
BRANCH   7   8
HETATM    8  N   UNL     1      -7.620  16.631  67.605  1.00  0.00    -0.149 NA 
HETATM    9  C   UNL     1      -6.845  15.912  68.504  1.00  0.00    -0.124 A  
HETATM   10  N   UNL     1      -7.327  14.695  68.670  1.00  0.00    -0.118 NA 
HETATM   11  C   UNL     1      -5.629  16.424  69.193  1.00  0.00    -0.124 C  
HETATM   12  C   UNL     1      -8.446  14.614  67.888  1.00  0.00    -0.158 A  
HETATM   13  C   UNL     1      -8.659  15.805  67.244  1.00  0.00    -0.188 A  
HETATM   14  N   UNL     1      -9.751  16.138  66.395  1.00  0.00    -0.266 N  
HETATM   15  O   UNL     1      -9.854  17.312  66.025  1.00  0.00    -0.435 OA 
HETATM   16  O   UNL     1     -10.541  15.226  66.126  1.00  0.00    -0.294 OA 
ENDBRANCH   7   8
ENDBRANCH   6   7
ENDBRANCH   3   6
ENDBRANCH   2   3
TORSDOF 4
ENDMDL
MODEL      265
REMARK 921   NORMALIZED FREE ENERGY PREDICTED BY IDOCK:   -1.70 KCAL/MOL
REMARK 922        TOTAL FREE ENERGY PREDICTED BY IDOCK:   -2.51 KCAL/MOL
REMARK 923 INTER-LIGAND FREE ENERGY PREDICTED BY IDOCK:   -2.22 KCAL/MOL
REMARK 924 INTRA-LIGAND FREE ENERGY PREDICTED BY IDOCK:   -0.29 KCAL/MOL
REMARK 927      BINDING AFFINITY PREDICTED BY RF-SCORE:    0.00 PKD
ROOT
HETATM    1  C   UNL     1      -7.547   3.323  71.576  1.00  0.00    -0.048 C  
HETATM    2  C   UNL     1      -8.446   3.237  70.357  1.00  0.00    -0.056 C  
ENDROOT
BRANCH   2   3
HETATM    3  S   UNL     1      -7.695   4.010  68.932  1.00  0.00    -0.053 S  
HETATM    4  O   UNL     1      -7.734   3.065  67.833  1.00  0.00    -0.057 OA 
HETATM    5  O   UNL     1      -6.448   4.622  69.347  1.00  0.00    -0.033 OA 
BRANCH   3   6
HETATM    6  C   UNL     1      -8.827   5.321  68.532  1.00  0.00    -0.097 C  
BRANCH   6   7
HETATM    7  C   UNL     1      -8.104   6.656  68.596  1.00  0.00    -0.119 C  
BRANCH   7   8
HETATM    8  N   UNL     1      -9.001   7.763  68.887  1.00  0.00    -0.142 NA 
HETATM    9  C   UNL     1      -9.849   8.363  67.965  1.00  0.00    -0.169 A  
HETATM   10  N   UNL     1     -10.470   9.395  68.502  1.00  0.00    -0.206 NA 
HETATM   11  C   UNL     1     -10.039   7.920  66.556  1.00  0.00    -0.246 C  
HETATM   12  C   UNL     1     -10.047   9.467  69.800  1.00  0.00    -0.216 A  
HETATM   13  C   UNL     1      -9.162   8.454  70.065  1.00  0.00    -0.158 A  
HETATM   14  N   UNL     1      -8.550   8.154  71.314  1.00  0.00    -0.128 N  
HETATM   15  O   UNL     1      -7.896   7.109  71.396  1.00  0.00    -0.095 OA 
HETATM   16  O   UNL     1      -8.758   8.949  72.237  1.00  0.00    -0.395 OA 
ENDBRANCH   7   8
ENDBRANCH   6   7
ENDBRANCH   3   6
ENDBRANCH   2   3
TORSDOF 4
ENDMDL
MODEL      266
REMARK 921   NORMALIZED FREE ENERGY PREDICTED BY IDOCK:   -1.68 KCAL/MOL
REMARK 922        TOTAL FREE ENERGY PREDICTED BY IDOCK:   -2.49 KCAL/MOL
REMARK 923 INTER-LIGAND FREE ENERGY PREDICTED BY IDOCK:   -2.75 KCAL/MOL
REMARK 924 INTRA-LIGAND FREE ENERGY PREDICTED BY IDOCK:    0.26 KCAL/MOL
REMARK 927      BINDING AFFINITY PREDICTED BY RF-SCORE:    0.00 PKD
ROOT
HETATM    1  C   UNL     1      -9.687  10.123  64.685  1.00  0.00    -0.377 C  
HETATM    2  C   UNL     1      -9.459  10.647  66.090  1.00  0.00    -0.179 C  
ENDROOT
BRANCH   2   3
HETATM    3  S   UNL     1     -10.990  11.156  66.857  1.00  0.00    -0.240 S  
HETATM    4  O   UNL     1     -11.223  10.305  68.007  1.00  0.00    -0.293 OA 
HETATM    5  O   UNL     1     -11.994  11.304  65.823  1.00  0.00     0.133 OA 
BRANCH   3   6
HETATM    6  C   UNL     1     -10.618  12.779  67.479  1.00  0.00    -0.229 C  
BRANCH   6   7
HETATM    7  C   UNL     1      -9.525  13.410  66.633  1.00  0.00    -0.260 C  
BRANCH   7   8
HETATM    8  N   UNL     1      -8.665  14.296  67.404  1.00  0.00    -0.197 NA 
HETATM    9  C   UNL     1      -9.089  15.445  68.058  1.00  0.00    -0.175 A  
HETATM   10  N   UNL     1      -8.067  16.083  68.593  1.00  0.00    -0.175 NA 
HETATM   11  C   UNL     1     -10.500  15.911  68.149  1.00  0.00    -0.270 C  
HETATM   12  C   UNL     1      -6.956  15.339  68.309  1.00  0.00    -0.117 A  
HETATM   13  C   UNL     1      -7.306  14.219  67.600  1.00  0.00    -0.176 A  
HETATM   14  N   UNL     1      -6.446  13.169  67.174  1.00  0.00     0.102 N  
HETATM   15  O   UNL     1      -6.967  12.166  66.677  1.00  0.00     0.028 OA 
HETATM   16  O   UNL     1      -5.237  13.328  67.376  1.00  0.00    -0.324 OA 
ENDBRANCH   7   8
ENDBRANCH   6   7
ENDBRANCH   3   6
ENDBRANCH   2   3
TORSDOF 4
ENDMDL
MODEL      267
REMARK 921   NORMALIZED FREE ENERGY PREDICTED BY IDOCK:   -1.59 KCAL/MOL
REMARK 922        TOTAL FREE ENERGY PREDICTED BY IDOCK:   -2.37 KCAL/MOL
REMARK 923 INTER-LIGAND FREE ENERGY PREDICTED BY IDOCK:   -2.14 KCAL/MOL
REMARK 924 INTRA-LIGAND FREE ENERGY PREDICTED BY IDOCK:   -0.23 KCAL/MOL
REMARK 927      BINDING AFFINITY PREDICTED BY RF-SCORE:    0.00 PKD
ROOT
HETATM    1  C   UNL     1     -10.591   6.420  72.552  1.00  0.00    -0.240 C  
HETATM    2  C   UNL     1     -10.798   6.682  71.073  1.00  0.00    -0.245 C  
ENDROOT
BRANCH   2   3
HETATM    3  S   UNL     1      -9.244   6.759  70.196  1.00  0.00    -0.155 S  
HETATM    4  O   UNL     1      -8.228   6.134  71.020  1.00  0.00    -0.119 OA 
HETATM    5  O   UNL     1      -9.069   8.107  69.691  1.00  0.00    -0.150 OA 
BRANCH   3   6
HETATM    6  C   UNL     1      -9.508   5.694  68.798  1.00  0.00    -0.126 C  
BRANCH   6   7
HETATM    7  C   UNL     1      -8.168   5.265  68.224  1.00  0.00    -0.094 C  
BRANCH   7   8
HETATM    8  N   UNL     1      -8.271   4.812  66.845  1.00  0.00    -0.107 NA 
HETATM    9  C   UNL     1      -8.539   3.507  66.455  1.00  0.00    -0.117 A  
HETATM   10  N   UNL     1      -8.480   3.389  65.143  1.00  0.00    -0.098 NA 
HETATM   11  C   UNL     1      -8.848   2.379  67.377  1.00  0.00    -0.160 C  
HETATM   12  C   UNL     1      -8.191   4.633  64.656  1.00  0.00    -0.113 A  
HETATM   13  C   UNL     1      -8.084   5.530  65.687  1.00  0.00    -0.118 A  
HETATM   14  N   UNL     1      -7.856   6.931  65.587  1.00  0.00    -0.102 N  
HETATM   15  O   UNL     1      -7.942   7.603  66.620  1.00  0.00    -0.103 OA 
HETATM   16  O   UNL     1      -7.629   7.374  64.456  1.00  0.00    -0.094 OA 
ENDBRANCH   7   8
ENDBRANCH   6   7
ENDBRANCH   3   6
ENDBRANCH   2   3
TORSDOF 4
ENDMDL
MODEL      268
REMARK 921   NORMALIZED FREE ENERGY PREDICTED BY IDOCK:   -1.58 KCAL/MOL
REMARK 922        TOTAL FREE ENERGY PREDICTED BY IDOCK:   -2.36 KCAL/MOL
REMARK 923 INTER-LIGAND FREE ENERGY PREDICTED BY IDOCK:   -2.52 KCAL/MOL
REMARK 924 INTRA-LIGAND FREE ENERGY PREDICTED BY IDOCK:    0.16 KCAL/MOL
REMARK 927      BINDING AFFINITY PREDICTED BY RF-SCORE:    0.00 PKD
ROOT
HETATM    1  C   UNL     1      -7.301   3.525  73.050  1.00  0.00    -0.055 C  
HETATM    2  C   UNL     1      -8.585   4.198  72.602  1.00  0.00    -0.104 C  
ENDROOT
BRANCH   2   3
HETATM    3  S   UNL     1      -9.009   3.752  70.926  1.00  0.00    -0.102 S  
HETATM    4  O   UNL     1      -9.899   2.608  70.974  1.00  0.00    -0.130 OA 
HETATM    5  O   UNL     1      -7.792   3.718  70.138  1.00  0.00    -0.048 OA 
BRANCH   3   6
HETATM    6  C   UNL     1      -9.971   5.136  70.364  1.00  0.00    -0.246 C  
BRANCH   6   7
HETATM    7  C   UNL     1      -9.046   6.216  69.827  1.00  0.00    -0.141 C  
BRANCH   7   8
HETATM    8  N   UNL     1      -9.709   7.505  69.698  1.00  0.00    -0.167 NA 
HETATM    9  C   UNL     1     -10.447   8.123  70.698  1.00  0.00    -0.210 A  
HETATM   10  N   UNL     1     -10.998   9.236  70.254  1.00  0.00    -0.238 NA 
HETATM   11  C   UNL     1     -10.610   7.612  72.087  1.00  0.00    -0.281 C  
HETATM   12  C   UNL     1     -10.604   9.368  68.951  1.00  0.00    -0.208 A  
HETATM   13  C   UNL     1      -9.787   8.326  68.597  1.00  0.00    -0.176 A  
HETATM   14  N   UNL     1      -9.125   8.139  67.352  1.00  0.00    -0.133 N  
HETATM   15  O   UNL     1      -8.308   7.216  67.268  1.00  0.00    -0.117 OA 
HETATM   16  O   UNL     1      -9.392   8.948  66.456  1.00  0.00    -0.165 OA 
ENDBRANCH   7   8
ENDBRANCH   6   7
ENDBRANCH   3   6
ENDBRANCH   2   3
TORSDOF 4
ENDMDL
MODEL      269
REMARK 921   NORMALIZED FREE ENERGY PREDICTED BY IDOCK:   -1.43 KCAL/MOL
REMARK 922        TOTAL FREE ENERGY PREDICTED BY IDOCK:   -2.18 KCAL/MOL
REMARK 923 INTER-LIGAND FREE ENERGY PREDICTED BY IDOCK:   -2.64 KCAL/MOL
REMARK 924 INTRA-LIGAND FREE ENERGY PREDICTED BY IDOCK:    0.46 KCAL/MOL
REMARK 927      BINDING AFFINITY PREDICTED BY RF-SCORE:    0.00 PKD
ROOT
HETATM    1  C   UNL     1      -9.715   6.594  66.674  1.00  0.00    -0.210 C  
HETATM    2  C   UNL     1     -10.699   7.585  67.264  1.00  0.00    -0.295 C  
ENDROOT
BRANCH   2   3
HETATM    3  S   UNL     1      -9.864   8.994  67.977  1.00  0.00    -0.174 S  
HETATM    4  O   UNL     1     -10.664  10.174  67.716  1.00  0.00    -0.237 OA 
HETATM    5  O   UNL     1      -8.467   8.940  67.595  1.00  0.00    -0.120 OA 
BRANCH   3   6
HETATM    6  C   UNL     1      -9.953   8.682  69.725  1.00  0.00    -0.190 C  
BRANCH   6   7
HETATM    7  C   UNL     1      -8.755   7.852  70.156  1.00  0.00    -0.136 C  
BRANCH   7   8
HETATM    8  N   UNL     1      -8.934   6.433  69.886  1.00  0.00    -0.142 NA 
HETATM    9  C   UNL     1     -10.064   5.697  70.217  1.00  0.00    -0.222 A  
HETATM   10  N   UNL     1      -9.893   4.422  69.926  1.00  0.00    -0.221 NA 
HETATM   11  C   UNL     1     -11.305   6.252  70.823  1.00  0.00    -0.397 C  
HETATM   12  C   UNL     1      -8.646   4.314  69.377  1.00  0.00    -0.080 A  
HETATM   13  C   UNL     1      -8.048   5.547  69.319  1.00  0.00    -0.095 A  
HETATM   14  N   UNL     1      -6.779   5.860  68.757  1.00  0.00    -0.061 N  
HETATM   15  O   UNL     1      -6.472   7.052  68.659  1.00  0.00    -0.033 OA 
HETATM   16  O   UNL     1      -6.095   4.906  68.371  1.00  0.00    -0.028 OA 
ENDBRANCH   7   8
ENDBRANCH   6   7
ENDBRANCH   3   6
ENDBRANCH   2   3
TORSDOF 4
ENDMDL
