MODEL        1
REMARK 921   NORMALIZED FREE ENERGY PREDICTED BY IDOCK:   -6.34 KCAL/MOL
REMARK 922        TOTAL FREE ENERGY PREDICTED BY IDOCK:   -9.61 KCAL/MOL
REMARK 923 INTER-LIGAND FREE ENERGY PREDICTED BY IDOCK:   -8.56 KCAL/MOL
REMARK 924 INTRA-LIGAND FREE ENERGY PREDICTED BY IDOCK:   -1.04 KCAL/MOL
REMARK 927      BINDING AFFINITY PREDICTED BY RF-SCORE:    0.00 PKD
ROOT
HETATM    1 CL   UNL     1      -7.192  18.225  68.718  1.00  0.00    -0.286 Cl 
HETATM    2  C   UNL     1      -8.594  18.738  67.857  1.00  0.00    -0.296 A  
HETATM    3  C   UNL     1      -9.899  18.375  68.104  1.00  0.00    -0.365 A  
HETATM    4  C   UNL     1     -10.773  19.062  67.186  1.00  0.00    -0.541 A  
HETATM    5  S   UNL     1      -8.403  19.820  66.569  1.00  0.00    -0.351 SA 
HETATM    6  C   UNL     1     -10.091  19.869  66.299  1.00  0.00    -0.502 A  
ENDROOT
BRANCH   3   7
HETATM    7  C   UNL     1     -10.354  17.449  69.195  1.00  0.00    -0.271 C  
BRANCH   7   8
HETATM    8  O   UNL     1     -10.003  16.099  68.897  1.00  0.00    -0.212 OA 
BRANCH   8   9
HETATM    9  C   UNL     1     -11.068  15.131  68.987  1.00  0.00    -0.255 C  
BRANCH   9  10
HETATM   10  C   UNL     1     -11.305  14.530  67.592  1.00  0.00    -0.354 A  
HETATM   11  C   UNL     1     -11.339  14.822  65.156  1.00  0.00    -0.379 A  
HETATM   12  C   UNL     1     -11.741  13.205  67.389  1.00  0.00    -0.370 A  
HETATM   13  C   UNL     1     -11.087  15.315  66.440  1.00  0.00    -0.273 A  
HETATM   14 CL   UNL     1     -11.909  12.072  68.686  1.00  0.00    -0.372 Cl 
HETATM   15 CL   UNL     1     -12.175  12.937  63.421  1.00  0.00    -0.613 Cl 
HETATM   16  C   UNL     1     -12.030  12.721  66.106  1.00  0.00    -0.476 A  
HETATM   17  C   UNL     1     -11.830  13.534  64.997  1.00  0.00    -0.353 A  
ENDBRANCH   9  10
BRANCH   9  18
HETATM   18  C   UNL     1     -12.334  15.759  69.623  1.00  0.00    -0.091 C  
BRANCH  18  19
HETATM   19  N   UNL     1     -12.605  15.325  70.977  1.00  0.00    -0.371 NA 
HETATM   20  N   UNL     1     -13.338  14.047  72.631  1.00  0.00    -0.527 NA 
HETATM   21  C   UNL     1     -12.115  15.878  72.125  1.00  0.00    -0.506 A  
HETATM   22  C   UNL     1     -12.585  15.074  73.136  1.00  0.00    -0.469 A  
HETATM   23  C   UNL     1     -13.326  14.217  71.330  1.00  0.00    -0.331 A  
ENDBRANCH  18  19
ENDBRANCH   9  18
ENDBRANCH   8   9
ENDBRANCH   7   8
ENDBRANCH   3   7
TORSDOF 6
ENDMDL
MODEL        2
REMARK 921   NORMALIZED FREE ENERGY PREDICTED BY IDOCK:   -6.29 KCAL/MOL
REMARK 922        TOTAL FREE ENERGY PREDICTED BY IDOCK:   -9.54 KCAL/MOL
REMARK 923 INTER-LIGAND FREE ENERGY PREDICTED BY IDOCK:   -8.68 KCAL/MOL
REMARK 924 INTRA-LIGAND FREE ENERGY PREDICTED BY IDOCK:   -0.86 KCAL/MOL
REMARK 927      BINDING AFFINITY PREDICTED BY RF-SCORE:    0.00 PKD
ROOT
HETATM    1 CL   UNL     1     -12.570  11.445  71.073  1.00  0.00    -0.501 Cl 
HETATM    2  C   UNL     1     -12.744  13.158  71.122  1.00  0.00    -0.300 A  
HETATM    3  C   UNL     1     -12.401  14.056  70.134  1.00  0.00    -0.409 A  
HETATM    4  C   UNL     1     -12.752  15.390  70.553  1.00  0.00    -0.455 A  
HETATM    5  S   UNL     1     -13.419  13.866  72.504  1.00  0.00    -0.562 SA 
HETATM    6  C   UNL     1     -13.303  15.428  71.816  1.00  0.00    -0.476 A  
ENDROOT
BRANCH   3   7
HETATM    7  C   UNL     1     -11.806  13.701  68.803  1.00  0.00    -0.360 C  
BRANCH   7   8
HETATM    8  O   UNL     1     -11.765  14.839  67.943  1.00  0.00    -0.342 OA 
BRANCH   8   9
HETATM    9  C   UNL     1     -10.590  14.969  67.118  1.00  0.00    -0.295 C  
BRANCH   9  10
HETATM   10  C   UNL     1      -9.734  16.126  67.658  1.00  0.00    -0.233 A  
HETATM   11  C   UNL     1      -9.613  18.393  68.589  1.00  0.00    -0.363 A  
HETATM   12  C   UNL     1      -8.326  16.085  67.705  1.00  0.00    -0.150 A  
HETATM   13  C   UNL     1     -10.357  17.299  68.137  1.00  0.00    -0.357 A  
HETATM   14 CL   UNL     1      -7.422  14.667  67.298  1.00  0.00    -0.202 Cl 
HETATM   15 CL   UNL     1      -7.309  19.701  69.083  1.00  0.00    -0.381 Cl 
HETATM   16  C   UNL     1      -7.579  17.194  68.124  1.00  0.00    -0.208 A  
HETATM   17  C   UNL     1      -8.227  18.343  68.560  1.00  0.00    -0.318 A  
ENDBRANCH   9  10
BRANCH   9  18
HETATM   18  C   UNL     1     -10.975  15.118  65.625  1.00  0.00    -0.355 C  
BRANCH  18  19
HETATM   19  N   UNL     1     -11.571  13.938  65.035  1.00  0.00    -0.331 NA 
HETATM   20  N   UNL     1     -13.132  12.468  64.478  1.00  0.00    -0.839 NA 
HETATM   21  C   UNL     1     -10.983  13.082  64.149  1.00  0.00    -0.408 A  
HETATM   22  C   UNL     1     -11.965  12.178  63.822  1.00  0.00    -0.513 A  
HETATM   23  C   UNL     1     -12.870  13.536  65.194  1.00  0.00    -0.322 A  
ENDBRANCH  18  19
ENDBRANCH   9  18
ENDBRANCH   8   9
ENDBRANCH   7   8
ENDBRANCH   3   7
TORSDOF 6
ENDMDL
MODEL        3
REMARK 921   NORMALIZED FREE ENERGY PREDICTED BY IDOCK:   -6.19 KCAL/MOL
REMARK 922        TOTAL FREE ENERGY PREDICTED BY IDOCK:   -9.40 KCAL/MOL
REMARK 923 INTER-LIGAND FREE ENERGY PREDICTED BY IDOCK:   -8.54 KCAL/MOL
REMARK 924 INTRA-LIGAND FREE ENERGY PREDICTED BY IDOCK:   -0.87 KCAL/MOL
REMARK 927      BINDING AFFINITY PREDICTED BY RF-SCORE:    0.00 PKD
ROOT
HETATM    1 CL   UNL     1     -12.805  11.351  71.339  1.00  0.00    -0.525 Cl 
HETATM    2  C   UNL     1     -12.886  13.068  71.237  1.00  0.00    -0.281 A  
HETATM    3  C   UNL     1     -12.204  13.881  70.358  1.00  0.00    -0.438 A  
HETATM    4  C   UNL     1     -12.590  15.253  70.573  1.00  0.00    -0.450 A  
HETATM    5  S   UNL     1     -13.913  13.896  72.299  1.00  0.00    -0.540 SA 
HETATM    6  C   UNL     1     -13.501  15.401  71.597  1.00  0.00    -0.502 A  
ENDROOT
BRANCH   3   7
HETATM    7  C   UNL     1     -11.249  13.412  69.301  1.00  0.00    -0.219 C  
BRANCH   7   8
HETATM    8  O   UNL     1     -11.898  13.311  68.034  1.00  0.00    -0.340 OA 
BRANCH   8   9
HETATM    9  C   UNL     1     -11.292  14.041  66.950  1.00  0.00    -0.329 C  
BRANCH   9  10
HETATM   10  C   UNL     1     -10.864  13.043  65.862  1.00  0.00    -0.291 A  
HETATM   11  C   UNL     1      -9.579  11.051  65.227  1.00  0.00    -0.270 A  
HETATM   12  C   UNL     1     -11.263  13.153  64.515  1.00  0.00    -0.354 A  
HETATM   13  C   UNL     1     -10.032  11.952  66.195  1.00  0.00    -0.254 A  
HETATM   14 CL   UNL     1     -12.399  14.341  63.976  1.00  0.00    -0.408 Cl 
HETATM   15 CL   UNL     1      -9.355  10.141  62.700  1.00  0.00    -0.318 Cl 
HETATM   16  C   UNL     1     -10.780  12.273  63.537  1.00  0.00    -0.497 A  
HETATM   17  C   UNL     1      -9.938  11.228  63.899  1.00  0.00    -0.321 A  
ENDBRANCH   9  10
BRANCH   9  18
HETATM   18  C   UNL     1     -10.140  14.941  67.463  1.00  0.00    -0.228 C  
BRANCH  18  19
HETATM   19  N   UNL     1     -10.251  16.334  67.088  1.00  0.00    -0.271 NA 
HETATM   20  N   UNL     1     -10.475  18.115  65.790  1.00  0.00    -0.613 NA 
HETATM   21  C   UNL     1     -10.424  17.395  67.931  1.00  0.00    -0.383 A  
HETATM   22  C   UNL     1     -10.555  18.486  67.105  1.00  0.00    -0.398 A  
HETATM   23  C   UNL     1     -10.301  16.814  65.808  1.00  0.00    -0.305 A  
ENDBRANCH  18  19
ENDBRANCH   9  18
ENDBRANCH   8   9
ENDBRANCH   7   8
ENDBRANCH   3   7
TORSDOF 6
ENDMDL
MODEL        4
REMARK 921   NORMALIZED FREE ENERGY PREDICTED BY IDOCK:   -6.15 KCAL/MOL
REMARK 922        TOTAL FREE ENERGY PREDICTED BY IDOCK:   -9.35 KCAL/MOL
REMARK 923 INTER-LIGAND FREE ENERGY PREDICTED BY IDOCK:   -8.49 KCAL/MOL
REMARK 924 INTRA-LIGAND FREE ENERGY PREDICTED BY IDOCK:   -0.86 KCAL/MOL
REMARK 927      BINDING AFFINITY PREDICTED BY RF-SCORE:    0.00 PKD
ROOT
HETATM    1 CL   UNL     1     -12.445  13.717  66.292  1.00  0.00    -0.452 Cl 
HETATM    2  C   UNL     1     -11.557  12.588  65.341  1.00  0.00    -0.375 A  
HETATM    3  C   UNL     1     -10.787  11.541  65.798  1.00  0.00    -0.319 A  
HETATM    4  C   UNL     1     -10.252  10.811  64.677  1.00  0.00    -0.419 A  
HETATM    5  S   UNL     1     -11.614  12.726  63.655  1.00  0.00    -0.504 SA 
HETATM    6  C   UNL     1     -10.616  11.351  63.462  1.00  0.00    -0.402 A  
ENDROOT
BRANCH   3   7
HETATM    7  C   UNL     1     -10.580  11.177  67.240  1.00  0.00    -0.239 C  
BRANCH   7   8
HETATM    8  O   UNL     1     -11.822  11.141  67.941  1.00  0.00    -0.601 OA 
BRANCH   8   9
HETATM    9  C   UNL     1     -11.761  10.727  69.320  1.00  0.00    -0.303 C  
BRANCH   9  10
HETATM   10  C   UNL     1     -12.274  11.876  70.203  1.00  0.00    -0.319 A  
HETATM   11  C   UNL     1     -12.431  14.287  70.631  1.00  0.00    -0.428 A  
HETATM   12  C   UNL     1     -12.998  11.667  71.394  1.00  0.00    -0.324 A  
HETATM   13  C   UNL     1     -12.026  13.215  69.831  1.00  0.00    -0.387 A  
HETATM   14 CL   UNL     1     -13.513  10.098  71.907  1.00  0.00    -0.460 Cl 
HETATM   15 CL   UNL     1     -13.553  15.358  72.835  1.00  0.00    -0.601 Cl 
HETATM   16  C   UNL     1     -13.372  12.739  72.216  1.00  0.00    -0.563 A  
HETATM   17  C   UNL     1     -13.084  14.043  71.831  1.00  0.00    -0.386 A  
ENDBRANCH   9  10
BRANCH   9  18
HETATM   18  C   UNL     1     -10.337  10.240  69.689  1.00  0.00    -0.248 C  
BRANCH  18  19
HETATM   19  N   UNL     1     -10.299   8.992  70.422  1.00  0.00    -0.199 NA 
HETATM   20  N   UNL     1     -10.018   7.600  72.121  1.00  0.00    -0.176 NA 
HETATM   21  C   UNL     1     -10.773   7.783  70.000  1.00  0.00    -0.244 A  
HETATM   22  C   UNL     1     -10.585   6.936  71.066  1.00  0.00    -0.220 A  
HETATM   23  C   UNL     1      -9.865   8.836  71.710  1.00  0.00    -0.321 A  
ENDBRANCH  18  19
ENDBRANCH   9  18
ENDBRANCH   8   9
ENDBRANCH   7   8
ENDBRANCH   3   7
TORSDOF 6
ENDMDL
MODEL        5
REMARK 921   NORMALIZED FREE ENERGY PREDICTED BY IDOCK:   -6.15 KCAL/MOL
REMARK 922        TOTAL FREE ENERGY PREDICTED BY IDOCK:   -9.35 KCAL/MOL
REMARK 923 INTER-LIGAND FREE ENERGY PREDICTED BY IDOCK:   -8.47 KCAL/MOL
REMARK 924 INTRA-LIGAND FREE ENERGY PREDICTED BY IDOCK:   -0.88 KCAL/MOL
REMARK 927      BINDING AFFINITY PREDICTED BY RF-SCORE:    0.00 PKD
ROOT
HETATM    1 CL   UNL     1     -10.136  10.385  64.243  1.00  0.00    -0.378 Cl 
HETATM    2  C   UNL     1     -11.075  11.722  64.788  1.00  0.00    -0.296 A  
HETATM    3  C   UNL     1     -11.387  12.041  66.092  1.00  0.00    -0.407 A  
HETATM    4  C   UNL     1     -12.152  13.262  66.119  1.00  0.00    -0.477 A  
HETATM    5  S   UNL     1     -11.694  12.801  63.640  1.00  0.00    -0.533 SA 
HETATM    6  C   UNL     1     -12.394  13.772  64.861  1.00  0.00    -0.405 A  
ENDROOT
BRANCH   3   7
HETATM    7  C   UNL     1     -10.951  11.272  67.305  1.00  0.00    -0.286 C  
BRANCH   7   8
HETATM    8  O   UNL     1     -12.064  10.975  68.147  1.00  0.00    -0.610 OA 
BRANCH   8   9
HETATM    9  C   UNL     1     -11.763  10.743  69.538  1.00  0.00    -0.312 C  
BRANCH   9  10
HETATM   10  C   UNL     1     -12.278  11.936  70.359  1.00  0.00    -0.399 A  
HETATM   11  C   UNL     1     -12.432  14.366  70.664  1.00  0.00    -0.419 A  
HETATM   12  C   UNL     1     -13.006  11.789  71.556  1.00  0.00    -0.341 A  
HETATM   13  C   UNL     1     -12.025  13.254  69.920  1.00  0.00    -0.400 A  
HETATM   14 CL   UNL     1     -13.526  10.249  72.146  1.00  0.00    -0.440 Cl 
HETATM   15 CL   UNL     1     -13.561  15.549  72.806  1.00  0.00    -0.621 Cl 
HETATM   16  C   UNL     1     -13.382  12.902  72.321  1.00  0.00    -0.597 A  
HETATM   17  C   UNL     1     -13.090  14.184  71.872  1.00  0.00    -0.375 A  
ENDBRANCH   9  10
BRANCH   9  18
HETATM   18  C   UNL     1     -10.255  10.449  69.736  1.00  0.00    -0.184 C  
BRANCH  18  19
HETATM   19  N   UNL     1      -9.969   9.224  70.452  1.00  0.00    -0.219 NA 
HETATM   20  N   UNL     1      -8.878   7.783  71.733  1.00  0.00    -0.115 NA 
HETATM   21  C   UNL     1     -10.828   8.184  70.666  1.00  0.00    -0.233 A  
HETATM   22  C   UNL     1     -10.130   7.303  71.457  1.00  0.00    -0.186 A  
HETATM   23  C   UNL     1      -8.811   8.944  71.125  1.00  0.00    -0.237 A  
ENDBRANCH  18  19
ENDBRANCH   9  18
ENDBRANCH   8   9
ENDBRANCH   7   8
ENDBRANCH   3   7
TORSDOF 6
ENDMDL
MODEL        6
REMARK 921   NORMALIZED FREE ENERGY PREDICTED BY IDOCK:   -6.11 KCAL/MOL
REMARK 922        TOTAL FREE ENERGY PREDICTED BY IDOCK:   -9.29 KCAL/MOL
REMARK 923 INTER-LIGAND FREE ENERGY PREDICTED BY IDOCK:   -8.52 KCAL/MOL
REMARK 924 INTRA-LIGAND FREE ENERGY PREDICTED BY IDOCK:   -0.77 KCAL/MOL
REMARK 927      BINDING AFFINITY PREDICTED BY RF-SCORE:    0.00 PKD
ROOT
HETATM    1 CL   UNL     1     -12.854  11.270  71.455  1.00  0.00    -0.526 Cl 
HETATM    2  C   UNL     1     -12.832  12.976  71.215  1.00  0.00    -0.281 A  
HETATM    3  C   UNL     1     -12.280  13.659  70.153  1.00  0.00    -0.413 A  
HETATM    4  C   UNL     1     -12.517  15.071  70.312  1.00  0.00    -0.385 A  
HETATM    5  S   UNL     1     -13.569  13.968  72.373  1.00  0.00    -0.585 SA 
HETATM    6  C   UNL     1     -13.197  15.373  71.473  1.00  0.00    -0.490 A  
ENDROOT
BRANCH   3   7
HETATM    7  C   UNL     1     -11.587  13.030  68.980  1.00  0.00    -0.318 C  
BRANCH   7   8
HETATM    8  O   UNL     1     -10.546  13.874  68.490  1.00  0.00    -0.241 OA 
BRANCH   8   9
HETATM    9  C   UNL     1     -10.720  14.386  67.154  1.00  0.00    -0.283 C  
BRANCH   9  10
HETATM   10  C   UNL     1     -10.445  15.899  67.167  1.00  0.00    -0.313 A  
HETATM   11  C   UNL     1      -9.801  17.906  68.423  1.00  0.00    -0.355 A  
HETATM   12  C   UNL     1     -10.601  16.719  66.032  1.00  0.00    -0.228 A  
HETATM   13  C   UNL     1     -10.014  16.526  68.356  1.00  0.00    -0.250 A  
HETATM   14 CL   UNL     1     -10.975  16.083  64.468  1.00  0.00    -0.330 Cl 
HETATM   15 CL   UNL     1      -9.801  20.396  67.392  1.00  0.00    -0.586 Cl 
HETATM   16  C   UNL     1     -10.424  18.108  66.107  1.00  0.00    -0.377 A  
HETATM   17  C   UNL     1     -10.029  18.694  67.303  1.00  0.00    -0.329 A  
ENDBRANCH   9  10
BRANCH   9  18
HETATM   18  C   UNL     1     -12.114  14.008  66.593  1.00  0.00    -0.456 C  
BRANCH  18  19
HETATM   19  N   UNL     1     -12.082  13.110  65.458  1.00  0.00    -0.415 NA 
HETATM   20  N   UNL     1     -12.745  12.102  63.600  1.00  0.00    -0.754 NA 
HETATM   21  C   UNL     1     -11.015  12.374  65.029  1.00  0.00    -0.298 A  
HETATM   22  C   UNL     1     -11.450  11.755  63.881  1.00  0.00    -0.393 A  
HETATM   23  C   UNL     1     -13.097  12.925  64.560  1.00  0.00     0.083 A  
ENDBRANCH  18  19
ENDBRANCH   9  18
ENDBRANCH   8   9
ENDBRANCH   7   8
ENDBRANCH   3   7
TORSDOF 6
ENDMDL
MODEL        7
REMARK 921   NORMALIZED FREE ENERGY PREDICTED BY IDOCK:   -6.10 KCAL/MOL
REMARK 922        TOTAL FREE ENERGY PREDICTED BY IDOCK:   -9.29 KCAL/MOL
REMARK 923 INTER-LIGAND FREE ENERGY PREDICTED BY IDOCK:   -8.24 KCAL/MOL
REMARK 924 INTRA-LIGAND FREE ENERGY PREDICTED BY IDOCK:   -1.04 KCAL/MOL
REMARK 927      BINDING AFFINITY PREDICTED BY RF-SCORE:    0.00 PKD
ROOT
HETATM    1 CL   UNL     1      -7.446   9.457  70.057  1.00  0.00    -0.091 Cl 
HETATM    2  C   UNL     1      -9.086   9.327  70.569  1.00  0.00    -0.259 A  
HETATM    3  C   UNL     1     -10.198   9.832  69.932  1.00  0.00    -0.291 A  
HETATM    4  C   UNL     1     -11.382   9.463  70.664  1.00  0.00    -0.352 A  
HETATM    5  S   UNL     1      -9.425   8.480  71.996  1.00  0.00    -0.311 SA 
HETATM    6  C   UNL     1     -11.105   8.737  71.803  1.00  0.00    -0.347 A  
ENDROOT
BRANCH   3   7
HETATM    7  C   UNL     1     -10.188  10.602  68.643  1.00  0.00    -0.182 C  
BRANCH   7   8
HETATM    8  O   UNL     1      -9.964  11.992  68.881  1.00  0.00    -0.117 OA 
BRANCH   8   9
HETATM    9  C   UNL     1     -10.931  12.896  68.311  1.00  0.00    -0.256 C  
BRANCH   9  10
HETATM   10  C   UNL     1     -11.623  13.660  69.452  1.00  0.00    -0.368 A  
HETATM   11  C   UNL     1     -12.857  13.604  71.572  1.00  0.00    -0.445 A  
HETATM   12  C   UNL     1     -11.741  15.064  69.478  1.00  0.00    -0.322 A  
HETATM   13  C   UNL     1     -12.176  12.951  70.540  1.00  0.00    -0.395 A  
HETATM   14 CL   UNL     1     -10.988  16.083  68.300  1.00  0.00    -0.321 Cl 
HETATM   15 CL   UNL     1     -13.880  15.785  72.781  1.00  0.00    -0.655 Cl 
HETATM   16  C   UNL     1     -12.456  15.716  70.492  1.00  0.00    -0.440 A  
HETATM   17  C   UNL     1     -13.013  14.982  71.531  1.00  0.00    -0.358 A  
ENDBRANCH   9  10
BRANCH   9  18
HETATM   18  C   UNL     1     -11.911  12.143  67.377  1.00  0.00    -0.227 C  
BRANCH  18  19
HETATM   19  N   UNL     1     -12.067  12.735  66.065  1.00  0.00    -0.522 NA 
HETATM   20  N   UNL     1     -12.579  14.241  64.523  1.00  0.00    -0.677 NA 
HETATM   21  C   UNL     1     -11.577  12.249  64.887  1.00  0.00    -0.342 A  
HETATM   22  C   UNL     1     -11.910  13.195  63.946  1.00  0.00    -0.472 A  
HETATM   23  C   UNL     1     -12.652  13.943  65.799  1.00  0.00    -0.494 A  
ENDBRANCH  18  19
ENDBRANCH   9  18
ENDBRANCH   8   9
ENDBRANCH   7   8
ENDBRANCH   3   7
TORSDOF 6
ENDMDL
MODEL        8
REMARK 921   NORMALIZED FREE ENERGY PREDICTED BY IDOCK:   -6.09 KCAL/MOL
REMARK 922        TOTAL FREE ENERGY PREDICTED BY IDOCK:   -9.27 KCAL/MOL
REMARK 923 INTER-LIGAND FREE ENERGY PREDICTED BY IDOCK:   -8.78 KCAL/MOL
REMARK 924 INTRA-LIGAND FREE ENERGY PREDICTED BY IDOCK:   -0.49 KCAL/MOL
REMARK 927      BINDING AFFINITY PREDICTED BY RF-SCORE:    0.00 PKD
ROOT
HETATM    1 CL   UNL     1     -10.263  19.964  66.740  1.00  0.00    -0.566 Cl 
HETATM    2  C   UNL     1      -9.159  18.957  67.597  1.00  0.00    -0.283 A  
HETATM    3  C   UNL     1      -9.312  17.620  67.892  1.00  0.00    -0.268 A  
HETATM    4  C   UNL     1      -8.140  17.141  68.580  1.00  0.00    -0.264 A  
HETATM    5  S   UNL     1      -7.705  19.629  68.144  1.00  0.00    -0.309 SA 
HETATM    6  C   UNL     1      -7.199  18.128  68.786  1.00  0.00    -0.279 A  
ENDROOT
BRANCH   3   7
HETATM    7  C   UNL     1     -10.490  16.773  67.509  1.00  0.00    -0.319 C  
BRANCH   7   8
HETATM    8  O   UNL     1     -10.486  15.538  68.225  1.00  0.00    -0.234 OA 
BRANCH   8   9
HETATM    9  C   UNL     1     -11.266  14.470  67.653  1.00  0.00    -0.322 C  
BRANCH   9  10
HETATM   10  C   UNL     1     -11.665  13.497  68.774  1.00  0.00    -0.373 A  
HETATM   11  C   UNL     1     -11.892  11.185  69.567  1.00  0.00    -0.423 A  
HETATM   12  C   UNL     1     -12.204  13.920  70.006  1.00  0.00    -0.344 A  
HETATM   13  C   UNL     1     -11.496  12.107  68.593  1.00  0.00    -0.347 A  
HETATM   14 CL   UNL     1     -12.333  15.589  70.440  1.00  0.00    -0.434 Cl 
HETATM   15 CL   UNL     1     -13.000  10.502  71.927  1.00  0.00    -0.571 Cl 
HETATM   16  C   UNL     1     -12.636  12.996  70.968  1.00  0.00    -0.386 A  
HETATM   17  C   UNL     1     -12.480  11.634  70.741  1.00  0.00    -0.330 A  
ENDBRANCH   9  10
BRANCH   9  18
HETATM   18  C   UNL     1     -10.510  13.799  66.479  1.00  0.00    -0.282 C  
BRANCH  18  19
HETATM   19  N   UNL     1     -11.337  13.479  65.335  1.00  0.00    -0.287 NA 
HETATM   20  N   UNL     1     -12.569  13.794  63.521  1.00  0.00    -0.808 NA 
HETATM   21  C   UNL     1     -11.570  12.237  64.818  1.00  0.00    -0.337 A  
HETATM   22  C   UNL     1     -12.339  12.456  63.700  1.00  0.00    -0.548 A  
HETATM   23  C   UNL     1     -11.947  14.387  64.514  1.00  0.00    -0.472 A  
ENDBRANCH  18  19
ENDBRANCH   9  18
ENDBRANCH   8   9
ENDBRANCH   7   8
ENDBRANCH   3   7
TORSDOF 6
ENDMDL
MODEL        9
REMARK 921   NORMALIZED FREE ENERGY PREDICTED BY IDOCK:   -6.07 KCAL/MOL
REMARK 922        TOTAL FREE ENERGY PREDICTED BY IDOCK:   -9.24 KCAL/MOL
REMARK 923 INTER-LIGAND FREE ENERGY PREDICTED BY IDOCK:   -8.20 KCAL/MOL
REMARK 924 INTRA-LIGAND FREE ENERGY PREDICTED BY IDOCK:   -1.04 KCAL/MOL
REMARK 927      BINDING AFFINITY PREDICTED BY RF-SCORE:    0.00 PKD
ROOT
HETATM    1 CL   UNL     1     -11.997  12.325  69.771  1.00  0.00    -0.381 Cl 
HETATM    2  C   UNL     1     -12.400  13.652  70.793  1.00  0.00    -0.371 A  
HETATM    3  C   UNL     1     -11.967  14.955  70.671  1.00  0.00    -0.363 A  
HETATM    4  C   UNL     1     -12.573  15.761  71.700  1.00  0.00    -0.521 A  
HETATM    5  S   UNL     1     -13.450  13.385  72.093  1.00  0.00    -0.564 SA 
HETATM    6  C   UNL     1     -13.390  15.035  72.540  1.00  0.00    -0.424 A  
ENDROOT
BRANCH   3   7
HETATM    7  C   UNL     1     -11.051  15.472  69.600  1.00  0.00    -0.279 C  
BRANCH   7   8
HETATM    8  O   UNL     1     -11.723  15.541  68.343  1.00  0.00    -0.365 OA 
BRANCH   8   9
HETATM    9  C   UNL     1     -10.880  15.573  67.174  1.00  0.00    -0.316 C  
BRANCH   9  10
HETATM   10  C   UNL     1     -10.563  14.129  66.756  1.00  0.00    -0.277 A  
HETATM   11  C   UNL     1      -9.014  12.225  66.785  1.00  0.00    -0.209 A  
HETATM   12  C   UNL     1     -11.419  13.356  65.947  1.00  0.00    -0.321 A  
HETATM   13  C   UNL     1      -9.364  13.518  67.185  1.00  0.00    -0.240 A  
HETATM   14 CL   UNL     1     -12.988  13.902  65.464  1.00  0.00    -0.486 Cl 
HETATM   15 CL   UNL     1      -9.407   9.939  65.412  1.00  0.00    -0.272 Cl 
HETATM   16  C   UNL     1     -11.053  12.073  65.515  1.00  0.00    -0.361 A  
HETATM   17  C   UNL     1      -9.851  11.517  65.934  1.00  0.00    -0.231 A  
ENDBRANCH   9  10
BRANCH   9  18
HETATM   18  C   UNL     1      -9.624  16.445  67.421  1.00  0.00    -0.231 C  
BRANCH  18  19
HETATM   19  N   UNL     1      -9.866  17.872  67.395  1.00  0.00    -0.295 NA 
HETATM   20  N   UNL     1     -10.576  19.836  66.656  1.00  0.00    -0.476 NA 
HETATM   21  C   UNL     1      -9.685  18.749  68.426  1.00  0.00    -0.376 A  
HETATM   22  C   UNL     1     -10.126  19.959  67.944  1.00  0.00    -0.436 A  
HETATM   23  C   UNL     1     -10.417  18.569  66.355  1.00  0.00    -0.406 A  
ENDBRANCH  18  19
ENDBRANCH   9  18
ENDBRANCH   8   9
ENDBRANCH   7   8
ENDBRANCH   3   7
TORSDOF 6
ENDMDL
MODEL       10
REMARK 921   NORMALIZED FREE ENERGY PREDICTED BY IDOCK:   -6.07 KCAL/MOL
REMARK 922        TOTAL FREE ENERGY PREDICTED BY IDOCK:   -9.23 KCAL/MOL
REMARK 923 INTER-LIGAND FREE ENERGY PREDICTED BY IDOCK:   -8.29 KCAL/MOL
REMARK 924 INTRA-LIGAND FREE ENERGY PREDICTED BY IDOCK:   -0.94 KCAL/MOL
REMARK 927      BINDING AFFINITY PREDICTED BY RF-SCORE:    0.00 PKD
ROOT
HETATM    1 CL   UNL     1     -13.627  13.258  72.100  1.00  0.00    -0.628 Cl 
HETATM    2  C   UNL     1     -12.785  12.008  71.266  1.00  0.00    -0.279 A  
HETATM    3  C   UNL     1     -11.968  12.148  70.166  1.00  0.00    -0.394 A  
HETATM    4  C   UNL     1     -11.421  10.864  69.805  1.00  0.00    -0.390 A  
HETATM    5  S   UNL     1     -12.929  10.417  71.829  1.00  0.00    -0.455 SA 
HETATM    6  C   UNL     1     -11.866   9.844  70.619  1.00  0.00    -0.303 A  
ENDROOT
BRANCH   3   7
HETATM    7  C   UNL     1     -11.649  13.443  69.478  1.00  0.00    -0.290 C  
BRANCH   7   8
HETATM    8  O   UNL     1     -12.282  13.512  68.201  1.00  0.00    -0.302 OA 
BRANCH   8   9
HETATM    9  C   UNL     1     -11.544  14.185  67.162  1.00  0.00    -0.377 C  
BRANCH   9  10
HETATM   10  C   UNL     1     -11.139  13.153  66.097  1.00  0.00    -0.301 A  
HETATM   11  C   UNL     1     -10.032  11.035  65.539  1.00  0.00    -0.308 A  
HETATM   12  C   UNL     1     -11.410  13.316  64.724  1.00  0.00    -0.327 A  
HETATM   13  C   UNL     1     -10.463  11.975  66.480  1.00  0.00    -0.253 A  
HETATM   14 CL   UNL     1     -12.359  14.626  64.112  1.00  0.00    -0.434 Cl 
HETATM   15 CL   UNL     1      -9.700  10.124  63.024  1.00  0.00    -0.222 Cl 
HETATM   16  C   UNL     1     -10.947  12.394  63.775  1.00  0.00    -0.501 A  
HETATM   17  C   UNL     1     -10.258  11.261  64.188  1.00  0.00    -0.335 A  
ENDBRANCH   9  10
BRANCH   9  18
HETATM   18  C   UNL     1     -10.351  14.977  67.754  1.00  0.00    -0.245 C  
BRANCH  18  19
HETATM   19  N   UNL     1     -10.273  16.357  67.327  1.00  0.00    -0.273 NA 
HETATM   20  N   UNL     1     -10.123  18.094  65.960  1.00  0.00    -0.554 NA 
HETATM   21  C   UNL     1     -10.481  17.464  68.100  1.00  0.00    -0.389 A  
HETATM   22  C   UNL     1     -10.379  18.527  67.234  1.00  0.00    -0.398 A  
HETATM   23  C   UNL     1     -10.074  16.785  66.043  1.00  0.00    -0.332 A  
ENDBRANCH  18  19
ENDBRANCH   9  18
ENDBRANCH   8   9
ENDBRANCH   7   8
ENDBRANCH   3   7
TORSDOF 6
ENDMDL
MODEL       11
REMARK 921   NORMALIZED FREE ENERGY PREDICTED BY IDOCK:   -6.04 KCAL/MOL
REMARK 922        TOTAL FREE ENERGY PREDICTED BY IDOCK:   -9.20 KCAL/MOL
REMARK 923 INTER-LIGAND FREE ENERGY PREDICTED BY IDOCK:   -8.70 KCAL/MOL
REMARK 924 INTRA-LIGAND FREE ENERGY PREDICTED BY IDOCK:   -0.49 KCAL/MOL
REMARK 927      BINDING AFFINITY PREDICTED BY RF-SCORE:    0.00 PKD
ROOT
HETATM    1 CL   UNL     1      -9.231   9.505  65.021  1.00  0.00    -0.296 Cl 
HETATM    2  C   UNL     1     -10.315  10.844  65.043  1.00  0.00    -0.288 A  
HETATM    3  C   UNL     1     -11.038  11.310  66.119  1.00  0.00    -0.207 A  
HETATM    4  C   UNL     1     -11.786  12.478  65.727  1.00  0.00    -0.494 A  
HETATM    5  S   UNL     1     -10.538  11.729  63.617  1.00  0.00    -0.472 SA 
HETATM    6  C   UNL     1     -11.611  12.807  64.399  1.00  0.00    -0.361 A  
ENDROOT
BRANCH   3   7
HETATM    7  C   UNL     1     -11.013  10.729  67.502  1.00  0.00    -0.312 C  
BRANCH   7   8
HETATM    8  O   UNL     1     -12.067  11.266  68.301  1.00  0.00    -0.619 OA 
BRANCH   8   9
HETATM    9  C   UNL     1     -12.030  10.938  69.704  1.00  0.00    -0.343 C  
BRANCH   9  10
HETATM   10  C   UNL     1     -12.403  12.191  70.513  1.00  0.00    -0.358 A  
HETATM   11  C   UNL     1     -13.658  13.199  72.365  1.00  0.00    -0.667 A  
HETATM   12  C   UNL     1     -11.935  13.481  70.193  1.00  0.00    -0.329 A  
HETATM   13  C   UNL     1     -13.254  12.078  71.634  1.00  0.00    -0.361 A  
HETATM   14 CL   UNL     1     -10.771  13.766  68.946  1.00  0.00    -0.262 Cl 
HETATM   15 CL   UNL     1     -13.753  15.846  72.859  1.00  0.00    -0.658 Cl 
HETATM   16  C   UNL     1     -12.369  14.610  70.903  1.00  0.00    -0.406 A  
HETATM   17  C   UNL     1     -13.230  14.462  71.982  1.00  0.00    -0.369 A  
ENDBRANCH   9  10
BRANCH   9  18
HETATM   18  C   UNL     1     -10.662  10.325  70.094  1.00  0.00    -0.278 C  
BRANCH  18  19
HETATM   19  N   UNL     1     -10.722   9.349  71.161  1.00  0.00    -0.324 NA 
HETATM   20  N   UNL     1     -11.576   7.830  72.529  1.00  0.00    -0.363 NA 
HETATM   21  C   UNL     1      -9.665   8.823  71.847  1.00  0.00    -0.316 A  
HETATM   22  C   UNL     1     -10.217   7.889  72.691  1.00  0.00    -0.296 A  
HETATM   23  C   UNL     1     -11.852   8.712  71.597  1.00  0.00    -0.323 A  
ENDBRANCH  18  19
ENDBRANCH   9  18
ENDBRANCH   8   9
ENDBRANCH   7   8
ENDBRANCH   3   7
TORSDOF 6
ENDMDL
MODEL       12
REMARK 921   NORMALIZED FREE ENERGY PREDICTED BY IDOCK:   -6.04 KCAL/MOL
REMARK 922        TOTAL FREE ENERGY PREDICTED BY IDOCK:   -9.19 KCAL/MOL
REMARK 923 INTER-LIGAND FREE ENERGY PREDICTED BY IDOCK:   -8.19 KCAL/MOL
REMARK 924 INTRA-LIGAND FREE ENERGY PREDICTED BY IDOCK:   -1.01 KCAL/MOL
REMARK 927      BINDING AFFINITY PREDICTED BY RF-SCORE:    0.00 PKD
ROOT
HETATM    1 CL   UNL     1     -13.395  11.763  72.007  1.00  0.00    -0.543 Cl 
HETATM    2  C   UNL     1     -12.363  10.721  71.104  1.00  0.00    -0.393 A  
HETATM    3  C   UNL     1     -11.670  11.031  69.954  1.00  0.00    -0.424 A  
HETATM    4  C   UNL     1     -10.886   9.894  69.542  1.00  0.00    -0.274 A  
HETATM    5  S   UNL     1     -12.126   9.137  71.653  1.00  0.00    -0.387 SA 
HETATM    6  C   UNL     1     -11.048   8.803  70.369  1.00  0.00    -0.236 A  
ENDROOT
BRANCH   3   7
HETATM    7  C   UNL     1     -11.681  12.364  69.264  1.00  0.00    -0.329 C  
BRANCH   7   8
HETATM    8  O   UNL     1     -12.132  12.237  67.916  1.00  0.00    -0.466 OA 
BRANCH   8   9
HETATM    9  C   UNL     1     -11.525  13.125  66.957  1.00  0.00    -0.336 C  
BRANCH   9  10
HETATM   10  C   UNL     1     -11.009  12.293  65.772  1.00  0.00    -0.338 A  
HETATM   11  C   UNL     1      -9.729  10.362  64.960  1.00  0.00    -0.362 A  
HETATM   12  C   UNL     1     -11.244  12.639  64.427  1.00  0.00    -0.346 A  
HETATM   13  C   UNL     1     -10.260  11.120  66.009  1.00  0.00    -0.300 A  
HETATM   14 CL   UNL     1     -12.267  13.958  63.971  1.00  0.00    -0.468 Cl 
HETATM   15 CL   UNL     1      -9.245   9.860  62.357  1.00  0.00    -0.306 Cl 
HETATM   16  C   UNL     1     -10.683  11.902  63.375  1.00  0.00    -0.476 A  
HETATM   17  C   UNL     1      -9.925  10.770  63.648  1.00  0.00    -0.345 A  
ENDBRANCH   9  10
BRANCH   9  18
HETATM   18  C   UNL     1     -10.439  14.004  67.626  1.00  0.00    -0.245 C  
BRANCH  18  19
HETATM   19  N   UNL     1     -10.495  15.406  67.270  1.00  0.00    -0.276 NA 
HETATM   20  N   UNL     1     -10.736  17.594  67.517  1.00  0.00    -0.335 NA 
HETATM   21  C   UNL     1     -10.113  15.963  66.083  1.00  0.00    -0.315 A  
HETATM   22  C   UNL     1     -10.275  17.317  66.257  1.00  0.00    -0.342 A  
HETATM   23  C   UNL     1     -10.851  16.428  68.107  1.00  0.00    -0.346 A  
ENDBRANCH  18  19
ENDBRANCH   9  18
ENDBRANCH   8   9
ENDBRANCH   7   8
ENDBRANCH   3   7
TORSDOF 6
ENDMDL
MODEL       13
REMARK 921   NORMALIZED FREE ENERGY PREDICTED BY IDOCK:   -6.03 KCAL/MOL
REMARK 922        TOTAL FREE ENERGY PREDICTED BY IDOCK:   -9.19 KCAL/MOL
REMARK 923 INTER-LIGAND FREE ENERGY PREDICTED BY IDOCK:   -8.52 KCAL/MOL
REMARK 924 INTRA-LIGAND FREE ENERGY PREDICTED BY IDOCK:   -0.67 KCAL/MOL
REMARK 927      BINDING AFFINITY PREDICTED BY RF-SCORE:    0.00 PKD
ROOT
HETATM    1 CL   UNL     1     -10.644  18.719  65.938  1.00  0.00    -0.493 Cl 
HETATM    2  C   UNL     1      -9.043  18.239  66.354  1.00  0.00    -0.249 A  
HETATM    3  C   UNL     1      -8.560  16.952  66.453  1.00  0.00    -0.328 A  
HETATM    4  C   UNL     1      -7.157  16.987  66.778  1.00  0.00    -0.273 A  
HETATM    5  S   UNL     1      -7.892  19.441  66.668  1.00  0.00    -0.292 SA 
HETATM    6  C   UNL     1      -6.673  18.270  66.929  1.00  0.00    -0.186 A  
ENDROOT
BRANCH   3   7
HETATM    7  C   UNL     1      -9.355  15.703  66.207  1.00  0.00    -0.323 C  
BRANCH   7   8
HETATM    8  O   UNL     1      -9.706  15.071  67.437  1.00  0.00    -0.214 OA 
BRANCH   8   9
HETATM    9  C   UNL     1     -11.060  14.588  67.538  1.00  0.00    -0.307 C  
BRANCH   9  10
HETATM   10  C   UNL     1     -11.497  14.649  69.011  1.00  0.00    -0.317 A  
HETATM   11  C   UNL     1     -12.415  13.508  70.980  1.00  0.00    -0.451 A  
HETATM   12  C   UNL     1     -11.460  15.832  69.776  1.00  0.00    -0.349 A  
HETATM   13  C   UNL     1     -11.962  13.484  69.657  1.00  0.00    -0.397 A  
HETATM   14 CL   UNL     1     -10.778  17.306  69.179  1.00  0.00    -0.219 Cl 
HETATM   15 CL   UNL     1     -13.016  14.745  73.298  1.00  0.00    -0.618 Cl 
HETATM   16  C   UNL     1     -11.948  15.867  71.089  1.00  0.00    -0.472 A  
HETATM   17  C   UNL     1     -12.426  14.705  71.682  1.00  0.00    -0.345 A  
ENDBRANCH   9  10
BRANCH   9  18
HETATM   18  C   UNL     1     -11.195  13.181  66.903  1.00  0.00    -0.296 C  
BRANCH  18  19
HETATM   19  N   UNL     1     -11.619  13.184  65.519  1.00  0.00    -0.323 NA 
HETATM   20  N   UNL     1     -12.558  13.900  63.645  1.00  0.00    -0.794 NA 
HETATM   21  C   UNL     1     -11.234  12.306  64.546  1.00  0.00    -0.326 A  
HETATM   22  C   UNL     1     -11.831  12.767  63.396  1.00  0.00    -0.518 A  
HETATM   23  C   UNL     1     -12.406  14.134  64.927  1.00  0.00    -0.430 A  
ENDBRANCH  18  19
ENDBRANCH   9  18
ENDBRANCH   8   9
ENDBRANCH   7   8
ENDBRANCH   3   7
TORSDOF 6
ENDMDL
MODEL       14
REMARK 921   NORMALIZED FREE ENERGY PREDICTED BY IDOCK:   -6.02 KCAL/MOL
REMARK 922        TOTAL FREE ENERGY PREDICTED BY IDOCK:   -9.17 KCAL/MOL
REMARK 923 INTER-LIGAND FREE ENERGY PREDICTED BY IDOCK:   -8.14 KCAL/MOL
REMARK 924 INTRA-LIGAND FREE ENERGY PREDICTED BY IDOCK:   -1.03 KCAL/MOL
REMARK 927      BINDING AFFINITY PREDICTED BY RF-SCORE:    0.00 PKD
ROOT
HETATM    1 CL   UNL     1     -13.846   9.216  72.369  1.00  0.00    -0.528 Cl 
HETATM    2  C   UNL     1     -12.211   9.140  71.831  1.00  0.00    -0.379 A  
HETATM    3  C   UNL     1     -11.594   9.980  70.930  1.00  0.00    -0.463 A  
HETATM    4  C   UNL     1     -10.210   9.604  70.791  1.00  0.00    -0.330 A  
HETATM    5  S   UNL     1     -11.206   7.933  72.460  1.00  0.00    -0.398 SA 
HETATM    6  C   UNL     1      -9.872   8.508  71.558  1.00  0.00    -0.239 A  
ENDROOT
BRANCH   3   7
HETATM    7  C   UNL     1     -12.242  11.143  70.238  1.00  0.00    -0.352 C  
BRANCH   7   8
HETATM    8  O   UNL     1     -12.157  11.007  68.821  1.00  0.00    -0.518 OA 
BRANCH   8   9
HETATM    9  C   UNL     1     -11.759  12.185  68.092  1.00  0.00    -0.341 C  
BRANCH   9  10
HETATM   10  C   UNL     1     -11.290  11.763  66.691  1.00  0.00    -0.381 A  
HETATM   11  C   UNL     1     -10.018  10.208  65.281  1.00  0.00    -0.381 A  
HETATM   12  C   UNL     1     -11.602  12.487  65.523  1.00  0.00    -0.386 A  
HETATM   13  C   UNL     1     -10.507  10.599  66.531  1.00  0.00    -0.285 A  
HETATM   14 CL   UNL     1     -12.672  13.846  65.530  1.00  0.00    -0.559 Cl 
HETATM   15 CL   UNL     1      -9.661  10.523  62.628  1.00  0.00    -0.316 Cl 
HETATM   16  C   UNL     1     -11.082  12.118  64.275  1.00  0.00    -0.403 A  
HETATM   17  C   UNL     1     -10.290  10.982  64.162  1.00  0.00    -0.369 A  
ENDBRANCH   9  10
BRANCH   9  18
HETATM   18  C   UNL     1     -10.708  12.999  68.887  1.00  0.00    -0.167 C  
BRANCH  18  19
HETATM   19  N   UNL     1     -10.569  14.377  68.466  1.00  0.00    -0.248 NA 
HETATM   20  N   UNL     1      -9.726  16.153  67.445  1.00  0.00    -0.231 NA 
HETATM   21  C   UNL     1     -11.480  15.379  68.641  1.00  0.00    -0.346 A  
HETATM   22  C   UNL     1     -10.935  16.469  68.005  1.00  0.00    -0.320 A  
HETATM   23  C   UNL     1      -9.535  14.886  67.729  1.00  0.00    -0.203 A  
ENDBRANCH  18  19
ENDBRANCH   9  18
ENDBRANCH   8   9
ENDBRANCH   7   8
ENDBRANCH   3   7
TORSDOF 6
ENDMDL
MODEL       15
REMARK 921   NORMALIZED FREE ENERGY PREDICTED BY IDOCK:   -6.02 KCAL/MOL
REMARK 922        TOTAL FREE ENERGY PREDICTED BY IDOCK:   -9.17 KCAL/MOL
REMARK 923 INTER-LIGAND FREE ENERGY PREDICTED BY IDOCK:   -8.35 KCAL/MOL
REMARK 924 INTRA-LIGAND FREE ENERGY PREDICTED BY IDOCK:   -0.82 KCAL/MOL
REMARK 927      BINDING AFFINITY PREDICTED BY RF-SCORE:    0.00 PKD
ROOT
HETATM    1 CL   UNL     1     -10.409  10.687  64.224  1.00  0.00    -0.405 Cl 
HETATM    2  C   UNL     1     -11.276  11.997  64.931  1.00  0.00    -0.320 A  
HETATM    3  C   UNL     1     -11.561  12.180  66.267  1.00  0.00    -0.424 A  
HETATM    4  C   UNL     1     -12.263  13.425  66.443  1.00  0.00    -0.435 A  
HETATM    5  S   UNL     1     -11.848  13.230  63.922  1.00  0.00    -0.459 SA 
HETATM    6  C   UNL     1     -12.489  14.087  65.255  1.00  0.00    -0.475 A  
ENDROOT
BRANCH   3   7
HETATM    7  C   UNL     1     -11.156  11.256  67.378  1.00  0.00    -0.297 C  
BRANCH   7   8
HETATM    8  O   UNL     1     -12.132  11.250  68.418  1.00  0.00    -0.598 OA 
BRANCH   8   9
HETATM    9  C   UNL     1     -11.673  11.662  69.721  1.00  0.00    -0.352 C  
BRANCH   9  10
HETATM   10  C   UNL     1     -11.493  10.413  70.598  1.00  0.00    -0.438 A  
HETATM   11  C   UNL     1     -12.426   8.846  72.240  1.00  0.00    -0.440 A  
HETATM   12  C   UNL     1     -10.289   9.683  70.660  1.00  0.00    -0.297 A  
HETATM   13  C   UNL     1     -12.564   9.948  71.391  1.00  0.00    -0.497 A  
HETATM   14 CL   UNL     1      -8.936  10.032  69.641  1.00  0.00    -0.224 Cl 
HETATM   15 CL   UNL     1     -11.022   6.857  73.395  1.00  0.00    -0.277 Cl 
HETATM   16  C   UNL     1     -10.137   8.601  71.538  1.00  0.00    -0.345 A  
HETATM   17  C   UNL     1     -11.206   8.191  72.326  1.00  0.00    -0.359 A  
ENDBRANCH   9  10
BRANCH   9  18
HETATM   18  C   UNL     1     -12.620  12.725  70.331  1.00  0.00    -0.053 C  
BRANCH  18  19
HETATM   19  N   UNL     1     -12.068  14.062  70.391  1.00  0.00    -0.335 NA 
HETATM   20  N   UNL     1     -11.735  16.132  71.105  1.00  0.00    -0.437 NA 
HETATM   21  C   UNL     1     -10.992  14.532  69.694  1.00  0.00    -0.193 A  
HETATM   22  C   UNL     1     -10.807  15.816  70.149  1.00  0.00    -0.351 A  
HETATM   23  C   UNL     1     -12.474  15.056  71.238  1.00  0.00    -0.334 A  
ENDBRANCH  18  19
ENDBRANCH   9  18
ENDBRANCH   8   9
ENDBRANCH   7   8
ENDBRANCH   3   7
TORSDOF 6
ENDMDL
MODEL       16
REMARK 921   NORMALIZED FREE ENERGY PREDICTED BY IDOCK:   -6.00 KCAL/MOL
REMARK 922        TOTAL FREE ENERGY PREDICTED BY IDOCK:   -9.15 KCAL/MOL
REMARK 923 INTER-LIGAND FREE ENERGY PREDICTED BY IDOCK:   -8.23 KCAL/MOL
REMARK 924 INTRA-LIGAND FREE ENERGY PREDICTED BY IDOCK:   -0.92 KCAL/MOL
REMARK 927      BINDING AFFINITY PREDICTED BY RF-SCORE:    0.00 PKD
ROOT
HETATM    1 CL   UNL     1      -9.650   7.970  68.113  1.00  0.00    -0.159 Cl 
HETATM    2  C   UNL     1     -10.458   8.714  69.440  1.00  0.00    -0.218 A  
HETATM    3  C   UNL     1     -11.119   9.923  69.437  1.00  0.00    -0.237 A  
HETATM    4  C   UNL     1     -11.697  10.159  70.736  1.00  0.00    -0.446 A  
HETATM    5  S   UNL     1     -10.489   7.906  70.927  1.00  0.00    -0.204 SA 
HETATM    6  C   UNL     1     -11.426   9.149  71.635  1.00  0.00    -0.381 A  
ENDROOT
BRANCH   3   7
HETATM    7  C   UNL     1     -11.264  10.833  68.253  1.00  0.00    -0.297 C  
BRANCH   7   8
HETATM    8  O   UNL     1     -12.145  11.917  68.547  1.00  0.00    -0.412 OA 
BRANCH   8   9
HETATM    9  C   UNL     1     -11.574  13.238  68.468  1.00  0.00    -0.333 C  
BRANCH   9  10
HETATM   10  C   UNL     1     -11.809  13.957  69.806  1.00  0.00    -0.390 A  
HETATM   11  C   UNL     1     -13.009  14.079  71.944  1.00  0.00    -0.444 A  
HETATM   12  C   UNL     1     -11.142  15.144  70.170  1.00  0.00    -0.274 A  
HETATM   13  C   UNL     1     -12.729  13.429  70.738  1.00  0.00    -0.301 A  
HETATM   14 CL   UNL     1      -9.880  15.834  69.209  1.00  0.00    -0.247 Cl 
HETATM   15 CL   UNL     1     -12.750  16.101  73.707  1.00  0.00    -0.667 Cl 
HETATM   16  C   UNL     1     -11.448  15.816  71.361  1.00  0.00    -0.496 A  
HETATM   17  C   UNL     1     -12.382  15.281  72.239  1.00  0.00    -0.370 A  
ENDBRANCH   9  10
BRANCH   9  18
HETATM   18  C   UNL     1     -12.123  14.006  67.239  1.00  0.00    -0.370 C  
BRANCH  18  19
HETATM   19  N   UNL     1     -11.727  13.457  65.960  1.00  0.00    -0.346 NA 
HETATM   20  N   UNL     1     -11.922  12.540  63.953  1.00  0.00    -0.437 NA 
HETATM   21  C   UNL     1     -10.483  13.510  65.399  1.00  0.00    -0.315 A  
HETATM   22  C   UNL     1     -10.627  12.932  64.160  1.00  0.00    -0.416 A  
HETATM   23  C   UNL     1     -12.564  12.876  65.048  1.00  0.00    -0.472 A  
ENDBRANCH  18  19
ENDBRANCH   9  18
ENDBRANCH   8   9
ENDBRANCH   7   8
ENDBRANCH   3   7
TORSDOF 6
ENDMDL
MODEL       17
REMARK 921   NORMALIZED FREE ENERGY PREDICTED BY IDOCK:   -6.00 KCAL/MOL
REMARK 922        TOTAL FREE ENERGY PREDICTED BY IDOCK:   -9.15 KCAL/MOL
REMARK 923 INTER-LIGAND FREE ENERGY PREDICTED BY IDOCK:   -8.15 KCAL/MOL
REMARK 924 INTRA-LIGAND FREE ENERGY PREDICTED BY IDOCK:   -1.00 KCAL/MOL
REMARK 927      BINDING AFFINITY PREDICTED BY RF-SCORE:    0.00 PKD
ROOT
HETATM    1 CL   UNL     1      -9.076  12.711  66.456  1.00  0.00    -0.201 Cl 
HETATM    2  C   UNL     1     -10.514  12.654  65.510  1.00  0.00    -0.281 A  
HETATM    3  C   UNL     1     -11.766  13.103  65.874  1.00  0.00    -0.427 A  
HETATM    4  C   UNL     1     -12.683  12.914  64.779  1.00  0.00    -0.442 A  
HETATM    5  S   UNL     1     -10.435  12.002  63.950  1.00  0.00    -0.445 SA 
HETATM    6  C   UNL     1     -12.093  12.322  63.682  1.00  0.00    -0.554 A  
ENDROOT
BRANCH   3   7
HETATM    7  C   UNL     1     -12.114  13.742  67.187  1.00  0.00    -0.378 C  
BRANCH   7   8
HETATM    8  O   UNL     1     -11.638  15.086  67.242  1.00  0.00    -0.343 OA 
BRANCH   8   9
HETATM    9  C   UNL     1     -11.427  15.631  68.560  1.00  0.00    -0.375 C  
BRANCH   9  10
HETATM   10  C   UNL     1     -10.008  16.220  68.627  1.00  0.00    -0.233 A  
HETATM   11  C   UNL     1      -7.632  15.919  69.161  1.00  0.00    -0.213 A  
HETATM   12  C   UNL     1      -9.714  17.557  68.296  1.00  0.00    -0.311 A  
HETATM   13  C   UNL     1      -8.928  15.409  69.037  1.00  0.00    -0.230 A  
HETATM   14 CL   UNL     1     -10.895  18.634  67.634  1.00  0.00    -0.421 Cl 
HETATM   15 CL   UNL     1      -5.804  17.898  69.073  1.00  0.00    -0.201 Cl 
HETATM   16  C   UNL     1      -8.423  18.080  68.454  1.00  0.00    -0.306 A  
HETATM   17  C   UNL     1      -7.390  17.258  68.889  1.00  0.00    -0.243 A  
ENDBRANCH   9  10
BRANCH   9  18
HETATM   18  C   UNL     1     -11.718  14.570  69.651  1.00  0.00    -0.307 C  
BRANCH  18  19
HETATM   19  N   UNL     1     -12.322  15.096  70.856  1.00  0.00    -0.323 NA 
HETATM   20  N   UNL     1     -13.896  15.591  72.335  1.00  0.00    -0.542 NA 
HETATM   21  C   UNL     1     -11.668  15.567  71.958  1.00  0.00    -0.455 A  
HETATM   22  C   UNL     1     -12.662  15.872  72.858  1.00  0.00    -0.484 A  
HETATM   23  C   UNL     1     -13.661  15.117  71.133  1.00  0.00    -0.437 A  
ENDBRANCH  18  19
ENDBRANCH   9  18
ENDBRANCH   8   9
ENDBRANCH   7   8
ENDBRANCH   3   7
TORSDOF 6
ENDMDL
MODEL       18
REMARK 921   NORMALIZED FREE ENERGY PREDICTED BY IDOCK:   -5.98 KCAL/MOL
REMARK 922        TOTAL FREE ENERGY PREDICTED BY IDOCK:   -9.11 KCAL/MOL
REMARK 923 INTER-LIGAND FREE ENERGY PREDICTED BY IDOCK:   -8.47 KCAL/MOL
REMARK 924 INTRA-LIGAND FREE ENERGY PREDICTED BY IDOCK:   -0.65 KCAL/MOL
REMARK 927      BINDING AFFINITY PREDICTED BY RF-SCORE:    0.00 PKD
ROOT
HETATM    1 CL   UNL     1      -8.887  14.117  66.901  1.00  0.00    -0.241 Cl 
HETATM    2  C   UNL     1     -10.448  13.975  66.188  1.00  0.00    -0.297 A  
HETATM    3  C   UNL     1     -11.663  13.984  66.839  1.00  0.00    -0.435 A  
HETATM    4  C   UNL     1     -12.727  13.887  65.873  1.00  0.00    -0.466 A  
HETATM    5  S   UNL     1     -10.560  13.821  64.506  1.00  0.00    -0.288 SA 
HETATM    6  C   UNL     1     -12.269  13.786  64.577  1.00  0.00    -0.403 A  
ENDROOT
BRANCH   3   7
HETATM    7  C   UNL     1     -11.855  14.128  68.320  1.00  0.00    -0.356 C  
BRANCH   7   8
HETATM    8  O   UNL     1     -12.256  12.890  68.906  1.00  0.00    -0.213 OA 
BRANCH   8   9
HETATM    9  C   UNL     1     -12.082  12.777  70.332  1.00  0.00    -0.302 C  
BRANCH   9  10
HETATM   10  C   UNL     1     -12.056  11.287  70.709  1.00  0.00    -0.450 A  
HETATM   11  C   UNL     1     -12.945   9.448  72.069  1.00  0.00    -0.508 A  
HETATM   12  C   UNL     1     -11.151  10.366  70.145  1.00  0.00    -0.314 A  
HETATM   13  C   UNL     1     -12.969  10.785  71.662  1.00  0.00    -0.581 A  
HETATM   14 CL   UNL     1     -10.074  10.789  68.859  1.00  0.00    -0.204 Cl 
HETATM   15 CL   UNL     1     -11.942   6.946  72.065  1.00  0.00    -0.343 Cl 
HETATM   16  C   UNL     1     -11.101   9.034  70.579  1.00  0.00    -0.297 A  
HETATM   17  C   UNL     1     -11.996   8.584  71.541  1.00  0.00    -0.303 A  
ENDBRANCH   9  10
BRANCH   9  18
HETATM   18  C   UNL     1     -13.159  13.596  71.088  1.00  0.00    -0.234 C  
BRANCH  18  19
HETATM   19  N   UNL     1     -12.634  14.659  71.918  1.00  0.00    -0.328 NA 
HETATM   20  N   UNL     1     -11.662  16.576  72.455  1.00  0.00    -0.437 NA 
HETATM   21  C   UNL     1     -12.818  14.810  73.263  1.00  0.00    -0.507 A  
HETATM   22  C   UNL     1     -12.204  16.000  73.574  1.00  0.00    -0.523 A  
HETATM   23  C   UNL     1     -11.943  15.752  71.472  1.00  0.00    -0.440 A  
ENDBRANCH  18  19
ENDBRANCH   9  18
ENDBRANCH   8   9
ENDBRANCH   7   8
ENDBRANCH   3   7
TORSDOF 6
ENDMDL
MODEL       19
REMARK 921   NORMALIZED FREE ENERGY PREDICTED BY IDOCK:   -5.92 KCAL/MOL
REMARK 922        TOTAL FREE ENERGY PREDICTED BY IDOCK:   -9.05 KCAL/MOL
REMARK 923 INTER-LIGAND FREE ENERGY PREDICTED BY IDOCK:   -7.91 KCAL/MOL
REMARK 924 INTRA-LIGAND FREE ENERGY PREDICTED BY IDOCK:   -1.14 KCAL/MOL
REMARK 927      BINDING AFFINITY PREDICTED BY RF-SCORE:    0.00 PKD
ROOT
HETATM    1 CL   UNL     1     -10.452  15.829  70.181  1.00  0.00    -0.314 Cl 
HETATM    2  C   UNL     1     -11.712  15.030  71.041  1.00  0.00    -0.332 A  
HETATM    3  C   UNL     1     -12.277  13.809  70.742  1.00  0.00    -0.437 A  
HETATM    4  C   UNL     1     -13.266  13.479  71.736  1.00  0.00    -0.490 A  
HETATM    5  S   UNL     1     -12.352  15.774  72.421  1.00  0.00    -0.505 SA 
HETATM    6  C   UNL     1     -13.410  14.459  72.696  1.00  0.00    -0.507 A  
ENDROOT
BRANCH   3   7
HETATM    7  C   UNL     1     -11.887  12.927  69.592  1.00  0.00    -0.320 C  
BRANCH   7   8
HETATM    8  O   UNL     1     -12.060  13.605  68.348  1.00  0.00    -0.361 OA 
BRANCH   8   9
HETATM    9  C   UNL     1     -11.165  13.221  67.285  1.00  0.00    -0.292 C  
BRANCH   9  10
HETATM   10  C   UNL     1     -10.192  14.381  67.018  1.00  0.00    -0.263 A  
HETATM   11  C   UNL     1      -9.796  16.621  66.097  1.00  0.00    -0.340 A  
HETATM   12  C   UNL     1      -8.825  14.334  67.358  1.00  0.00    -0.205 A  
HETATM   13  C   UNL     1     -10.658  15.564  66.403  1.00  0.00    -0.312 A  
HETATM   14 CL   UNL     1      -8.133  13.023  68.249  1.00  0.00    -0.149 Cl 
HETATM   15 CL   UNL     1      -7.374  17.798  65.979  1.00  0.00    -0.329 Cl 
HETATM   16  C   UNL     1      -7.953  15.377  67.018  1.00  0.00    -0.259 A  
HETATM   17  C   UNL     1      -8.443  16.513  66.386  1.00  0.00    -0.321 A  
ENDBRANCH   9  10
BRANCH   9  18
HETATM   18  C   UNL     1     -11.954  12.764  66.034  1.00  0.00    -0.432 C  
BRANCH  18  19
HETATM   19  N   UNL     1     -11.167  12.046  65.054  1.00  0.00    -0.322 NA 
HETATM   20  N   UNL     1     -10.141  11.615  63.139  1.00  0.00    -0.402 NA 
HETATM   21  C   UNL     1     -10.425  10.920  65.270  1.00  0.00    -0.230 A  
HETATM   22  C   UNL     1      -9.802  10.669  64.070  1.00  0.00    -0.338 A  
HETATM   23  C   UNL     1     -10.955  12.435  63.760  1.00  0.00    -0.447 A  
ENDBRANCH  18  19
ENDBRANCH   9  18
ENDBRANCH   8   9
ENDBRANCH   7   8
ENDBRANCH   3   7
TORSDOF 6
ENDMDL
MODEL       20
REMARK 921   NORMALIZED FREE ENERGY PREDICTED BY IDOCK:   -5.92 KCAL/MOL
REMARK 922        TOTAL FREE ENERGY PREDICTED BY IDOCK:   -9.03 KCAL/MOL
REMARK 923 INTER-LIGAND FREE ENERGY PREDICTED BY IDOCK:   -8.24 KCAL/MOL
REMARK 924 INTRA-LIGAND FREE ENERGY PREDICTED BY IDOCK:   -0.80 KCAL/MOL
REMARK 927      BINDING AFFINITY PREDICTED BY RF-SCORE:    0.00 PKD
ROOT
HETATM    1 CL   UNL     1     -13.723  12.889  72.219  1.00  0.00    -0.616 Cl 
HETATM    2  C   UNL     1     -12.849  11.684  71.353  1.00  0.00    -0.356 A  
HETATM    3  C   UNL     1     -12.017  11.877  70.271  1.00  0.00    -0.416 A  
HETATM    4  C   UNL     1     -11.445  10.616  69.872  1.00  0.00    -0.393 A  
HETATM    5  S   UNL     1     -12.978  10.071  71.853  1.00  0.00    -0.440 SA 
HETATM    6  C   UNL     1     -11.887   9.559  70.640  1.00  0.00    -0.233 A  
ENDROOT
BRANCH   3   7
HETATM    7  C   UNL     1     -11.707  13.201  69.638  1.00  0.00    -0.303 C  
BRANCH   7   8
HETATM    8  O   UNL     1     -10.567  13.104  68.784  1.00  0.00    -0.248 OA 
BRANCH   8   9
HETATM    9  C   UNL     1     -10.639  13.833  67.543  1.00  0.00    -0.244 C  
BRANCH   9  10
HETATM   10  C   UNL     1     -10.050  15.236  67.761  1.00  0.00    -0.230 A  
HETATM   11  C   UNL     1     -10.414  17.627  68.177  1.00  0.00    -0.386 A  
HETATM   12  C   UNL     1      -8.667  15.506  67.712  1.00  0.00    -0.167 A  
HETATM   13  C   UNL     1     -10.906  16.327  68.023  1.00  0.00    -0.339 A  
HETATM   14 CL   UNL     1      -7.481  14.258  67.551  1.00  0.00    -0.195 Cl 
HETATM   15 CL   UNL     1      -8.448  19.469  68.211  1.00  0.00    -0.369 Cl 
HETATM   16  C   UNL     1      -8.176  16.813  67.829  1.00  0.00    -0.190 A  
HETATM   17  C   UNL     1      -9.053  17.867  68.057  1.00  0.00    -0.267 A  
ENDBRANCH   9  10
BRANCH   9  18
HETATM   18  C   UNL     1     -12.086  13.840  66.988  1.00  0.00    -0.397 C  
BRANCH  18  19
HETATM   19  N   UNL     1     -12.185  13.606  65.564  1.00  0.00    -0.413 NA 
HETATM   20  N   UNL     1     -12.420  14.050  63.406  1.00  0.00    -0.758 NA 
HETATM   21  C   UNL     1     -11.919  12.438  64.908  1.00  0.00    -0.398 A  
HETATM   22  C   UNL     1     -12.075  12.736  63.575  1.00  0.00    -0.559 A  
HETATM   23  C   UNL     1     -12.471  14.552  64.618  1.00  0.00    -0.321 A  
ENDBRANCH  18  19
ENDBRANCH   9  18
ENDBRANCH   8   9
ENDBRANCH   7   8
ENDBRANCH   3   7
TORSDOF 6
ENDMDL
MODEL       21
REMARK 921   NORMALIZED FREE ENERGY PREDICTED BY IDOCK:   -5.82 KCAL/MOL
REMARK 922        TOTAL FREE ENERGY PREDICTED BY IDOCK:   -8.91 KCAL/MOL
REMARK 923 INTER-LIGAND FREE ENERGY PREDICTED BY IDOCK:   -8.05 KCAL/MOL
REMARK 924 INTRA-LIGAND FREE ENERGY PREDICTED BY IDOCK:   -0.86 KCAL/MOL
REMARK 927      BINDING AFFINITY PREDICTED BY RF-SCORE:    0.00 PKD
ROOT
HETATM    1 CL   UNL     1     -12.032  13.179  63.216  1.00  0.00    -0.570 Cl 
HETATM    2  C   UNL     1     -11.074  12.024  64.061  1.00  0.00    -0.386 A  
HETATM    3  C   UNL     1     -11.014  11.832  65.424  1.00  0.00    -0.352 A  
HETATM    4  C   UNL     1     -10.127  10.736  65.718  1.00  0.00    -0.320 A  
HETATM    5  S   UNL     1     -10.092  10.973  63.166  1.00  0.00    -0.237 SA 
HETATM    6  C   UNL     1      -9.557  10.188  64.588  1.00  0.00    -0.315 A  
ENDROOT
BRANCH   3   7
HETATM    7  C   UNL     1     -11.793  12.607  66.447  1.00  0.00    -0.402 C  
BRANCH   7   8
HETATM    8  O   UNL     1     -12.025  11.819  67.615  1.00  0.00    -0.599 OA 
BRANCH   8   9
HETATM    9  C   UNL     1     -11.377  12.267  68.822  1.00  0.00    -0.289 C  
BRANCH   9  10
HETATM   10  C   UNL     1     -11.369  11.111  69.834  1.00  0.00    -0.348 A  
HETATM   11  C   UNL     1     -12.488   9.904  71.654  1.00  0.00    -0.507 A  
HETATM   12  C   UNL     1     -10.291  10.212  69.968  1.00  0.00    -0.250 A  
HETATM   13  C   UNL     1     -12.477  10.912  70.685  1.00  0.00    -0.460 A  
HETATM   14 CL   UNL     1      -8.929  10.228  68.903  1.00  0.00    -0.154 Cl 
HETATM   15 CL   UNL     1     -11.379   7.860  73.016  1.00  0.00    -0.410 Cl 
HETATM   16  C   UNL     1     -10.285   9.225  70.963  1.00  0.00    -0.384 A  
HETATM   17  C   UNL     1     -11.383   9.079  71.802  1.00  0.00    -0.377 A  
ENDBRANCH   9  10
BRANCH   9  18
HETATM   18  C   UNL     1     -12.035  13.564  69.356  1.00  0.00    -0.330 C  
BRANCH  18  19
HETATM   19  N   UNL     1     -11.249  14.763  69.159  1.00  0.00    -0.257 NA 
HETATM   20  N   UNL     1      -9.488  16.032  68.720  1.00  0.00    -0.216 NA 
HETATM   21  C   UNL     1     -11.720  16.042  69.070  1.00  0.00    -0.318 A  
HETATM   22  C   UNL     1     -10.612  16.810  68.803  1.00  0.00    -0.348 A  
HETATM   23  C   UNL     1      -9.901  14.805  68.929  1.00  0.00    -0.222 A  
ENDBRANCH  18  19
ENDBRANCH   9  18
ENDBRANCH   8   9
ENDBRANCH   7   8
ENDBRANCH   3   7
TORSDOF 6
ENDMDL
MODEL       22
REMARK 921   NORMALIZED FREE ENERGY PREDICTED BY IDOCK:   -5.82 KCAL/MOL
REMARK 922        TOTAL FREE ENERGY PREDICTED BY IDOCK:   -8.90 KCAL/MOL
REMARK 923 INTER-LIGAND FREE ENERGY PREDICTED BY IDOCK:   -7.93 KCAL/MOL
REMARK 924 INTRA-LIGAND FREE ENERGY PREDICTED BY IDOCK:   -0.97 KCAL/MOL
REMARK 927      BINDING AFFINITY PREDICTED BY RF-SCORE:    0.00 PKD
ROOT
HETATM    1 CL   UNL     1     -13.863  15.538  71.866  1.00  0.00    -0.582 Cl 
HETATM    2  C   UNL     1     -13.106  14.151  71.179  1.00  0.00    -0.328 A  
HETATM    3  C   UNL     1     -12.292  14.114  70.068  1.00  0.00    -0.403 A  
HETATM    4  C   UNL     1     -11.828  12.767  69.856  1.00  0.00    -0.371 A  
HETATM    5  S   UNL     1     -13.341  12.647  71.921  1.00  0.00    -0.273 SA 
HETATM    6  C   UNL     1     -12.326  11.875  70.782  1.00  0.00    -0.320 A  
ENDROOT
BRANCH   3   7
HETATM    7  C   UNL     1     -11.901  15.300  69.235  1.00  0.00    -0.329 C  
BRANCH   7   8
HETATM    8  O   UNL     1     -10.719  15.027  68.483  1.00  0.00    -0.233 OA 
BRANCH   8   9
HETATM    9  C   UNL     1     -10.747  15.415  67.095  1.00  0.00    -0.314 C  
BRANCH   9  10
HETATM   10  C   UNL     1     -10.627  14.151  66.228  1.00  0.00    -0.284 A  
HETATM   11  C   UNL     1      -9.671  11.915  65.896  1.00  0.00    -0.258 A  
HETATM   12  C   UNL     1     -11.264  14.009  64.980  1.00  0.00    -0.352 A  
HETATM   13  C   UNL     1      -9.848  13.062  66.676  1.00  0.00    -0.252 A  
HETATM   14 CL   UNL     1     -12.371  15.187  64.361  1.00  0.00    -0.359 Cl 
HETATM   15 CL   UNL     1     -10.018  10.442  63.665  1.00  0.00    -0.300 Cl 
HETATM   16  C   UNL     1     -11.059  12.876  64.180  1.00  0.00    -0.438 A  
HETATM   17  C   UNL     1     -10.261  11.837  64.642  1.00  0.00    -0.284 A  
ENDBRANCH   9  10
BRANCH   9  18
HETATM   18  C   UNL     1      -9.668  16.485  66.796  1.00  0.00    -0.258 C  
BRANCH  18  19
HETATM   19  N   UNL     1     -10.085  17.848  67.046  1.00  0.00    -0.324 NA 
HETATM   20  N   UNL     1     -10.507  19.707  68.174  1.00  0.00    -0.425 NA 
HETATM   21  C   UNL     1     -10.371  18.799  66.110  1.00  0.00    -0.448 A  
HETATM   22  C   UNL     1     -10.633  19.940  66.830  1.00  0.00    -0.409 A  
HETATM   23  C   UNL     1     -10.168  18.444  68.275  1.00  0.00    -0.384 A  
ENDBRANCH  18  19
ENDBRANCH   9  18
ENDBRANCH   8   9
ENDBRANCH   7   8
ENDBRANCH   3   7
TORSDOF 6
ENDMDL
MODEL       23
REMARK 921   NORMALIZED FREE ENERGY PREDICTED BY IDOCK:   -5.81 KCAL/MOL
REMARK 922        TOTAL FREE ENERGY PREDICTED BY IDOCK:   -8.89 KCAL/MOL
REMARK 923 INTER-LIGAND FREE ENERGY PREDICTED BY IDOCK:   -7.95 KCAL/MOL
REMARK 924 INTRA-LIGAND FREE ENERGY PREDICTED BY IDOCK:   -0.94 KCAL/MOL
REMARK 927      BINDING AFFINITY PREDICTED BY RF-SCORE:    0.00 PKD
ROOT
HETATM    1 CL   UNL     1     -10.542   8.239  69.666  1.00  0.00    -0.229 Cl 
HETATM    2  C   UNL     1     -11.407   9.584  70.307  1.00  0.00    -0.236 A  
HETATM    3  C   UNL     1     -11.373  10.885  69.855  1.00  0.00    -0.381 A  
HETATM    4  C   UNL     1     -12.277  11.691  70.636  1.00  0.00    -0.461 A  
HETATM    5  S   UNL     1     -12.438   9.332  71.626  1.00  0.00    -0.394 SA 
HETATM    6  C   UNL     1     -12.910  10.975  71.630  1.00  0.00    -0.435 A  
ENDROOT
BRANCH   3   7
HETATM    7  C   UNL     1     -10.564  11.382  68.692  1.00  0.00    -0.199 C  
BRANCH   7   8
HETATM    8  O   UNL     1     -10.463  12.805  68.712  1.00  0.00    -0.228 OA 
BRANCH   8   9
HETATM    9  C   UNL     1     -10.709  13.477  67.461  1.00  0.00    -0.259 C  
BRANCH   9  10
HETATM   10  C   UNL     1     -10.542  14.990  67.673  1.00  0.00    -0.267 A  
HETATM   11  C   UNL     1     -10.409  16.893  69.216  1.00  0.00    -0.298 A  
HETATM   12  C   UNL     1     -10.417  15.907  66.610  1.00  0.00    -0.306 A  
HETATM   13  C   UNL     1     -10.508  15.519  68.982  1.00  0.00    -0.231 A  
HETATM   14 CL   UNL     1     -10.290  15.406  64.959  1.00  0.00    -0.405 Cl 
HETATM   15 CL   UNL     1     -10.266  19.467  68.430  1.00  0.00    -0.531 Cl 
HETATM   16  C   UNL     1     -10.355  17.288  66.843  1.00  0.00    -0.310 A  
HETATM   17  C   UNL     1     -10.354  17.773  68.145  1.00  0.00    -0.391 A  
ENDBRANCH   9  10
BRANCH   9  18
HETATM   18  C   UNL     1     -12.087  13.074  66.879  1.00  0.00    -0.285 C  
BRANCH  18  19
HETATM   19  N   UNL     1     -12.043  12.568  65.523  1.00  0.00    -0.534 NA 
HETATM   20  N   UNL     1     -12.636  12.258  63.411  1.00  0.00    -0.735 NA 
HETATM   21  C   UNL     1     -11.018  11.879  64.942  1.00  0.00    -0.313 A  
HETATM   22  C   UNL     1     -11.408  11.694  63.637  1.00  0.00    -0.394 A  
HETATM   23  C   UNL     1     -12.990  12.785  64.560  1.00  0.00    -0.123 A  
ENDBRANCH  18  19
ENDBRANCH   9  18
ENDBRANCH   8   9
ENDBRANCH   7   8
ENDBRANCH   3   7
TORSDOF 6
ENDMDL
MODEL       24
REMARK 921   NORMALIZED FREE ENERGY PREDICTED BY IDOCK:   -5.79 KCAL/MOL
REMARK 922        TOTAL FREE ENERGY PREDICTED BY IDOCK:   -8.86 KCAL/MOL
REMARK 923 INTER-LIGAND FREE ENERGY PREDICTED BY IDOCK:   -7.99 KCAL/MOL
REMARK 924 INTRA-LIGAND FREE ENERGY PREDICTED BY IDOCK:   -0.87 KCAL/MOL
REMARK 927      BINDING AFFINITY PREDICTED BY RF-SCORE:    0.00 PKD
ROOT
HETATM    1 CL   UNL     1     -13.785  13.235  72.462  1.00  0.00    -0.675 Cl 
HETATM    2  C   UNL     1     -12.907  12.346  71.277  1.00  0.00    -0.240 A  
HETATM    3  C   UNL     1     -12.189  12.858  70.218  1.00  0.00    -0.362 A  
HETATM    4  C   UNL     1     -11.566  11.780  69.493  1.00  0.00    -0.398 A  
HETATM    5  S   UNL     1     -12.876  10.657  71.388  1.00  0.00    -0.469 SA 
HETATM    6  C   UNL     1     -11.862  10.539  70.016  1.00  0.00    -0.308 A  
ENDROOT
BRANCH   3   7
HETATM    7  C   UNL     1     -12.031  14.315  69.896  1.00  0.00    -0.339 C  
BRANCH   7   8
HETATM    8  O   UNL     1     -10.746  14.577  69.333  1.00  0.00    -0.242 OA 
BRANCH   8   9
HETATM    9  C   UNL     1     -10.730  15.373  68.131  1.00  0.00    -0.271 C  
BRANCH   9  10
HETATM   10  C   UNL     1     -10.941  14.445  66.923  1.00  0.00    -0.308 A  
HETATM   11  C   UNL     1     -12.369  13.697  65.073  1.00  0.00    -0.462 A  
HETATM   12  C   UNL     1     -10.007  13.465  66.533  1.00  0.00    -0.286 A  
HETATM   13  C   UNL     1     -12.116  14.555  66.148  1.00  0.00    -0.300 A  
HETATM   14 CL   UNL     1      -8.458  13.305  67.285  1.00  0.00    -0.201 Cl 
HETATM   15 CL   UNL     1     -11.782  11.621  63.458  1.00  0.00    -0.479 Cl 
HETATM   16  C   UNL     1     -10.276  12.581  65.480  1.00  0.00    -0.295 A  
HETATM   17  C   UNL     1     -11.457  12.700  64.758  1.00  0.00    -0.321 A  
ENDBRANCH   9  10
BRANCH   9  18
HETATM   18  C   UNL     1      -9.440  16.226  68.049  1.00  0.00    -0.223 C  
BRANCH  18  19
HETATM   19  N   UNL     1      -9.666  17.642  67.856  1.00  0.00    -0.285 NA 
HETATM   20  N   UNL     1     -10.702  19.510  67.269  1.00  0.00    -0.490 NA 
HETATM   21  C   UNL     1      -8.909  18.664  68.353  1.00  0.00    -0.339 A  
HETATM   22  C   UNL     1      -9.566  19.811  67.973  1.00  0.00    -0.383 A  
HETATM   23  C   UNL     1     -10.742  18.200  67.221  1.00  0.00    -0.315 A  
ENDBRANCH  18  19
ENDBRANCH   9  18
ENDBRANCH   8   9
ENDBRANCH   7   8
ENDBRANCH   3   7
TORSDOF 6
ENDMDL
MODEL       25
REMARK 921   NORMALIZED FREE ENERGY PREDICTED BY IDOCK:   -5.77 KCAL/MOL
REMARK 922        TOTAL FREE ENERGY PREDICTED BY IDOCK:   -8.84 KCAL/MOL
REMARK 923 INTER-LIGAND FREE ENERGY PREDICTED BY IDOCK:   -8.09 KCAL/MOL
REMARK 924 INTRA-LIGAND FREE ENERGY PREDICTED BY IDOCK:   -0.75 KCAL/MOL
REMARK 927      BINDING AFFINITY PREDICTED BY RF-SCORE:    0.00 PKD
ROOT
HETATM    1 CL   UNL     1     -14.111   8.854  71.891  1.00  0.00    -0.457 Cl 
HETATM    2  C   UNL     1     -12.405   8.923  71.663  1.00  0.00    -0.343 A  
HETATM    3  C   UNL     1     -11.708   9.811  70.873  1.00  0.00    -0.429 A  
HETATM    4  C   UNL     1     -10.295   9.559  70.996  1.00  0.00    -0.353 A  
HETATM    5  S   UNL     1     -11.431   7.811  72.487  1.00  0.00    -0.371 SA 
HETATM    6  C   UNL     1     -10.010   8.500  71.833  1.00  0.00    -0.294 A  
ENDROOT
BRANCH   3   7
HETATM    7  C   UNL     1     -12.317  10.911  70.053  1.00  0.00    -0.313 C  
BRANCH   7   8
HETATM    8  O   UNL     1     -11.310  11.780  69.537  1.00  0.00    -0.262 OA 
BRANCH   8   9
HETATM    9  C   UNL     1     -11.729  12.695  68.505  1.00  0.00    -0.330 C  
BRANCH   9  10
HETATM   10  C   UNL     1     -11.326  12.114  67.139  1.00  0.00    -0.393 A  
HETATM   11  C   UNL     1     -10.005  10.496  65.852  1.00  0.00    -0.313 A  
HETATM   12  C   UNL     1     -11.805  12.623  65.915  1.00  0.00    -0.444 A  
HETATM   13  C   UNL     1     -10.436  11.020  67.074  1.00  0.00    -0.284 A  
HETATM   14 CL   UNL     1     -13.013  13.858  65.829  1.00  0.00    -0.456 Cl 
HETATM   15 CL   UNL     1      -9.891  10.443  63.159  1.00  0.00    -0.297 Cl 
HETATM   16  C   UNL     1     -11.346  12.122  64.689  1.00  0.00    -0.382 A  
HETATM   17  C   UNL     1     -10.446  11.064  64.665  1.00  0.00    -0.329 A  
ENDBRANCH   9  10
BRANCH   9  18
HETATM   18  C   UNL     1     -11.178  14.118  68.768  1.00  0.00    -0.268 C  
BRANCH  18  19
HETATM   19  N   UNL     1     -11.683  14.746  69.970  1.00  0.00    -0.278 NA 
HETATM   20  N   UNL     1     -11.773  16.127  71.701  1.00  0.00    -0.494 NA 
HETATM   21  C   UNL     1     -12.921  14.579  70.520  1.00  0.00    -0.249 A  
HETATM   22  C   UNL     1     -12.953  15.440  71.592  1.00  0.00    -0.436 A  
HETATM   23  C   UNL     1     -11.031  15.697  70.707  1.00  0.00    -0.311 A  
ENDBRANCH  18  19
ENDBRANCH   9  18
ENDBRANCH   8   9
ENDBRANCH   7   8
ENDBRANCH   3   7
TORSDOF 6
ENDMDL
MODEL       26
REMARK 921   NORMALIZED FREE ENERGY PREDICTED BY IDOCK:   -5.77 KCAL/MOL
REMARK 922        TOTAL FREE ENERGY PREDICTED BY IDOCK:   -8.84 KCAL/MOL
REMARK 923 INTER-LIGAND FREE ENERGY PREDICTED BY IDOCK:   -8.31 KCAL/MOL
REMARK 924 INTRA-LIGAND FREE ENERGY PREDICTED BY IDOCK:   -0.53 KCAL/MOL
REMARK 927      BINDING AFFINITY PREDICTED BY RF-SCORE:    0.00 PKD
ROOT
HETATM    1 CL   UNL     1     -12.319  11.564  70.859  1.00  0.00    -0.480 Cl 
HETATM    2  C   UNL     1     -12.679  13.232  71.095  1.00  0.00    -0.320 A  
HETATM    3  C   UNL     1     -12.185  14.298  70.376  1.00  0.00    -0.411 A  
HETATM    4  C   UNL     1     -12.773  15.521  70.862  1.00  0.00    -0.525 A  
HETATM    5  S   UNL     1     -13.767  13.661  72.320  1.00  0.00    -0.604 SA 
HETATM    6  C   UNL     1     -13.640  15.318  71.916  1.00  0.00    -0.475 A  
ENDROOT
BRANCH   3   7
HETATM    7  C   UNL     1     -11.225  14.203  69.226  1.00  0.00    -0.269 C  
BRANCH   7   8
HETATM    8  O   UNL     1     -11.216  15.412  68.468  1.00  0.00    -0.282 OA 
BRANCH   8   9
HETATM    9  C   UNL     1     -10.225  15.500  67.425  1.00  0.00    -0.255 C  
BRANCH   9  10
HETATM   10  C   UNL     1      -9.211  16.592  67.800  1.00  0.00    -0.214 A  
HETATM   11  C   UNL     1      -6.922  17.204  68.438  1.00  0.00    -0.195 A  
HETATM   12  C   UNL     1      -9.554  17.954  67.916  1.00  0.00    -0.286 A  
HETATM   13  C   UNL     1      -7.864  16.248  68.046  1.00  0.00    -0.154 A  
HETATM   14 CL   UNL     1     -11.121  18.557  67.502  1.00  0.00    -0.193 Cl 
HETATM   15 CL   UNL     1      -6.161  19.697  69.122  1.00  0.00    -0.307 Cl 
HETATM   16  C   UNL     1      -8.620  18.907  68.344  1.00  0.00    -0.381 A  
HETATM   17  C   UNL     1      -7.310  18.525  68.607  1.00  0.00    -0.293 A  
ENDBRANCH   9  10
BRANCH   9  18
HETATM   18  C   UNL     1     -10.893  15.711  66.043  1.00  0.00    -0.275 C  
BRANCH  18  19
HETATM   19  N   UNL     1     -11.452  14.512  65.455  1.00  0.00    -0.340 NA 
HETATM   20  N   UNL     1     -12.956  12.969  64.940  1.00  0.00    -0.768 NA 
HETATM   21  C   UNL     1     -10.863  13.711  64.519  1.00  0.00    -0.406 A  
HETATM   22  C   UNL     1     -11.810  12.761  64.219  1.00  0.00    -0.396 A  
HETATM   23  C   UNL     1     -12.716  14.035  65.668  1.00  0.00    -0.481 A  
ENDBRANCH  18  19
ENDBRANCH   9  18
ENDBRANCH   8   9
ENDBRANCH   7   8
ENDBRANCH   3   7
TORSDOF 6
ENDMDL
MODEL       27
REMARK 921   NORMALIZED FREE ENERGY PREDICTED BY IDOCK:   -5.77 KCAL/MOL
REMARK 922        TOTAL FREE ENERGY PREDICTED BY IDOCK:   -8.83 KCAL/MOL
REMARK 923 INTER-LIGAND FREE ENERGY PREDICTED BY IDOCK:   -7.53 KCAL/MOL
REMARK 924 INTRA-LIGAND FREE ENERGY PREDICTED BY IDOCK:   -1.31 KCAL/MOL
REMARK 927      BINDING AFFINITY PREDICTED BY RF-SCORE:    0.00 PKD
ROOT
HETATM    1 CL   UNL     1      -7.367  12.313  67.504  1.00  0.00    -0.126 Cl 
HETATM    2  C   UNL     1      -8.485  11.177  66.850  1.00  0.00    -0.147 A  
HETATM    3  C   UNL     1      -9.694  10.796  67.391  1.00  0.00    -0.194 A  
HETATM    4  C   UNL     1     -10.343   9.860  66.508  1.00  0.00    -0.259 A  
HETATM    5  S   UNL     1      -8.116  10.432  65.376  1.00  0.00    -0.139 SA 
HETATM    6  C   UNL     1      -9.594   9.573  65.386  1.00  0.00    -0.272 A  
ENDROOT
BRANCH   3   7
HETATM    7  C   UNL     1     -10.276  11.313  68.674  1.00  0.00    -0.203 C  
BRANCH   7   8
HETATM    8  O   UNL     1     -11.465  12.064  68.429  1.00  0.00    -0.253 OA 
BRANCH   8   9
HETATM    9  C   UNL     1     -11.301  13.491  68.309  1.00  0.00    -0.294 C  
BRANCH   9  10
HETATM   10  C   UNL     1     -11.705  14.147  69.639  1.00  0.00    -0.372 A  
HETATM   11  C   UNL     1     -13.057  14.086  71.686  1.00  0.00    -0.435 A  
HETATM   12  C   UNL     1     -11.198  15.389  70.070  1.00  0.00    -0.300 A  
HETATM   13  C   UNL     1     -12.625  13.500  70.493  1.00  0.00    -0.311 A  
HETATM   14 CL   UNL     1      -9.955  16.234  69.215  1.00  0.00    -0.257 Cl 
HETATM   15 CL   UNL     1     -13.142  16.079  73.498  1.00  0.00    -0.676 Cl 
HETATM   16  C   UNL     1     -11.658  15.994  71.248  1.00  0.00    -0.506 A  
HETATM   17  C   UNL     1     -12.587  15.341  72.047  1.00  0.00    -0.353 A  
ENDBRANCH   9  10
BRANCH   9  18
HETATM   18  C   UNL     1     -12.074  14.035  67.081  1.00  0.00    -0.401 C  
BRANCH  18  19
HETATM   19  N   UNL     1     -11.713  13.421  65.822  1.00  0.00    -0.334 NA 
HETATM   20  N   UNL     1     -11.938  12.263  63.947  1.00  0.00    -0.449 NA 
HETATM   21  C   UNL     1     -10.561  13.619  65.117  1.00  0.00    -0.361 A  
HETATM   22  C   UNL     1     -10.720  12.889  63.963  1.00  0.00    -0.399 A  
HETATM   23  C   UNL     1     -12.519  12.607  65.072  1.00  0.00    -0.487 A  
ENDBRANCH  18  19
ENDBRANCH   9  18
ENDBRANCH   8   9
ENDBRANCH   7   8
ENDBRANCH   3   7
TORSDOF 6
ENDMDL
MODEL       28
REMARK 921   NORMALIZED FREE ENERGY PREDICTED BY IDOCK:   -5.76 KCAL/MOL
REMARK 922        TOTAL FREE ENERGY PREDICTED BY IDOCK:   -8.82 KCAL/MOL
REMARK 923 INTER-LIGAND FREE ENERGY PREDICTED BY IDOCK:   -7.95 KCAL/MOL
REMARK 924 INTRA-LIGAND FREE ENERGY PREDICTED BY IDOCK:   -0.87 KCAL/MOL
REMARK 927      BINDING AFFINITY PREDICTED BY RF-SCORE:    0.00 PKD
ROOT
HETATM    1 CL   UNL     1     -13.464  15.677  72.618  1.00  0.00    -0.605 Cl 
HETATM    2  C   UNL     1     -12.858  14.486  71.530  1.00  0.00    -0.336 A  
HETATM    3  C   UNL     1     -12.037  14.695  70.444  1.00  0.00    -0.383 A  
HETATM    4  C   UNL     1     -11.725  13.431  69.826  1.00  0.00    -0.355 A  
HETATM    5  S   UNL     1     -13.274  12.865  71.789  1.00  0.00    -0.305 SA 
HETATM    6  C   UNL     1     -12.335  12.363  70.450  1.00  0.00    -0.227 A  
ENDROOT
BRANCH   3   7
HETATM    7  C   UNL     1     -11.502  16.025  70.000  1.00  0.00    -0.331 C  
BRANCH   7   8
HETATM    8  O   UNL     1     -11.634  16.182  68.588  1.00  0.00    -0.376 OA 
BRANCH   8   9
HETATM    9  C   UNL     1     -10.434  15.987  67.813  1.00  0.00    -0.298 C  
BRANCH   9  10
HETATM   10  C   UNL     1      -9.542  17.230  67.965  1.00  0.00    -0.274 A  
HETATM   11  C   UNL     1      -9.179  19.620  67.543  1.00  0.00    -0.409 A  
HETATM   12  C   UNL     1      -8.277  17.198  68.584  1.00  0.00    -0.255 A  
HETATM   13  C   UNL     1      -9.981  18.477  67.470  1.00  0.00    -0.354 A  
HETATM   14 CL   UNL     1      -7.662  15.786  69.372  1.00  0.00    -0.226 Cl 
HETATM   15 CL   UNL     1      -6.909  20.934  68.161  1.00  0.00    -0.237 Cl 
HETATM   16  C   UNL     1      -7.457  18.334  68.625  1.00  0.00    -0.308 A  
HETATM   17  C   UNL     1      -7.911  19.537  68.101  1.00  0.00    -0.318 A  
ENDBRANCH   9  10
BRANCH   9  18
HETATM   18  C   UNL     1     -10.775  15.637  66.343  1.00  0.00    -0.291 C  
BRANCH  18  19
HETATM   19  N   UNL     1     -11.186  14.265  66.131  1.00  0.00    -0.325 NA 
HETATM   20  N   UNL     1     -12.447  12.559  65.493  1.00  0.00    -0.635 NA 
HETATM   21  C   UNL     1     -10.415  13.149  66.286  1.00  0.00    -0.285 A  
HETATM   22  C   UNL     1     -11.217  12.105  65.890  1.00  0.00    -0.339 A  
HETATM   23  C   UNL     1     -12.398  13.862  65.639  1.00  0.00    -0.482 A  
ENDBRANCH  18  19
ENDBRANCH   9  18
ENDBRANCH   8   9
ENDBRANCH   7   8
ENDBRANCH   3   7
TORSDOF 6
ENDMDL
MODEL       29
REMARK 921   NORMALIZED FREE ENERGY PREDICTED BY IDOCK:   -5.74 KCAL/MOL
REMARK 922        TOTAL FREE ENERGY PREDICTED BY IDOCK:   -8.80 KCAL/MOL
REMARK 923 INTER-LIGAND FREE ENERGY PREDICTED BY IDOCK:   -8.13 KCAL/MOL
REMARK 924 INTRA-LIGAND FREE ENERGY PREDICTED BY IDOCK:   -0.67 KCAL/MOL
REMARK 927      BINDING AFFINITY PREDICTED BY RF-SCORE:    0.00 PKD
ROOT
HETATM    1 CL   UNL     1      -9.847   8.644  69.587  1.00  0.00    -0.183 Cl 
HETATM    2  C   UNL     1     -10.985   9.789  70.188  1.00  0.00    -0.291 A  
HETATM    3  C   UNL     1     -11.183  11.077  69.741  1.00  0.00    -0.339 A  
HETATM    4  C   UNL     1     -12.262  11.683  70.481  1.00  0.00    -0.451 A  
HETATM    5  S   UNL     1     -12.008   9.326  71.456  1.00  0.00    -0.392 SA 
HETATM    6  C   UNL     1     -12.790  10.847  71.442  1.00  0.00    -0.449 A  
ENDROOT
BRANCH   3   7
HETATM    7  C   UNL     1     -10.433  11.735  68.621  1.00  0.00    -0.222 C  
BRANCH   7   8
HETATM    8  O   UNL     1     -10.545  13.155  68.695  1.00  0.00    -0.249 OA 
BRANCH   8   9
HETATM    9  C   UNL     1     -10.694  13.847  67.440  1.00  0.00    -0.272 C  
BRANCH   9  10
HETATM   10  C   UNL     1     -10.250  15.307  67.626  1.00  0.00    -0.242 A  
HETATM   11  C   UNL     1      -8.820  17.173  66.922  1.00  0.00    -0.255 A  
HETATM   12  C   UNL     1     -10.757  16.143  68.640  1.00  0.00    -0.295 A  
HETATM   13  C   UNL     1      -9.289  15.867  66.756  1.00  0.00    -0.262 A  
HETATM   14 CL   UNL     1     -12.044  15.657  69.689  1.00  0.00    -0.371 Cl 
HETATM   15 CL   UNL     1      -8.694  19.543  68.200  1.00  0.00    -0.359 Cl 
HETATM   16  C   UNL     1     -10.262  17.440  68.831  1.00  0.00    -0.352 A  
HETATM   17  C   UNL     1      -9.294  17.947  67.973  1.00  0.00    -0.274 A  
ENDBRANCH   9  10
BRANCH   9  18
HETATM   18  C   UNL     1     -12.135  13.696  66.892  1.00  0.00    -0.386 C  
BRANCH  18  19
HETATM   19  N   UNL     1     -12.215  13.431  65.471  1.00  0.00    -0.427 NA 
HETATM   20  N   UNL     1     -12.361  13.832  63.297  1.00  0.00    -0.727 NA 
HETATM   21  C   UNL     1     -12.014  12.230  64.852  1.00  0.00    -0.357 A  
HETATM   22  C   UNL     1     -12.115  12.501  63.508  1.00  0.00    -0.562 A  
HETATM   23  C   UNL     1     -12.408  14.369  64.494  1.00  0.00    -0.418 A  
ENDBRANCH  18  19
ENDBRANCH   9  18
ENDBRANCH   8   9
ENDBRANCH   7   8
ENDBRANCH   3   7
TORSDOF 6
ENDMDL
MODEL       30
REMARK 921   NORMALIZED FREE ENERGY PREDICTED BY IDOCK:   -5.74 KCAL/MOL
REMARK 922        TOTAL FREE ENERGY PREDICTED BY IDOCK:   -8.79 KCAL/MOL
REMARK 923 INTER-LIGAND FREE ENERGY PREDICTED BY IDOCK:   -7.85 KCAL/MOL
REMARK 924 INTRA-LIGAND FREE ENERGY PREDICTED BY IDOCK:   -0.94 KCAL/MOL
REMARK 927      BINDING AFFINITY PREDICTED BY RF-SCORE:    0.00 PKD
ROOT
HETATM    1 CL   UNL     1     -10.636  19.404  66.113  1.00  0.00    -0.570 Cl 
HETATM    2  C   UNL     1      -9.448  18.622  67.085  1.00  0.00    -0.295 A  
HETATM    3  C   UNL     1      -9.075  17.297  67.036  1.00  0.00    -0.247 A  
HETATM    4  C   UNL     1      -8.015  17.058  67.982  1.00  0.00    -0.195 A  
HETATM    5  S   UNL     1      -8.604  19.541  68.230  1.00  0.00    -0.327 SA 
HETATM    6  C   UNL     1      -7.671  18.186  68.698  1.00  0.00    -0.297 A  
ENDROOT
BRANCH   3   7
HETATM    7  C   UNL     1      -9.642  16.267  66.103  1.00  0.00    -0.331 C  
BRANCH   7   8
HETATM    8  O   UNL     1     -10.983  15.935  66.464  1.00  0.00    -0.252 OA 
BRANCH   8   9
HETATM    9  C   UNL     1     -11.212  14.570  66.867  1.00  0.00    -0.336 C  
BRANCH   9  10
HETATM   10  C   UNL     1     -11.621  14.557  68.349  1.00  0.00    -0.356 A  
HETATM   11  C   UNL     1     -12.073  15.801  70.415  1.00  0.00    -0.399 A  
HETATM   12  C   UNL     1     -11.878  13.371  69.065  1.00  0.00    -0.335 A  
HETATM   13  C   UNL     1     -11.753  15.772  69.054  1.00  0.00    -0.405 A  
HETATM   14 CL   UNL     1     -11.906  11.815  68.310  1.00  0.00    -0.371 Cl 
HETATM   15 CL   UNL     1     -12.615  14.642  72.787  1.00  0.00    -0.427 Cl 
HETATM   16  C   UNL     1     -12.163  13.396  70.437  1.00  0.00    -0.415 A  
HETATM   17  C   UNL     1     -12.255  14.611  71.105  1.00  0.00    -0.340 A  
ENDBRANCH   9  10
BRANCH   9  18
HETATM   18  C   UNL     1      -9.982  13.684  66.547  1.00  0.00    -0.288 C  
BRANCH  18  19
HETATM   19  N   UNL     1     -10.154  12.802  65.413  1.00  0.00    -0.281 NA 
HETATM   20  N   UNL     1     -10.745  12.129  63.387  1.00  0.00    -0.438 NA 
HETATM   21  C   UNL     1      -9.605  11.562  65.253  1.00  0.00    -0.218 A  
HETATM   22  C   UNL     1      -9.987  11.163  63.994  1.00  0.00    -0.323 A  
HETATM   23  C   UNL     1     -10.821  13.107  64.259  1.00  0.00    -0.406 A  
ENDBRANCH  18  19
ENDBRANCH   9  18
ENDBRANCH   8   9
ENDBRANCH   7   8
ENDBRANCH   3   7
TORSDOF 6
ENDMDL
MODEL       31
REMARK 921   NORMALIZED FREE ENERGY PREDICTED BY IDOCK:   -5.73 KCAL/MOL
REMARK 922        TOTAL FREE ENERGY PREDICTED BY IDOCK:   -8.78 KCAL/MOL
REMARK 923 INTER-LIGAND FREE ENERGY PREDICTED BY IDOCK:   -7.87 KCAL/MOL
REMARK 924 INTRA-LIGAND FREE ENERGY PREDICTED BY IDOCK:   -0.91 KCAL/MOL
REMARK 927      BINDING AFFINITY PREDICTED BY RF-SCORE:    0.00 PKD
ROOT
HETATM    1 CL   UNL     1      -8.162  16.667  66.199  1.00  0.00    -0.352 Cl 
HETATM    2  C   UNL     1      -8.926  18.130  66.691  1.00  0.00    -0.282 A  
HETATM    3  C   UNL     1     -10.078  18.255  67.437  1.00  0.00    -0.364 A  
HETATM    4  C   UNL     1     -10.352  19.651  67.668  1.00  0.00    -0.583 A  
HETATM    5  S   UNL     1      -8.218  19.603  66.249  1.00  0.00    -0.345 SA 
HETATM    6  C   UNL     1      -9.429  20.485  67.074  1.00  0.00    -0.375 A  
ENDROOT
BRANCH   3   7
HETATM    7  C   UNL     1     -10.894  17.117  67.977  1.00  0.00    -0.317 C  
BRANCH   7   8
HETATM    8  O   UNL     1     -10.104  16.277  68.818  1.00  0.00    -0.222 OA 
BRANCH   8   9
HETATM    9  C   UNL     1     -10.745  15.079  69.300  1.00  0.00    -0.248 C  
BRANCH   9  10
HETATM   10  C   UNL     1     -10.510  13.951  68.283  1.00  0.00    -0.252 A  
HETATM   11  C   UNL     1     -11.418  12.441  66.574  1.00  0.00    -0.427 A  
HETATM   12  C   UNL     1      -9.261  13.324  68.103  1.00  0.00    -0.212 A  
HETATM   13  C   UNL     1     -11.576  13.499  67.475  1.00  0.00    -0.385 A  
HETATM   14 CL   UNL     1      -7.826  13.862  68.904  1.00  0.00    -0.076 Cl 
HETATM   15 CL   UNL     1     -10.000  10.480  65.388  1.00  0.00    -0.331 Cl 
HETATM   16  C   UNL     1      -9.110  12.240  67.227  1.00  0.00    -0.184 A  
HETATM   17  C   UNL     1     -10.190  11.803  66.470  1.00  0.00    -0.208 A  
ENDBRANCH   9  10
BRANCH   9  18
HETATM   18  C   UNL     1     -12.239  15.339  69.615  1.00  0.00    -0.271 C  
BRANCH  18  19
HETATM   19  N   UNL     1     -12.522  15.620  71.006  1.00  0.00    -0.429 NA 
HETATM   20  N   UNL     1     -13.622  15.646  72.929  1.00  0.00    -0.562 NA 
HETATM   21  C   UNL     1     -11.649  16.115  71.933  1.00  0.00    -0.402 A  
HETATM   22  C   UNL     1     -12.353  16.127  73.113  1.00  0.00    -0.538 A  
HETATM   23  C   UNL     1     -13.694  15.340  71.655  1.00  0.00    -0.505 A  
ENDBRANCH  18  19
ENDBRANCH   9  18
ENDBRANCH   8   9
ENDBRANCH   7   8
ENDBRANCH   3   7
TORSDOF 6
ENDMDL
MODEL       32
REMARK 921   NORMALIZED FREE ENERGY PREDICTED BY IDOCK:   -5.72 KCAL/MOL
REMARK 922        TOTAL FREE ENERGY PREDICTED BY IDOCK:   -8.77 KCAL/MOL
REMARK 923 INTER-LIGAND FREE ENERGY PREDICTED BY IDOCK:   -7.83 KCAL/MOL
REMARK 924 INTRA-LIGAND FREE ENERGY PREDICTED BY IDOCK:   -0.94 KCAL/MOL
REMARK 927      BINDING AFFINITY PREDICTED BY RF-SCORE:    0.00 PKD
ROOT
HETATM    1 CL   UNL     1     -10.834  16.505  69.964  1.00  0.00    -0.322 Cl 
HETATM    2  C   UNL     1     -11.836  15.510  70.949  1.00  0.00    -0.371 A  
HETATM    3  C   UNL     1     -12.472  14.345  70.577  1.00  0.00    -0.416 A  
HETATM    4  C   UNL     1     -13.173  13.796  71.711  1.00  0.00    -0.467 A  
HETATM    5  S   UNL     1     -12.086  15.955  72.563  1.00  0.00    -0.553 SA 
HETATM    6  C   UNL     1     -13.051  14.572  72.844  1.00  0.00    -0.519 A  
ENDROOT
BRANCH   3   7
HETATM    7  C   UNL     1     -12.405  13.712  69.218  1.00  0.00    -0.116 C  
BRANCH   7   8
HETATM    8  O   UNL     1     -11.248  12.886  69.097  1.00  0.00    -0.256 OA 
BRANCH   8   9
HETATM    9  C   UNL     1     -11.479  11.530  68.664  1.00  0.00    -0.293 C  
BRANCH   9  10
HETATM   10  C   UNL     1     -10.905  10.571  69.719  1.00  0.00    -0.335 A  
HETATM   11  C   UNL     1      -8.983   9.327  70.603  1.00  0.00    -0.296 A  
HETATM   12  C   UNL     1     -11.686   9.991  70.738  1.00  0.00    -0.350 A  
HETATM   13  C   UNL     1      -9.534  10.235  69.693  1.00  0.00    -0.180 A  
HETATM   14 CL   UNL     1     -13.343  10.417  70.997  1.00  0.00    -0.346 Cl 
HETATM   15 CL   UNL     1      -9.129   7.582  72.652  1.00  0.00    -0.180 Cl 
HETATM   16  C   UNL     1     -11.144   9.053  71.627  1.00  0.00    -0.433 A  
HETATM   17  C   UNL     1      -9.796   8.724  71.553  1.00  0.00    -0.301 A  
ENDBRANCH   9  10
BRANCH   9  18
HETATM   18  C   UNL     1     -10.918  11.302  67.238  1.00  0.00    -0.286 C  
BRANCH  18  19
HETATM   19  N   UNL     1     -11.116  12.410  66.328  1.00  0.00    -0.289 NA 
HETATM   20  N   UNL     1     -10.617  14.128  65.021  1.00  0.00    -0.395 NA 
HETATM   21  C   UNL     1     -12.269  12.729  65.669  1.00  0.00    -0.444 A  
HETATM   22  C   UNL     1     -11.937  13.798  64.870  1.00  0.00    -0.390 A  
HETATM   23  C   UNL     1     -10.145  13.272  65.897  1.00  0.00    -0.291 A  
ENDBRANCH  18  19
ENDBRANCH   9  18
ENDBRANCH   8   9
ENDBRANCH   7   8
ENDBRANCH   3   7
TORSDOF 6
ENDMDL
MODEL       33
REMARK 921   NORMALIZED FREE ENERGY PREDICTED BY IDOCK:   -5.71 KCAL/MOL
REMARK 922        TOTAL FREE ENERGY PREDICTED BY IDOCK:   -8.75 KCAL/MOL
REMARK 923 INTER-LIGAND FREE ENERGY PREDICTED BY IDOCK:   -7.83 KCAL/MOL
REMARK 924 INTRA-LIGAND FREE ENERGY PREDICTED BY IDOCK:   -0.91 KCAL/MOL
REMARK 927      BINDING AFFINITY PREDICTED BY RF-SCORE:    0.00 PKD
ROOT
HETATM    1 CL   UNL     1      -8.841   8.785  65.363  1.00  0.00    -0.226 Cl 
HETATM    2  C   UNL     1      -9.674  10.183  64.800  1.00  0.00    -0.322 A  
HETATM    3  C   UNL     1     -10.537  10.982  65.519  1.00  0.00    -0.267 A  
HETATM    4  C   UNL     1     -10.983  12.075  64.693  1.00  0.00    -0.367 A  
HETATM    5  S   UNL     1      -9.429  10.685  63.202  1.00  0.00    -0.359 SA 
HETATM    6  C   UNL     1     -10.464  12.029  63.416  1.00  0.00    -0.433 A  
ENDROOT
BRANCH   3   7
HETATM    7  C   UNL     1     -10.915  10.781  66.958  1.00  0.00    -0.227 C  
BRANCH   7   8
HETATM    8  O   UNL     1     -11.981  11.652  67.332  1.00  0.00    -0.621 OA 
BRANCH   8   9
HETATM    9  C   UNL     1     -11.948  12.152  68.683  1.00  0.00    -0.237 C  
BRANCH   9  10
HETATM   10  C   UNL     1     -11.652  13.660  68.644  1.00  0.00    -0.364 A  
HETATM   11  C   UNL     1     -10.699  15.583  67.455  1.00  0.00    -0.301 A  
HETATM   12  C   UNL     1     -11.972  14.535  69.701  1.00  0.00    -0.328 A  
HETATM   13  C   UNL     1     -11.031  14.226  67.510  1.00  0.00    -0.297 A  
HETATM   14 CL   UNL     1     -12.868  14.027  71.091  1.00  0.00    -0.415 Cl 
HETATM   15 CL   UNL     1     -10.531  18.066  68.490  1.00  0.00    -0.341 Cl 
HETATM   16  C   UNL     1     -11.607  15.888  69.663  1.00  0.00    -0.339 A  
HETATM   17  C   UNL     1     -10.969  16.403  68.541  1.00  0.00    -0.350 A  
ENDBRANCH   9  10
BRANCH   9  18
HETATM   18  C   UNL     1     -10.953  11.340  69.550  1.00  0.00    -0.191 C  
BRANCH  18  19
HETATM   19  N   UNL     1     -11.574  10.486  70.540  1.00  0.00    -0.330 NA 
HETATM   20  N   UNL     1     -13.170   9.582  71.782  1.00  0.00    -0.394 NA 
HETATM   21  C   UNL     1     -10.994   9.437  71.193  1.00  0.00    -0.360 A  
HETATM   22  C   UNL     1     -11.998   8.895  71.959  1.00  0.00    -0.369 A  
HETATM   23  C   UNL     1     -12.889  10.528  70.917  1.00  0.00    -0.394 A  
ENDBRANCH  18  19
ENDBRANCH   9  18
ENDBRANCH   8   9
ENDBRANCH   7   8
ENDBRANCH   3   7
TORSDOF 6
ENDMDL
MODEL       34
REMARK 921   NORMALIZED FREE ENERGY PREDICTED BY IDOCK:   -5.66 KCAL/MOL
REMARK 922        TOTAL FREE ENERGY PREDICTED BY IDOCK:   -8.69 KCAL/MOL
REMARK 923 INTER-LIGAND FREE ENERGY PREDICTED BY IDOCK:   -8.13 KCAL/MOL
REMARK 924 INTRA-LIGAND FREE ENERGY PREDICTED BY IDOCK:   -0.56 KCAL/MOL
REMARK 927      BINDING AFFINITY PREDICTED BY RF-SCORE:    0.00 PKD
ROOT
HETATM    1 CL   UNL     1     -14.238   8.956  72.101  1.00  0.00    -0.479 Cl 
HETATM    2  C   UNL     1     -12.552   9.000  71.753  1.00  0.00    -0.367 A  
HETATM    3  C   UNL     1     -11.887   9.931  70.985  1.00  0.00    -0.463 A  
HETATM    4  C   UNL     1     -10.477   9.635  70.983  1.00  0.00    -0.327 A  
HETATM    5  S   UNL     1     -11.555   7.802  72.414  1.00  0.00    -0.356 SA 
HETATM    6  C   UNL     1     -10.164   8.506  71.711  1.00  0.00    -0.282 A  
ENDROOT
BRANCH   3   7
HETATM    7  C   UNL     1     -12.519  11.108  70.301  1.00  0.00    -0.274 C  
BRANCH   7   8
HETATM    8  O   UNL     1     -11.553  12.124  70.035  1.00  0.00    -0.266 OA 
BRANCH   8   9
HETATM    9  C   UNL     1     -12.019  13.261  69.282  1.00  0.00    -0.303 C  
BRANCH   9  10
HETATM   10  C   UNL     1     -11.633  13.069  67.807  1.00  0.00    -0.385 A  
HETATM   11  C   UNL     1     -12.223  13.284  65.435  1.00  0.00    -0.501 A  
HETATM   12  C   UNL     1     -10.417  12.483  67.400  1.00  0.00    -0.219 A  
HETATM   13  C   UNL     1     -12.515  13.487  66.787  1.00  0.00    -0.213 A  
HETATM   14 CL   UNL     1      -9.169  12.056  68.519  1.00  0.00    -0.158 Cl 
HETATM   15 CL   UNL     1     -10.701  12.362  63.411  1.00  0.00    -0.462 Cl 
HETATM   16  C   UNL     1     -10.140  12.245  66.047  1.00  0.00    -0.269 A  
HETATM   17  C   UNL     1     -11.047  12.644  65.072  1.00  0.00    -0.291 A  
ENDBRANCH   9  10
BRANCH   9  18
HETATM   18  C   UNL     1     -11.499  14.584  69.899  1.00  0.00    -0.270 C  
BRANCH  18  19
HETATM   19  N   UNL     1     -12.257  15.056  71.038  1.00  0.00    -0.300 NA 
HETATM   20  N   UNL     1     -14.003  15.427  72.351  1.00  0.00    -0.541 NA 
HETATM   21  C   UNL     1     -11.753  15.562  72.202  1.00  0.00    -0.476 A  
HETATM   22  C   UNL     1     -12.851  15.789  72.997  1.00  0.00    -0.502 A  
HETATM   23  C   UNL     1     -13.616  14.981  71.179  1.00  0.00    -0.427 A  
ENDBRANCH  18  19
ENDBRANCH   9  18
ENDBRANCH   8   9
ENDBRANCH   7   8
ENDBRANCH   3   7
TORSDOF 6
ENDMDL
MODEL       35
REMARK 921   NORMALIZED FREE ENERGY PREDICTED BY IDOCK:   -5.63 KCAL/MOL
REMARK 922        TOTAL FREE ENERGY PREDICTED BY IDOCK:   -8.64 KCAL/MOL
REMARK 923 INTER-LIGAND FREE ENERGY PREDICTED BY IDOCK:   -8.03 KCAL/MOL
REMARK 924 INTRA-LIGAND FREE ENERGY PREDICTED BY IDOCK:   -0.61 KCAL/MOL
REMARK 927      BINDING AFFINITY PREDICTED BY RF-SCORE:    0.00 PKD
ROOT
HETATM    1 CL   UNL     1      -9.164   9.422  70.502  1.00  0.00    -0.302 Cl 
HETATM    2  C   UNL     1      -9.758   8.961  68.952  1.00  0.00    -0.171 A  
HETATM    3  C   UNL     1      -9.829   9.747  67.822  1.00  0.00    -0.191 A  
HETATM    4  C   UNL     1     -10.343   8.967  66.725  1.00  0.00    -0.310 A  
HETATM    5  S   UNL     1     -10.310   7.375  68.734  1.00  0.00    -0.195 SA 
HETATM    6  C   UNL     1     -10.649   7.672  67.084  1.00  0.00    -0.340 A  
ENDROOT
BRANCH   3   7
HETATM    7  C   UNL     1      -9.389  11.179  67.729  1.00  0.00    -0.164 C  
BRANCH   7   8
HETATM    8  O   UNL     1     -10.075  11.987  68.684  1.00  0.00    -0.212 OA 
BRANCH   8   9
HETATM    9  C   UNL     1     -10.996  12.958  68.150  1.00  0.00    -0.248 C  
BRANCH   9  10
HETATM   10  C   UNL     1     -11.723  13.643  69.318  1.00  0.00    -0.376 A  
HETATM   11  C   UNL     1     -12.462  15.713  70.408  1.00  0.00    -0.409 A  
HETATM   12  C   UNL     1     -12.282  12.933  70.400  1.00  0.00    -0.304 A  
HETATM   13  C   UNL     1     -11.853  15.048  69.340  1.00  0.00    -0.358 A  
HETATM   14 CL   UNL     1     -12.339  11.205  70.448  1.00  0.00    -0.421 Cl 
HETATM   15 CL   UNL     1     -13.661  15.804  72.820  1.00  0.00    -0.658 Cl 
HETATM   16  C   UNL     1     -12.859  13.600  71.489  1.00  0.00    -0.445 A  
HETATM   17  C   UNL     1     -12.943  14.987  71.488  1.00  0.00    -0.358 A  
ENDBRANCH   9  10
BRANCH   9  18
HETATM   18  C   UNL     1     -11.948  12.307  67.115  1.00  0.00    -0.137 C  
BRANCH  18  19
HETATM   19  N   UNL     1     -12.075  13.036  65.871  1.00  0.00    -0.433 NA 
HETATM   20  N   UNL     1     -12.497  13.415  63.730  1.00  0.00    -0.721 NA 
HETATM   21  C   UNL     1     -12.011  14.390  65.709  1.00  0.00    -0.357 A  
HETATM   22  C   UNL     1     -12.270  14.601  64.376  1.00  0.00    -0.452 A  
HETATM   23  C   UNL     1     -12.382  12.491  64.655  1.00  0.00    -0.474 A  
ENDBRANCH  18  19
ENDBRANCH   9  18
ENDBRANCH   8   9
ENDBRANCH   7   8
ENDBRANCH   3   7
TORSDOF 6
ENDMDL
MODEL       36
REMARK 921   NORMALIZED FREE ENERGY PREDICTED BY IDOCK:   -5.62 KCAL/MOL
REMARK 922        TOTAL FREE ENERGY PREDICTED BY IDOCK:   -8.63 KCAL/MOL
REMARK 923 INTER-LIGAND FREE ENERGY PREDICTED BY IDOCK:   -7.56 KCAL/MOL
REMARK 924 INTRA-LIGAND FREE ENERGY PREDICTED BY IDOCK:   -1.08 KCAL/MOL
REMARK 927      BINDING AFFINITY PREDICTED BY RF-SCORE:    0.00 PKD
ROOT
HETATM    1 CL   UNL     1     -10.658   7.967  67.738  1.00  0.00    -0.272 Cl 
HETATM    2  C   UNL     1     -10.109   9.314  66.816  1.00  0.00    -0.261 A  
HETATM    3  C   UNL     1     -10.372  10.646  67.054  1.00  0.00    -0.280 A  
HETATM    4  C   UNL     1      -9.687  11.454  66.077  1.00  0.00    -0.253 A  
HETATM    5  S   UNL     1      -9.123   9.028  65.469  1.00  0.00    -0.191 SA 
HETATM    6  C   UNL     1      -8.983  10.704  65.159  1.00  0.00    -0.198 A  
ENDROOT
BRANCH   3   7
HETATM    7  C   UNL     1     -11.196  11.181  68.188  1.00  0.00    -0.292 C  
BRANCH   7   8
HETATM    8  O   UNL     1     -12.078  12.209  67.736  1.00  0.00    -0.508 OA 
BRANCH   8   9
HETATM    9  C   UNL     1     -12.022  13.455  68.458  1.00  0.00    -0.328 C  
BRANCH   9  10
HETATM   10  C   UNL     1     -10.948  14.349  67.816  1.00  0.00    -0.283 A  
HETATM   11  C   UNL     1      -8.832  15.573  68.030  1.00  0.00    -0.165 A  
HETATM   12  C   UNL     1     -11.037  14.831  66.495  1.00  0.00    -0.334 A  
HETATM   13  C   UNL     1      -9.807  14.722  68.559  1.00  0.00    -0.218 A  
HETATM   14 CL   UNL     1     -12.292  14.345  65.410  1.00  0.00    -0.384 Cl 
HETATM   15 CL   UNL     1      -7.806  17.159  66.107  1.00  0.00    -0.339 Cl 
HETATM   16  C   UNL     1     -10.080  15.715  65.977  1.00  0.00    -0.355 A  
HETATM   17  C   UNL     1      -8.985  16.083  66.748  1.00  0.00    -0.246 A  
ENDBRANCH   9  10
BRANCH   9  18
HETATM   18  C   UNL     1     -11.810  13.209  69.973  1.00  0.00    -0.290 C  
BRANCH  18  19
HETATM   19  N   UNL     1     -12.782  13.853  70.830  1.00  0.00    -0.329 NA 
HETATM   20  N   UNL     1     -14.229  14.110  72.487  1.00  0.00    -0.612 NA 
HETATM   21  C   UNL     1     -13.105  15.180  70.845  1.00  0.00    -0.441 A  
HETATM   22  C   UNL     1     -14.005  15.315  71.875  1.00  0.00    -0.542 A  
HETATM   23  C   UNL     1     -13.474  13.251  71.845  1.00  0.00    -0.438 A  
ENDBRANCH  18  19
ENDBRANCH   9  18
ENDBRANCH   8   9
ENDBRANCH   7   8
ENDBRANCH   3   7
TORSDOF 6
ENDMDL
MODEL       37
REMARK 921   NORMALIZED FREE ENERGY PREDICTED BY IDOCK:   -5.60 KCAL/MOL
REMARK 922        TOTAL FREE ENERGY PREDICTED BY IDOCK:   -8.61 KCAL/MOL
REMARK 923 INTER-LIGAND FREE ENERGY PREDICTED BY IDOCK:   -7.77 KCAL/MOL
REMARK 924 INTRA-LIGAND FREE ENERGY PREDICTED BY IDOCK:   -0.84 KCAL/MOL
REMARK 927      BINDING AFFINITY PREDICTED BY RF-SCORE:    0.00 PKD
ROOT
HETATM    1 CL   UNL     1      -9.738   9.045  71.071  1.00  0.00    -0.319 Cl 
HETATM    2  C   UNL     1     -10.083   8.486  69.479  1.00  0.00    -0.200 A  
HETATM    3  C   UNL     1     -10.028   9.216  68.312  1.00  0.00    -0.199 A  
HETATM    4  C   UNL     1     -10.344   8.363  67.194  1.00  0.00    -0.381 A  
HETATM    5  S   UNL     1     -10.526   6.866  69.267  1.00  0.00    -0.224 SA 
HETATM    6  C   UNL     1     -10.639   7.070  67.573  1.00  0.00    -0.280 A  
ENDROOT
BRANCH   3   7
HETATM    7  C   UNL     1      -9.644  10.663  68.208  1.00  0.00    -0.162 C  
BRANCH   7   8
HETATM    8  O   UNL     1     -10.464  11.471  69.051  1.00  0.00    -0.203 OA 
BRANCH   8   9
HETATM    9  C   UNL     1     -10.975  12.685  68.466  1.00  0.00    -0.261 C  
BRANCH   9  10
HETATM   10  C   UNL     1     -11.704  13.488  69.555  1.00  0.00    -0.382 A  
HETATM   11  C   UNL     1     -13.063  13.504  71.598  1.00  0.00    -0.459 A  
HETATM   12  C   UNL     1     -11.773  14.895  69.558  1.00  0.00    -0.320 A  
HETATM   13  C   UNL     1     -12.347  12.814  70.616  1.00  0.00    -0.381 A  
HETATM   14 CL   UNL     1     -10.914  15.871  68.416  1.00  0.00    -0.314 Cl 
HETATM   15 CL   UNL     1     -14.074  15.736  72.721  1.00  0.00    -0.586 Cl 
HETATM   16  C   UNL     1     -12.521  15.587  70.521  1.00  0.00    -0.472 A  
HETATM   17  C   UNL     1     -13.165  14.887  71.533  1.00  0.00    -0.368 A  
ENDBRANCH   9  10
BRANCH   9  18
HETATM   18  C   UNL     1     -11.849  12.376  67.224  1.00  0.00    -0.287 C  
BRANCH  18  19
HETATM   19  N   UNL     1     -11.737  13.344  66.154  1.00  0.00    -0.351 NA 
HETATM   20  N   UNL     1     -10.790  14.634  64.622  1.00  0.00    -0.363 NA 
HETATM   21  C   UNL     1     -12.761  13.869  65.418  1.00  0.00    -0.490 A  
HETATM   22  C   UNL     1     -12.152  14.668  64.480  1.00  0.00    -0.475 A  
HETATM   23  C   UNL     1     -10.568  13.823  65.630  1.00  0.00    -0.298 A  
ENDBRANCH  18  19
ENDBRANCH   9  18
ENDBRANCH   8   9
ENDBRANCH   7   8
ENDBRANCH   3   7
TORSDOF 6
ENDMDL
MODEL       38
REMARK 921   NORMALIZED FREE ENERGY PREDICTED BY IDOCK:   -5.59 KCAL/MOL
REMARK 922        TOTAL FREE ENERGY PREDICTED BY IDOCK:   -8.59 KCAL/MOL
REMARK 923 INTER-LIGAND FREE ENERGY PREDICTED BY IDOCK:   -7.85 KCAL/MOL
REMARK 924 INTRA-LIGAND FREE ENERGY PREDICTED BY IDOCK:   -0.74 KCAL/MOL
REMARK 927      BINDING AFFINITY PREDICTED BY RF-SCORE:    0.00 PKD
ROOT
HETATM    1 CL   UNL     1     -10.164  15.576  65.087  1.00  0.00    -0.377 Cl 
HETATM    2  C   UNL     1      -9.518  16.252  66.533  1.00  0.00    -0.264 A  
HETATM    3  C   UNL     1     -10.041  16.149  67.804  1.00  0.00    -0.250 A  
HETATM    4  C   UNL     1      -9.171  16.817  68.739  1.00  0.00    -0.260 A  
HETATM    5  S   UNL     1      -8.076  17.135  66.443  1.00  0.00    -0.303 SA 
HETATM    6  C   UNL     1      -8.077  17.398  68.133  1.00  0.00    -0.232 A  
ENDROOT
BRANCH   3   7
HETATM    7  C   UNL     1     -11.293  15.408  68.173  1.00  0.00    -0.348 C  
BRANCH   7   8
HETATM    8  O   UNL     1     -10.984  14.163  68.797  1.00  0.00    -0.241 OA 
BRANCH   8   9
HETATM    9  C   UNL     1     -11.602  12.994  68.221  1.00  0.00    -0.340 C  
BRANCH   9  10
HETATM   10  C   UNL     1     -11.814  11.952  69.331  1.00  0.00    -0.389 A  
HETATM   11  C   UNL     1     -11.542   9.647  70.128  1.00  0.00    -0.193 A  
HETATM   12  C   UNL     1     -12.484  12.237  70.538  1.00  0.00    -0.189 A  
HETATM   13  C   UNL     1     -11.326  10.637  69.166  1.00  0.00    -0.338 A  
HETATM   14 CL   UNL     1     -13.007  13.832  70.957  1.00  0.00    -0.356 Cl 
HETATM   15 CL   UNL     1     -12.560   8.721  72.446  1.00  0.00    -0.451 Cl 
HETATM   16  C   UNL     1     -12.733  11.237  71.487  1.00  0.00    -0.481 A  
HETATM   17  C   UNL     1     -12.263   9.946  71.275  1.00  0.00    -0.387 A  
ENDBRANCH   9  10
BRANCH   9  18
HETATM   18  C   UNL     1     -10.781  12.470  67.017  1.00  0.00    -0.242 C  
BRANCH  18  19
HETATM   19  N   UNL     1     -11.513  12.408  65.770  1.00  0.00    -0.352 NA 
HETATM   20  N   UNL     1     -13.012  12.927  64.224  1.00  0.00    -0.654 NA 
HETATM   21  C   UNL     1     -11.181  11.678  64.665  1.00  0.00    -0.253 A  
HETATM   22  C   UNL     1     -12.125  12.011  63.723  1.00  0.00    -0.499 A  
HETATM   23  C   UNL     1     -12.615  13.154  65.454  1.00  0.00    -0.454 A  
ENDBRANCH  18  19
ENDBRANCH   9  18
ENDBRANCH   8   9
ENDBRANCH   7   8
ENDBRANCH   3   7
TORSDOF 6
ENDMDL
MODEL       39
REMARK 921   NORMALIZED FREE ENERGY PREDICTED BY IDOCK:   -5.59 KCAL/MOL
REMARK 922        TOTAL FREE ENERGY PREDICTED BY IDOCK:   -8.59 KCAL/MOL
REMARK 923 INTER-LIGAND FREE ENERGY PREDICTED BY IDOCK:   -7.75 KCAL/MOL
REMARK 924 INTRA-LIGAND FREE ENERGY PREDICTED BY IDOCK:   -0.84 KCAL/MOL
REMARK 927      BINDING AFFINITY PREDICTED BY RF-SCORE:    0.00 PKD
ROOT
HETATM    1 CL   UNL     1      -9.823  13.325  66.107  1.00  0.00    -0.290 Cl 
HETATM    2  C   UNL     1      -9.363  14.298  67.452  1.00  0.00    -0.203 A  
HETATM    3  C   UNL     1     -10.196  14.850  68.402  1.00  0.00    -0.231 A  
HETATM    4  C   UNL     1      -9.410  15.554  69.382  1.00  0.00    -0.279 A  
HETATM    5  S   UNL     1      -7.720  14.631  67.690  1.00  0.00    -0.192 SA 
HETATM    6  C   UNL     1      -8.058  15.519  69.111  1.00  0.00    -0.244 A  
ENDROOT
BRANCH   3   7
HETATM    7  C   UNL     1     -11.689  14.697  68.445  1.00  0.00    -0.320 C  
BRANCH   7   8
HETATM    8  O   UNL     1     -12.055  13.407  68.934  1.00  0.00    -0.331 OA 
BRANCH   8   9
HETATM    9  C   UNL     1     -12.133  13.270  70.367  1.00  0.00    -0.327 C  
BRANCH   9  10
HETATM   10  C   UNL     1     -12.210  11.775  70.716  1.00  0.00    -0.424 A  
HETATM   11  C   UNL     1     -13.258   9.971  72.007  1.00  0.00    -0.545 A  
HETATM   12  C   UNL     1     -11.341  10.811  70.168  1.00  0.00    -0.309 A  
HETATM   13  C   UNL     1     -13.187  11.314  71.625  1.00  0.00    -0.431 A  
HETATM   14 CL   UNL     1     -10.192  11.189  68.931  1.00  0.00    -0.213 Cl 
HETATM   15 CL   UNL     1     -12.407   7.414  71.992  1.00  0.00    -0.318 Cl 
HETATM   16  C   UNL     1     -11.387   9.471  70.577  1.00  0.00    -0.343 A  
HETATM   17  C   UNL     1     -12.344   9.060  71.497  1.00  0.00    -0.331 A  
ENDBRANCH   9  10
BRANCH   9  18
HETATM   18  C   UNL     1     -13.301  14.110  70.941  1.00  0.00    -0.163 C  
BRANCH  18  19
HETATM   19  N   UNL     1     -12.921  15.036  71.986  1.00  0.00    -0.322 NA 
HETATM   20  N   UNL     1     -13.134  16.404  73.716  1.00  0.00    -0.628 NA 
HETATM   21  C   UNL     1     -11.651  15.346  72.379  1.00  0.00    -0.447 A  
HETATM   22  C   UNL     1     -11.807  16.197  73.447  1.00  0.00    -0.285 A  
HETATM   23  C   UNL     1     -13.782  15.686  72.828  1.00  0.00    -0.578 A  
ENDBRANCH  18  19
ENDBRANCH   9  18
ENDBRANCH   8   9
ENDBRANCH   7   8
ENDBRANCH   3   7
TORSDOF 6
ENDMDL
MODEL       40
REMARK 921   NORMALIZED FREE ENERGY PREDICTED BY IDOCK:   -5.53 KCAL/MOL
REMARK 922        TOTAL FREE ENERGY PREDICTED BY IDOCK:   -8.52 KCAL/MOL
REMARK 923 INTER-LIGAND FREE ENERGY PREDICTED BY IDOCK:   -7.57 KCAL/MOL
REMARK 924 INTRA-LIGAND FREE ENERGY PREDICTED BY IDOCK:   -0.95 KCAL/MOL
REMARK 927      BINDING AFFINITY PREDICTED BY RF-SCORE:    0.00 PKD
ROOT
HETATM    1 CL   UNL     1     -13.541  15.716  72.553  1.00  0.00    -0.611 Cl 
HETATM    2  C   UNL     1     -13.007  14.324  71.690  1.00  0.00    -0.346 A  
HETATM    3  C   UNL     1     -12.171  14.295  70.595  1.00  0.00    -0.427 A  
HETATM    4  C   UNL     1     -11.935  12.929  70.204  1.00  0.00    -0.373 A  
HETATM    5  S   UNL     1     -13.523  12.798  72.213  1.00  0.00    -0.338 SA 
HETATM    6  C   UNL     1     -12.612  12.021  70.991  1.00  0.00    -0.273 A  
ENDROOT
BRANCH   3   7
HETATM    7  C   UNL     1     -11.553  15.496  69.940  1.00  0.00    -0.335 C  
BRANCH   7   8
HETATM    8  O   UNL     1     -12.024  15.647  68.602  1.00  0.00    -0.336 OA 
BRANCH   8   9
HETATM    9  C   UNL     1     -11.018  15.645  67.570  1.00  0.00    -0.309 C  
BRANCH   9  10
HETATM   10  C   UNL     1     -11.460  14.687  66.452  1.00  0.00    -0.348 A  
HETATM   11  C   UNL     1     -12.265  12.467  65.785  1.00  0.00    -0.277 A  
HETATM   12  C   UNL     1     -11.451  15.039  65.088  1.00  0.00    -0.339 A  
HETATM   13  C   UNL     1     -11.902  13.385  66.774  1.00  0.00    -0.452 A  
HETATM   14 CL   UNL     1     -11.082  16.638  64.543  1.00  0.00    -0.180 Cl 
HETATM   15 CL   UNL     1     -12.593  11.687  63.226  1.00  0.00    -0.466 Cl 
HETATM   16  C   UNL     1     -11.778  14.108  64.093  1.00  0.00    -0.306 A  
HETATM   17  C   UNL     1     -12.180  12.826  64.447  1.00  0.00    -0.428 A  
ENDBRANCH   9  10
BRANCH   9  18
HETATM   18  C   UNL     1      -9.622  15.320  68.159  1.00  0.00    -0.204 C  
BRANCH  18  19
HETATM   19  N   UNL     1      -8.559  16.191  67.704  1.00  0.00    -0.171 NA 
HETATM   20  N   UNL     1      -7.238  17.283  66.301  1.00  0.00    -0.294 NA 
HETATM   21  C   UNL     1      -7.818  17.042  68.472  1.00  0.00    -0.251 A  
HETATM   22  C   UNL     1      -7.004  17.705  67.583  1.00  0.00    -0.176 A  
HETATM   23  C   UNL     1      -8.184  16.379  66.402  1.00  0.00    -0.331 A  
ENDBRANCH  18  19
ENDBRANCH   9  18
ENDBRANCH   8   9
ENDBRANCH   7   8
ENDBRANCH   3   7
TORSDOF 6
ENDMDL
MODEL       41
REMARK 921   NORMALIZED FREE ENERGY PREDICTED BY IDOCK:   -5.53 KCAL/MOL
REMARK 922        TOTAL FREE ENERGY PREDICTED BY IDOCK:   -8.51 KCAL/MOL
REMARK 923 INTER-LIGAND FREE ENERGY PREDICTED BY IDOCK:   -7.53 KCAL/MOL
REMARK 924 INTRA-LIGAND FREE ENERGY PREDICTED BY IDOCK:   -0.98 KCAL/MOL
REMARK 927      BINDING AFFINITY PREDICTED BY RF-SCORE:    0.00 PKD
ROOT
HETATM    1 CL   UNL     1     -12.241  13.061  69.662  1.00  0.00    -0.272 Cl 
HETATM    2  C   UNL     1     -12.472  14.071  71.038  1.00  0.00    -0.371 A  
HETATM    3  C   UNL     1     -12.093  15.389  71.173  1.00  0.00    -0.418 A  
HETATM    4  C   UNL     1     -12.512  15.881  72.461  1.00  0.00    -0.566 A  
HETATM    5  S   UNL     1     -13.260  13.430  72.392  1.00  0.00    -0.406 SA 
HETATM    6  C   UNL     1     -13.148  14.921  73.221  1.00  0.00    -0.469 A  
ENDROOT
BRANCH   3   7
HETATM    7  C   UNL     1     -11.399  16.208  70.124  1.00  0.00    -0.340 C  
BRANCH   7   8
HETATM    8  O   UNL     1     -10.090  15.701  69.864  1.00  0.00    -0.283 OA 
BRANCH   8   9
HETATM    9  C   UNL     1      -9.417  16.243  68.711  1.00  0.00    -0.237 C  
BRANCH   9  10
HETATM   10  C   UNL     1      -9.831  15.430  67.473  1.00  0.00    -0.217 A  
HETATM   11  C   UNL     1     -10.028  13.252  66.359  1.00  0.00    -0.288 A  
HETATM   12  C   UNL     1     -10.336  16.021  66.297  1.00  0.00    -0.321 A  
HETATM   13  C   UNL     1      -9.711  14.024  67.482  1.00  0.00    -0.232 A  
HETATM   14 CL   UNL     1     -10.683  17.711  66.181  1.00  0.00    -0.194 Cl 
HETATM   15 CL   UNL     1     -10.818  12.930  63.803  1.00  0.00    -0.402 Cl 
HETATM   16  C   UNL     1     -10.619  15.253  65.160  1.00  0.00    -0.453 A  
HETATM   17  C   UNL     1     -10.460  13.874  65.196  1.00  0.00    -0.393 A  
ENDBRANCH   9  10
BRANCH   9  18
HETATM   18  C   UNL     1      -7.886  16.302  68.939  1.00  0.00    -0.224 C  
BRANCH  18  19
HETATM   19  N   UNL     1      -7.324  17.635  68.908  1.00  0.00    -0.258 NA 
HETATM   20  N   UNL     1      -7.228  19.834  68.654  1.00  0.00    -0.330 NA 
HETATM   21  C   UNL     1      -6.094  18.013  69.365  1.00  0.00    -0.245 A  
HETATM   22  C   UNL     1      -6.055  19.377  69.194  1.00  0.00    -0.266 A  
HETATM   23  C   UNL     1      -7.976  18.767  68.501  1.00  0.00    -0.345 A  
ENDBRANCH  18  19
ENDBRANCH   9  18
ENDBRANCH   8   9
ENDBRANCH   7   8
ENDBRANCH   3   7
TORSDOF 6
ENDMDL
MODEL       42
REMARK 921   NORMALIZED FREE ENERGY PREDICTED BY IDOCK:   -5.52 KCAL/MOL
REMARK 922        TOTAL FREE ENERGY PREDICTED BY IDOCK:   -8.50 KCAL/MOL
REMARK 923 INTER-LIGAND FREE ENERGY PREDICTED BY IDOCK:   -7.90 KCAL/MOL
REMARK 924 INTRA-LIGAND FREE ENERGY PREDICTED BY IDOCK:   -0.60 KCAL/MOL
REMARK 927      BINDING AFFINITY PREDICTED BY RF-SCORE:    0.00 PKD
ROOT
HETATM    1 CL   UNL     1     -11.295  16.308  70.807  1.00  0.00    -0.395 Cl 
HETATM    2  C   UNL     1     -12.121  14.839  71.163  1.00  0.00    -0.332 A  
HETATM    3  C   UNL     1     -12.115  13.681  70.416  1.00  0.00    -0.421 A  
HETATM    4  C   UNL     1     -12.894  12.672  71.087  1.00  0.00    -0.311 A  
HETATM    5  S   UNL     1     -13.040  14.749  72.582  1.00  0.00    -0.479 SA 
HETATM    6  C   UNL     1     -13.455  13.121  72.265  1.00  0.00    -0.568 A  
ENDROOT
BRANCH   3   7
HETATM    7  C   UNL     1     -11.370  13.478  69.130  1.00  0.00    -0.282 C  
BRANCH   7   8
HETATM    8  O   UNL     1     -12.136  12.698  68.213  1.00  0.00    -0.279 OA 
BRANCH   8   9
HETATM    9  C   UNL     1     -11.600  12.576  66.881  1.00  0.00    -0.370 C  
BRANCH   9  10
HETATM   10  C   UNL     1     -10.921  11.203  66.747  1.00  0.00    -0.309 A  
HETATM   11  C   UNL     1     -10.166   9.121  67.804  1.00  0.00    -0.278 A  
HETATM   12  C   UNL     1     -10.378  10.728  65.537  1.00  0.00    -0.241 A  
HETATM   13  C   UNL     1     -10.820  10.355  67.871  1.00  0.00    -0.331 A  
HETATM   14 CL   UNL     1     -10.553  11.578  64.041  1.00  0.00    -0.400 Cl 
HETATM   15 CL   UNL     1      -8.750   7.212  66.533  1.00  0.00    -0.129 Cl 
HETATM   16  C   UNL     1      -9.690   9.508  65.476  1.00  0.00    -0.344 A  
HETATM   17  C   UNL     1      -9.585   8.713  66.611  1.00  0.00    -0.221 A  
ENDBRANCH   9  10
BRANCH   9  18
HETATM   18  C   UNL     1     -10.671  13.770  66.546  1.00  0.00    -0.284 C  
BRANCH  18  19
HETATM   19  N   UNL     1     -11.212  14.700  65.578  1.00  0.00    -0.333 NA 
HETATM   20  N   UNL     1     -11.343  16.490  64.279  1.00  0.00    -1.032 NA 
HETATM   21  C   UNL     1     -12.294  14.500  64.770  1.00  0.00    -0.391 A  
HETATM   22  C   UNL     1     -12.359  15.623  63.979  1.00  0.00     0.253 A  
HETATM   23  C   UNL     1     -10.663  15.906  65.238  1.00  0.00    -0.424 A  
ENDBRANCH  18  19
ENDBRANCH   9  18
ENDBRANCH   8   9
ENDBRANCH   7   8
ENDBRANCH   3   7
TORSDOF 6
ENDMDL
MODEL       43
REMARK 921   NORMALIZED FREE ENERGY PREDICTED BY IDOCK:   -5.50 KCAL/MOL
REMARK 922        TOTAL FREE ENERGY PREDICTED BY IDOCK:   -8.48 KCAL/MOL
REMARK 923 INTER-LIGAND FREE ENERGY PREDICTED BY IDOCK:   -7.88 KCAL/MOL
REMARK 924 INTRA-LIGAND FREE ENERGY PREDICTED BY IDOCK:   -0.60 KCAL/MOL
REMARK 927      BINDING AFFINITY PREDICTED BY RF-SCORE:    0.00 PKD
ROOT
HETATM    1 CL   UNL     1      -9.483  11.556  67.088  1.00  0.00    -0.181 Cl 
HETATM    2  C   UNL     1     -10.633  11.888  65.850  1.00  0.00    -0.266 A  
HETATM    3  C   UNL     1     -11.716  12.737  65.929  1.00  0.00    -0.464 A  
HETATM    4  C   UNL     1     -12.398  12.766  64.660  1.00  0.00    -0.524 A  
HETATM    5  S   UNL     1     -10.451  11.129  64.348  1.00  0.00    -0.349 SA 
HETATM    6  C   UNL     1     -11.822  11.937  63.721  1.00  0.00    -0.458 A  
ENDROOT
BRANCH   3   7
HETATM    7  C   UNL     1     -12.099  13.550  67.130  1.00  0.00    -0.340 C  
BRANCH   7   8
HETATM    8  O   UNL     1     -11.242  14.682  67.275  1.00  0.00    -0.313 OA 
BRANCH   8   9
HETATM    9  C   UNL     1     -11.308  15.371  68.539  1.00  0.00    -0.335 C  
BRANCH   9  10
HETATM   10  C   UNL     1     -10.248  16.484  68.550  1.00  0.00    -0.266 A  
HETATM   11  C   UNL     1      -9.716  18.879  68.522  1.00  0.00    -0.441 A  
HETATM   12  C   UNL     1      -8.862  16.227  68.547  1.00  0.00    -0.219 A  
HETATM   13  C   UNL     1     -10.647  17.837  68.563  1.00  0.00    -0.260 A  
HETATM   14 CL   UNL     1      -8.212  14.630  68.683  1.00  0.00    -0.155 Cl 
HETATM   15 CL   UNL     1      -7.213  19.868  68.368  1.00  0.00    -0.341 Cl 
HETATM   16  C   UNL     1      -7.928  17.269  68.469  1.00  0.00    -0.261 A  
HETATM   17  C   UNL     1      -8.360  18.589  68.453  1.00  0.00    -0.332 A  
ENDBRANCH   9  10
BRANCH   9  18
HETATM   18  C   UNL     1     -11.184  14.375  69.720  1.00  0.00    -0.205 C  
BRANCH  18  19
HETATM   19  N   UNL     1     -12.322  14.357  70.614  1.00  0.00    -0.328 NA 
HETATM   20  N   UNL     1     -13.780  13.582  72.091  1.00  0.00    -0.528 NA 
HETATM   21  C   UNL     1     -13.077  15.429  70.997  1.00  0.00    -0.501 A  
HETATM   22  C   UNL     1     -13.975  14.925  71.908  1.00  0.00    -0.488 A  
HETATM   23  C   UNL     1     -12.774  13.269  71.309  1.00  0.00    -0.323 A  
ENDBRANCH  18  19
ENDBRANCH   9  18
ENDBRANCH   8   9
ENDBRANCH   7   8
ENDBRANCH   3   7
TORSDOF 6
ENDMDL
MODEL       44
REMARK 921   NORMALIZED FREE ENERGY PREDICTED BY IDOCK:   -5.50 KCAL/MOL
REMARK 922        TOTAL FREE ENERGY PREDICTED BY IDOCK:   -8.47 KCAL/MOL
REMARK 923 INTER-LIGAND FREE ENERGY PREDICTED BY IDOCK:   -8.03 KCAL/MOL
REMARK 924 INTRA-LIGAND FREE ENERGY PREDICTED BY IDOCK:   -0.44 KCAL/MOL
REMARK 927      BINDING AFFINITY PREDICTED BY RF-SCORE:    0.00 PKD
ROOT
HETATM    1 CL   UNL     1     -11.284  13.318  64.393  1.00  0.00    -0.386 Cl 
HETATM    2  C   UNL     1     -11.254  12.479  65.897  1.00  0.00    -0.320 A  
HETATM    3  C   UNL     1     -11.553  12.992  67.141  1.00  0.00    -0.411 A  
HETATM    4  C   UNL     1     -11.451  11.948  68.129  1.00  0.00    -0.384 A  
HETATM    5  S   UNL     1     -10.834  10.839  65.902  1.00  0.00     0.080 SA 
HETATM    6  C   UNL     1     -11.064  10.738  67.593  1.00  0.00    -0.319 A  
ENDROOT
BRANCH   3   7
HETATM    7  C   UNL     1     -11.975  14.404  67.421  1.00  0.00    -0.373 C  
BRANCH   7   8
HETATM    8  O   UNL     1     -10.848  15.218  67.746  1.00  0.00    -0.278 OA 
BRANCH   8   9
HETATM    9  C   UNL     1     -11.053  16.204  68.777  1.00  0.00    -0.354 C  
BRANCH   9  10
HETATM   10  C   UNL     1     -10.149  17.413  68.488  1.00  0.00    -0.352 A  
HETATM   11  C   UNL     1      -9.925  19.735  67.725  1.00  0.00    -0.535 A  
HETATM   12  C   UNL     1      -8.749  17.382  68.643  1.00  0.00    -0.261 A  
HETATM   13  C   UNL     1     -10.716  18.628  68.046  1.00  0.00    -0.273 A  
HETATM   14 CL   UNL     1      -7.918  16.022  69.317  1.00  0.00    -0.236 Cl 
HETATM   15 CL   UNL     1      -7.565  20.995  67.399  1.00  0.00    -0.324 Cl 
HETATM   16  C   UNL     1      -7.951  18.477  68.286  1.00  0.00    -0.325 A  
HETATM   17  C   UNL     1      -8.544  19.647  67.826  1.00  0.00    -0.322 A  
ENDBRANCH   9  10
BRANCH   9  18
HETATM   18  C   UNL     1     -10.847  15.588  70.183  1.00  0.00    -0.331 C  
BRANCH  18  19
HETATM   19  N   UNL     1     -12.002  15.668  71.051  1.00  0.00    -0.363 NA 
HETATM   20  N   UNL     1     -14.076  15.364  71.766  1.00  0.00    -0.518 NA 
HETATM   21  C   UNL     1     -12.023  16.110  72.343  1.00  0.00    -0.554 A  
HETATM   22  C   UNL     1     -13.317  15.917  72.764  1.00  0.00    -0.508 A  
HETATM   23  C   UNL     1     -13.258  15.216  70.751  1.00  0.00    -0.382 A  
ENDBRANCH  18  19
ENDBRANCH   9  18
ENDBRANCH   8   9
ENDBRANCH   7   8
ENDBRANCH   3   7
TORSDOF 6
ENDMDL
MODEL       45
REMARK 921   NORMALIZED FREE ENERGY PREDICTED BY IDOCK:   -5.44 KCAL/MOL
REMARK 922        TOTAL FREE ENERGY PREDICTED BY IDOCK:   -8.39 KCAL/MOL
REMARK 923 INTER-LIGAND FREE ENERGY PREDICTED BY IDOCK:   -7.57 KCAL/MOL
REMARK 924 INTRA-LIGAND FREE ENERGY PREDICTED BY IDOCK:   -0.82 KCAL/MOL
REMARK 927      BINDING AFFINITY PREDICTED BY RF-SCORE:    0.00 PKD
ROOT
HETATM    1 CL   UNL     1     -10.431   8.308  67.027  1.00  0.00    -0.395 Cl 
HETATM    2  C   UNL     1      -9.445   8.793  68.353  1.00  0.00    -0.141 A  
HETATM    3  C   UNL     1      -8.915  10.045  68.580  1.00  0.00    -0.124 A  
HETATM    4  C   UNL     1      -8.190  10.042  69.825  1.00  0.00    -0.191 A  
HETATM    5  S   UNL     1      -9.070   7.651  69.546  1.00  0.00    -0.145 SA 
HETATM    6  C   UNL     1      -8.190   8.810  70.444  1.00  0.00    -0.122 A  
ENDROOT
BRANCH   3   7
HETATM    7  C   UNL     1      -9.106  11.244  67.698  1.00  0.00    -0.149 C  
BRANCH   7   8
HETATM    8  O   UNL     1      -9.610  12.351  68.444  1.00  0.00    -0.216 OA 
BRANCH   8   9
HETATM    9  C   UNL     1     -10.823  12.951  67.948  1.00  0.00    -0.227 C  
BRANCH   9  10
HETATM   10  C   UNL     1     -11.581  13.578  69.129  1.00  0.00    -0.359 A  
HETATM   11  C   UNL     1     -12.481  15.583  70.221  1.00  0.00    -0.403 A  
HETATM   12  C   UNL     1     -12.045  12.831  70.230  1.00  0.00    -0.297 A  
HETATM   13  C   UNL     1     -11.840  14.966  69.143  1.00  0.00    -0.340 A  
HETATM   14 CL   UNL     1     -11.941  11.106  70.294  1.00  0.00    -0.428 Cl 
HETATM   15 CL   UNL     1     -13.624  15.588  72.662  1.00  0.00    -0.609 Cl 
HETATM   16  C   UNL     1     -12.655  13.453  71.328  1.00  0.00    -0.411 A  
HETATM   17  C   UNL     1     -12.866  14.826  71.319  1.00  0.00    -0.338 A  
ENDBRANCH   9  10
BRANCH   9  18
HETATM   18  C   UNL     1     -11.658  11.926  67.141  1.00  0.00    -0.290 C  
BRANCH  18  19
HETATM   19  N   UNL     1     -11.892  12.294  65.760  1.00  0.00    -0.510 NA 
HETATM   20  N   UNL     1     -12.682  13.424  64.027  1.00  0.00    -0.659 NA 
HETATM   21  C   UNL     1     -11.244  11.802  64.664  1.00  0.00    -0.286 A  
HETATM   22  C   UNL     1     -11.753  12.512  63.602  1.00  0.00    -0.515 A  
HETATM   23  C   UNL     1     -12.739  13.278  65.329  1.00  0.00    -0.412 A  
ENDBRANCH  18  19
ENDBRANCH   9  18
ENDBRANCH   8   9
ENDBRANCH   7   8
ENDBRANCH   3   7
TORSDOF 6
ENDMDL
MODEL       46
REMARK 921   NORMALIZED FREE ENERGY PREDICTED BY IDOCK:   -5.43 KCAL/MOL
REMARK 922        TOTAL FREE ENERGY PREDICTED BY IDOCK:   -8.37 KCAL/MOL
REMARK 923 INTER-LIGAND FREE ENERGY PREDICTED BY IDOCK:   -8.05 KCAL/MOL
REMARK 924 INTRA-LIGAND FREE ENERGY PREDICTED BY IDOCK:   -0.33 KCAL/MOL
REMARK 927      BINDING AFFINITY PREDICTED BY RF-SCORE:    0.00 PKD
ROOT
HETATM    1 CL   UNL     1     -11.208  12.472  63.403  1.00  0.00    -0.515 Cl 
HETATM    2  C   UNL     1     -10.622  11.601  64.769  1.00  0.00    -0.304 A  
HETATM    3  C   UNL     1     -10.852  11.886  66.097  1.00  0.00    -0.334 A  
HETATM    4  C   UNL     1     -10.222  10.886  66.921  1.00  0.00    -0.272 A  
HETATM    5  S   UNL     1      -9.670  10.226  64.506  1.00  0.00    -0.308 SA 
HETATM    6  C   UNL     1      -9.544   9.935  66.187  1.00  0.00    -0.218 A  
ENDROOT
BRANCH   3   7
HETATM    7  C   UNL     1     -11.677  13.030  66.612  1.00  0.00    -0.381 C  
BRANCH   7   8
HETATM    8  O   UNL     1     -10.853  14.150  66.930  1.00  0.00    -0.290 OA 
BRANCH   8   9
HETATM    9  C   UNL     1     -11.344  15.025  67.965  1.00  0.00    -0.327 C  
BRANCH   9  10
HETATM   10  C   UNL     1     -10.765  16.431  67.737  1.00  0.00    -0.328 A  
HETATM   11  C   UNL     1      -9.870  18.512  68.680  1.00  0.00    -0.419 A  
HETATM   12  C   UNL     1     -10.616  17.005  66.459  1.00  0.00    -0.172 A  
HETATM   13  C   UNL     1     -10.354  17.211  68.840  1.00  0.00    -0.348 A  
HETATM   14 CL   UNL     1     -10.931  16.126  65.003  1.00  0.00    -0.408 Cl 
HETATM   15 CL   UNL     1      -9.235  20.683  67.214  1.00  0.00    -0.496 Cl 
HETATM   16  C   UNL     1     -10.165  18.322  66.299  1.00  0.00    -0.414 A  
HETATM   17  C   UNL     1      -9.798  19.069  67.412  1.00  0.00    -0.324 A  
ENDBRANCH   9  10
BRANCH   9  18
HETATM   18  C   UNL     1     -11.046  14.444  69.370  1.00  0.00    -0.261 C  
BRANCH  18  19
HETATM   19  N   UNL     1     -12.176  14.446  70.274  1.00  0.00    -0.315 NA 
HETATM   20  N   UNL     1     -13.639  13.692  71.757  1.00  0.00    -0.376 NA 
HETATM   21  C   UNL     1     -12.898  15.533  70.676  1.00  0.00    -0.413 A  
HETATM   22  C   UNL     1     -13.800  15.042  71.590  1.00  0.00    -0.480 A  
HETATM   23  C   UNL     1     -12.649  13.362  70.962  1.00  0.00    -0.343 A  
ENDBRANCH  18  19
ENDBRANCH   9  18
ENDBRANCH   8   9
ENDBRANCH   7   8
ENDBRANCH   3   7
TORSDOF 6
ENDMDL
MODEL       47
REMARK 921   NORMALIZED FREE ENERGY PREDICTED BY IDOCK:   -5.42 KCAL/MOL
REMARK 922        TOTAL FREE ENERGY PREDICTED BY IDOCK:   -8.37 KCAL/MOL
REMARK 923 INTER-LIGAND FREE ENERGY PREDICTED BY IDOCK:   -7.31 KCAL/MOL
REMARK 924 INTRA-LIGAND FREE ENERGY PREDICTED BY IDOCK:   -1.06 KCAL/MOL
REMARK 927      BINDING AFFINITY PREDICTED BY RF-SCORE:    0.00 PKD
ROOT
HETATM    1 CL   UNL     1     -13.418  10.109  71.915  1.00  0.00    -0.460 Cl 
HETATM    2  C   UNL     1     -11.850   9.736  71.309  1.00  0.00    -0.399 A  
HETATM    3  C   UNL     1     -11.206  10.334  70.247  1.00  0.00    -0.395 A  
HETATM    4  C   UNL     1      -9.892   9.762  70.097  1.00  0.00    -0.306 A  
HETATM    5  S   UNL     1     -10.952   8.522  72.074  1.00  0.00    -0.360 SA 
HETATM    6  C   UNL     1      -9.631   8.768  71.016  1.00  0.00    -0.229 A  
ENDROOT
BRANCH   3   7
HETATM    7  C   UNL     1     -11.760  11.448  69.408  1.00  0.00    -0.338 C  
BRANCH   7   8
HETATM    8  O   UNL     1     -11.933  11.029  68.054  1.00  0.00    -0.623 OA 
BRANCH   8   9
HETATM    9  C   UNL     1     -11.380  11.898  67.046  1.00  0.00    -0.329 C  
BRANCH   9  10
HETATM   10  C   UNL     1      -9.851  11.735  67.041  1.00  0.00    -0.213 A  
HETATM   11  C   UNL     1      -7.638  12.660  67.559  1.00  0.00    -0.160 A  
HETATM   12  C   UNL     1      -9.199  10.606  66.507  1.00  0.00    -0.166 A  
HETATM   13  C   UNL     1      -9.033  12.747  67.590  1.00  0.00    -0.191 A  
HETATM   14 CL   UNL     1     -10.059   9.218  65.936  1.00  0.00    -0.304 Cl 
HETATM   15 CL   UNL     1      -5.312  11.471  66.896  1.00  0.00    -0.105 Cl 
HETATM   16  C   UNL     1      -7.801  10.535  66.442  1.00  0.00    -0.138 A  
HETATM   17  C   UNL     1      -7.028  11.564  66.966  1.00  0.00    -0.145 A  
ENDBRANCH   9  10
BRANCH   9  18
HETATM   18  C   UNL     1     -11.854  13.358  67.252  1.00  0.00    -0.376 C  
BRANCH  18  19
HETATM   19  N   UNL     1     -11.867  14.162  66.048  1.00  0.00    -0.383 NA 
HETATM   20  N   UNL     1     -12.622  15.059  64.168  1.00  0.00    -0.736 NA 
HETATM   21  C   UNL     1     -10.953  15.111  65.690  1.00  0.00    -0.355 A  
HETATM   22  C   UNL     1     -11.438  15.649  64.522  1.00  0.00    -0.300 A  
HETATM   23  C   UNL     1     -12.861  14.175  65.108  1.00  0.00    -0.294 A  
ENDBRANCH  18  19
ENDBRANCH   9  18
ENDBRANCH   8   9
ENDBRANCH   7   8
ENDBRANCH   3   7
TORSDOF 6
ENDMDL
MODEL       48
REMARK 921   NORMALIZED FREE ENERGY PREDICTED BY IDOCK:   -5.42 KCAL/MOL
REMARK 922        TOTAL FREE ENERGY PREDICTED BY IDOCK:   -8.36 KCAL/MOL
REMARK 923 INTER-LIGAND FREE ENERGY PREDICTED BY IDOCK:   -7.35 KCAL/MOL
REMARK 924 INTRA-LIGAND FREE ENERGY PREDICTED BY IDOCK:   -1.01 KCAL/MOL
REMARK 927      BINDING AFFINITY PREDICTED BY RF-SCORE:    0.00 PKD
ROOT
HETATM    1 CL   UNL     1      -7.278  17.761  66.052  1.00  0.00    -0.338 Cl 
HETATM    2  C   UNL     1      -8.556  18.807  66.545  1.00  0.00    -0.305 A  
HETATM    3  C   UNL     1      -9.908  18.548  66.490  1.00  0.00    -0.380 A  
HETATM    4  C   UNL     1     -10.634  19.664  67.042  1.00  0.00    -0.602 A  
HETATM    5  S   UNL     1      -8.162  20.322  67.189  1.00  0.00    -0.320 SA 
HETATM    6  C   UNL     1      -9.811  20.692  67.450  1.00  0.00    -0.387 A  
ENDROOT
BRANCH   3   7
HETATM    7  C   UNL     1     -10.533  17.280  65.986  1.00  0.00    -0.282 C  
BRANCH   7   8
HETATM    8  O   UNL     1     -10.516  16.268  66.992  1.00  0.00    -0.306 OA 
BRANCH   8   9
HETATM    9  C   UNL     1     -10.721  14.916  66.536  1.00  0.00    -0.309 C  
BRANCH   9  10
HETATM   10  C   UNL     1      -9.672  14.009  67.199  1.00  0.00    -0.242 A  
HETATM   11  C   UNL     1      -7.324  13.584  67.774  1.00  0.00    -0.166 A  
HETATM   12  C   UNL     1      -9.990  12.774  67.798  1.00  0.00    -0.219 A  
HETATM   13  C   UNL     1      -8.316  14.403  67.227  1.00  0.00    -0.228 A  
HETATM   14 CL   UNL     1     -11.619  12.221  67.980  1.00  0.00    -0.385 Cl 
HETATM   15 CL   UNL     1      -6.442  11.319  68.940  1.00  0.00    -0.057 Cl 
HETATM   16  C   UNL     1      -8.993  11.935  68.314  1.00  0.00    -0.178 A  
HETATM   17  C   UNL     1      -7.665  12.344  68.296  1.00  0.00    -0.140 A  
ENDBRANCH   9  10
BRANCH   9  18
HETATM   18  C   UNL     1     -10.721  14.848  64.989  1.00  0.00    -0.431 C  
BRANCH  18  19
HETATM   19  N   UNL     1     -11.295  13.638  64.440  1.00  0.00    -0.378 NA 
HETATM   20  N   UNL     1     -12.832  12.252  63.649  1.00  0.00    -0.797 NA 
HETATM   21  C   UNL     1     -10.614  12.559  63.953  1.00  0.00    -0.440 A  
HETATM   22  C   UNL     1     -11.586  11.713  63.473  1.00  0.00    -0.305 A  
HETATM   23  C   UNL     1     -12.627  13.414  64.224  1.00  0.00    -0.158 A  
ENDBRANCH  18  19
ENDBRANCH   9  18
ENDBRANCH   8   9
ENDBRANCH   7   8
ENDBRANCH   3   7
TORSDOF 6
ENDMDL
MODEL       49
REMARK 921   NORMALIZED FREE ENERGY PREDICTED BY IDOCK:   -5.41 KCAL/MOL
REMARK 922        TOTAL FREE ENERGY PREDICTED BY IDOCK:   -8.35 KCAL/MOL
REMARK 923 INTER-LIGAND FREE ENERGY PREDICTED BY IDOCK:   -7.65 KCAL/MOL
REMARK 924 INTRA-LIGAND FREE ENERGY PREDICTED BY IDOCK:   -0.70 KCAL/MOL
REMARK 927      BINDING AFFINITY PREDICTED BY RF-SCORE:    0.00 PKD
ROOT
HETATM    1 CL   UNL     1     -10.950  16.517  70.181  1.00  0.00    -0.310 Cl 
HETATM    2  C   UNL     1     -11.918  15.432  71.105  1.00  0.00    -0.362 A  
HETATM    3  C   UNL     1     -12.451  14.232  70.685  1.00  0.00    -0.428 A  
HETATM    4  C   UNL     1     -13.156  13.611  71.777  1.00  0.00    -0.468 A  
HETATM    5  S   UNL     1     -12.268  15.825  72.714  1.00  0.00    -0.524 SA 
HETATM    6  C   UNL     1     -13.140  14.370  72.928  1.00  0.00    -0.517 A  
ENDROOT
BRANCH   3   7
HETATM    7  C   UNL     1     -12.280  13.633  69.320  1.00  0.00    -0.238 C  
BRANCH   7   8
HETATM    8  O   UNL     1     -10.962  13.110  69.154  1.00  0.00    -0.225 OA 
BRANCH   8   9
HETATM    9  C   UNL     1     -10.872  11.712  68.818  1.00  0.00    -0.220 C  
BRANCH   9  10
HETATM   10  C   UNL     1     -10.532  11.584  67.324  1.00  0.00    -0.246 A  
HETATM   11  C   UNL     1     -10.234  12.660  65.139  1.00  0.00    -0.300 A  
HETATM   12  C   UNL     1     -10.253  10.352  66.701  1.00  0.00    -0.234 A  
HETATM   13  C   UNL     1     -10.490  12.737  66.511  1.00  0.00    -0.276 A  
HETATM   14 CL   UNL     1     -10.117   8.871  67.585  1.00  0.00    -0.255 Cl 
HETATM   15 CL   UNL     1      -9.749  11.319  62.851  1.00  0.00    -0.358 Cl 
HETATM   16  C   UNL     1     -10.033  10.268  65.319  1.00  0.00    -0.387 A  
HETATM   17  C   UNL     1     -10.029  11.422  64.545  1.00  0.00    -0.271 A  
ENDBRANCH   9  10
BRANCH   9  18
HETATM   18  C   UNL     1     -12.160  10.958  69.234  1.00  0.00    -0.261 C  
BRANCH  18  19
HETATM   19  N   UNL     1     -12.041  10.192  70.457  1.00  0.00    -0.293 NA 
HETATM   20  N   UNL     1     -12.662   9.099  72.280  1.00  0.00    -0.387 NA 
HETATM   21  C   UNL     1     -10.914   9.590  70.936  1.00  0.00    -0.337 A  
HETATM   22  C   UNL     1     -11.321   8.923  72.068  1.00  0.00    -0.357 A  
HETATM   23  C   UNL     1     -13.072   9.858  71.292  1.00  0.00    -0.400 A  
ENDBRANCH  18  19
ENDBRANCH   9  18
ENDBRANCH   8   9
ENDBRANCH   7   8
ENDBRANCH   3   7
TORSDOF 6
ENDMDL
MODEL       50
REMARK 921   NORMALIZED FREE ENERGY PREDICTED BY IDOCK:   -5.41 KCAL/MOL
REMARK 922        TOTAL FREE ENERGY PREDICTED BY IDOCK:   -8.35 KCAL/MOL
REMARK 923 INTER-LIGAND FREE ENERGY PREDICTED BY IDOCK:   -7.49 KCAL/MOL
REMARK 924 INTRA-LIGAND FREE ENERGY PREDICTED BY IDOCK:   -0.86 KCAL/MOL
REMARK 927      BINDING AFFINITY PREDICTED BY RF-SCORE:    0.00 PKD
ROOT
HETATM    1 CL   UNL     1     -12.999  13.898  65.600  1.00  0.00    -0.479 Cl 
HETATM    2  C   UNL     1     -11.854  12.611  65.648  1.00  0.00    -0.437 A  
HETATM    3  C   UNL     1     -11.250  12.078  66.766  1.00  0.00    -0.376 A  
HETATM    4  C   UNL     1     -10.394  10.987  66.376  1.00  0.00    -0.302 A  
HETATM    5  S   UNL     1     -11.399  11.876  64.192  1.00  0.00    -0.379 SA 
HETATM    6  C   UNL     1     -10.378  10.777  65.013  1.00  0.00    -0.287 A  
ENDROOT
BRANCH   3   7
HETATM    7  C   UNL     1     -11.487  12.524  68.179  1.00  0.00    -0.319 C  
BRANCH   7   8
HETATM    8  O   UNL     1     -12.155  11.511  68.929  1.00  0.00    -0.386 OA 
BRANCH   8   9
HETATM    9  C   UNL     1     -11.864  11.470  70.340  1.00  0.00    -0.320 C  
BRANCH   9  10
HETATM   10  C   UNL     1     -11.392  10.053  70.705  1.00  0.00    -0.425 A  
HETATM   11  C   UNL     1     -11.900   7.850  71.658  1.00  0.00    -0.325 A  
HETATM   12  C   UNL     1     -10.070   9.608  70.507  1.00  0.00    -0.274 A  
HETATM   13  C   UNL     1     -12.301   9.130  71.266  1.00  0.00    -0.382 A  
HETATM   14 CL   UNL     1      -8.878  10.563  69.696  1.00  0.00    -0.053 Cl 
HETATM   15 CL   UNL     1     -10.071   5.905  72.022  1.00  0.00    -0.213 Cl 
HETATM   16  C   UNL     1      -9.658   8.338  70.934  1.00  0.00    -0.196 A  
HETATM   17  C   UNL     1     -10.575   7.467  71.510  1.00  0.00    -0.212 A  
ENDBRANCH   9  10
BRANCH   9  18
HETATM   18  C   UNL     1     -13.078  11.959  71.170  1.00  0.00    -0.039 C  
BRANCH  18  19
HETATM   19  N   UNL     1     -13.037  13.362  71.526  1.00  0.00    -0.361 NA 
HETATM   20  N   UNL     1     -12.362  15.471  71.547  1.00  0.00    -0.364 NA 
HETATM   21  C   UNL     1     -13.976  14.050  72.239  1.00  0.00    -0.553 A  
HETATM   22  C   UNL     1     -13.535  15.352  72.243  1.00  0.00    -0.472 A  
HETATM   23  C   UNL     1     -12.090  14.261  71.119  1.00  0.00    -0.336 A  
ENDBRANCH  18  19
ENDBRANCH   9  18
ENDBRANCH   8   9
ENDBRANCH   7   8
ENDBRANCH   3   7
TORSDOF 6
ENDMDL
MODEL       51
REMARK 921   NORMALIZED FREE ENERGY PREDICTED BY IDOCK:   -5.41 KCAL/MOL
REMARK 922        TOTAL FREE ENERGY PREDICTED BY IDOCK:   -8.35 KCAL/MOL
REMARK 923 INTER-LIGAND FREE ENERGY PREDICTED BY IDOCK:   -7.73 KCAL/MOL
REMARK 924 INTRA-LIGAND FREE ENERGY PREDICTED BY IDOCK:   -0.62 KCAL/MOL
REMARK 927      BINDING AFFINITY PREDICTED BY RF-SCORE:    0.00 PKD
ROOT
HETATM    1 CL   UNL     1     -13.856  12.736  72.434  1.00  0.00    -0.511 Cl 
HETATM    2  C   UNL     1     -12.935  14.176  72.219  1.00  0.00    -0.382 A  
HETATM    3  C   UNL     1     -12.295  14.588  71.070  1.00  0.00    -0.417 A  
HETATM    4  C   UNL     1     -11.678  15.871  71.297  1.00  0.00    -0.504 A  
HETATM    5  S   UNL     1     -12.783  15.244  73.523  1.00  0.00    -0.584 SA 
HETATM    6  C   UNL     1     -11.860  16.334  72.583  1.00  0.00    -0.497 A  
ENDROOT
BRANCH   3   7
HETATM    7  C   UNL     1     -12.285  13.848  69.765  1.00  0.00    -0.332 C  
BRANCH   7   8
HETATM    8  O   UNL     1     -10.952  13.682  69.283  1.00  0.00    -0.228 OA 
BRANCH   8   9
HETATM    9  C   UNL     1     -10.570  14.519  68.174  1.00  0.00    -0.238 C  
BRANCH   9  10
HETATM   10  C   UNL     1     -11.059  13.865  66.871  1.00  0.00    -0.309 A  
HETATM   11  C   UNL     1     -12.440  13.991  64.847  1.00  0.00    -0.419 A  
HETATM   12  C   UNL     1     -10.678  12.568  66.471  1.00  0.00    -0.240 A  
HETATM   13  C   UNL     1     -11.932  14.569  66.014  1.00  0.00    -0.319 A  
HETATM   14 CL   UNL     1      -9.501  11.637  67.330  1.00  0.00    -0.166 Cl 
HETATM   15 CL   UNL     1     -12.746  11.961  63.100  1.00  0.00    -0.522 Cl 
HETATM   16  C   UNL     1     -11.215  11.974  65.321  1.00  0.00    -0.374 A  
HETATM   17  C   UNL     1     -12.096  12.688  64.517  1.00  0.00    -0.417 A  
ENDBRANCH   9  10
BRANCH   9  18
HETATM   18  C   UNL     1      -9.048  14.809  68.196  1.00  0.00    -0.180 C  
BRANCH  18  19
HETATM   19  N   UNL     1      -8.687  16.164  67.837  1.00  0.00    -0.173 NA 
HETATM   20  N   UNL     1      -8.758  18.377  67.782  1.00  0.00    -0.264 NA 
HETATM   21  C   UNL     1      -7.564  16.559  67.170  1.00  0.00    -0.179 A  
HETATM   22  C   UNL     1      -7.631  17.932  67.143  1.00  0.00    -0.201 A  
HETATM   23  C   UNL     1      -9.370  17.293  68.198  1.00  0.00    -0.274 A  
ENDBRANCH  18  19
ENDBRANCH   9  18
ENDBRANCH   8   9
ENDBRANCH   7   8
ENDBRANCH   3   7
TORSDOF 6
ENDMDL
MODEL       52
REMARK 921   NORMALIZED FREE ENERGY PREDICTED BY IDOCK:   -5.40 KCAL/MOL
REMARK 922        TOTAL FREE ENERGY PREDICTED BY IDOCK:   -8.34 KCAL/MOL
REMARK 923 INTER-LIGAND FREE ENERGY PREDICTED BY IDOCK:   -8.02 KCAL/MOL
REMARK 924 INTRA-LIGAND FREE ENERGY PREDICTED BY IDOCK:   -0.32 KCAL/MOL
REMARK 927      BINDING AFFINITY PREDICTED BY RF-SCORE:    0.00 PKD
ROOT
HETATM    1 CL   UNL     1     -10.083  10.284  65.318  1.00  0.00    -0.378 Cl 
HETATM    2  C   UNL     1     -10.849  11.682  65.971  1.00  0.00    -0.289 A  
HETATM    3  C   UNL     1     -11.434  11.805  67.212  1.00  0.00    -0.373 A  
HETATM    4  C   UNL     1     -11.918  13.151  67.385  1.00  0.00    -0.379 A  
HETATM    5  S   UNL     1     -10.902  13.090  65.033  1.00  0.00    -0.323 SA 
HETATM    6  C   UNL     1     -11.701  13.946  66.280  1.00  0.00    -0.383 A  
ENDROOT
BRANCH   3   7
HETATM    7  C   UNL     1     -11.509  10.723  68.251  1.00  0.00    -0.280 C  
BRANCH   7   8
HETATM    8  O   UNL     1     -12.470  11.046  69.255  1.00  0.00    -0.400 OA 
BRANCH   8   9
HETATM    9  C   UNL     1     -11.984  11.079  70.611  1.00  0.00    -0.365 C  
BRANCH   9  10
HETATM   10  C   UNL     1     -11.553   9.660  71.015  1.00  0.00    -0.436 A  
HETATM   11  C   UNL     1      -9.749   8.047  71.419  1.00  0.00    -0.205 A  
HETATM   12  C   UNL     1     -12.471   8.631  71.308  1.00  0.00    -0.252 A  
HETATM   13  C   UNL     1     -10.182   9.339  71.105  1.00  0.00    -0.387 A  
HETATM   14 CL   UNL     1     -14.177   8.902  71.389  1.00  0.00    -0.332 Cl 
HETATM   15 CL   UNL     1     -10.151   5.444  71.990  1.00  0.00    -0.231 Cl 
HETATM   16  C   UNL     1     -12.039   7.327  71.587  1.00  0.00    -0.359 A  
HETATM   17  C   UNL     1     -10.680   7.042  71.638  1.00  0.00    -0.220 A  
ENDBRANCH   9  10
BRANCH   9  18
HETATM   18  C   UNL     1     -13.033  11.710  71.561  1.00  0.00    -0.358 C  
BRANCH  18  19
HETATM   19  N   UNL     1     -13.083  13.156  71.527  1.00  0.00    -0.353 NA 
HETATM   20  N   UNL     1     -13.745  15.214  72.010  1.00  0.00    -0.423 NA 
HETATM   21  C   UNL     1     -12.178  13.991  70.937  1.00  0.00    -0.362 A  
HETATM   22  C   UNL     1     -12.610  15.259  71.245  1.00  0.00    -0.383 A  
HETATM   23  C   UNL     1     -14.002  13.938  72.172  1.00  0.00    -0.545 A  
ENDBRANCH  18  19
ENDBRANCH   9  18
ENDBRANCH   8   9
ENDBRANCH   7   8
ENDBRANCH   3   7
TORSDOF 6
ENDMDL
MODEL       53
REMARK 921   NORMALIZED FREE ENERGY PREDICTED BY IDOCK:   -5.33 KCAL/MOL
REMARK 922        TOTAL FREE ENERGY PREDICTED BY IDOCK:   -8.25 KCAL/MOL
REMARK 923 INTER-LIGAND FREE ENERGY PREDICTED BY IDOCK:   -7.34 KCAL/MOL
REMARK 924 INTRA-LIGAND FREE ENERGY PREDICTED BY IDOCK:   -0.91 KCAL/MOL
REMARK 927      BINDING AFFINITY PREDICTED BY RF-SCORE:    0.00 PKD
ROOT
HETATM    1 CL   UNL     1     -11.421  16.371  68.783  1.00  0.00    -0.293 Cl 
HETATM    2  C   UNL     1     -12.010  15.183  69.883  1.00  0.00    -0.337 A  
HETATM    3  C   UNL     1     -12.146  13.832  69.651  1.00  0.00    -0.392 A  
HETATM    4  C   UNL     1     -12.630  13.185  70.844  1.00  0.00    -0.377 A  
HETATM    5  S   UNL     1     -12.471  15.673  71.436  1.00  0.00    -0.462 SA 
HETATM    6  C   UNL     1     -12.854  14.067  71.880  1.00  0.00    -0.335 A  
ENDROOT
BRANCH   3   7
HETATM    7  C   UNL     1     -11.793  13.128  68.374  1.00  0.00    -0.351 C  
BRANCH   7   8
HETATM    8  O   UNL     1     -12.149  11.747  68.437  1.00  0.00    -0.490 OA 
BRANCH   8   9
HETATM    9  C   UNL     1     -11.255  10.830  67.774  1.00  0.00    -0.316 C  
BRANCH   9  10
HETATM   10  C   UNL     1     -10.784   9.780  68.792  1.00  0.00    -0.243 A  
HETATM   11  C   UNL     1     -10.296   9.182  71.122  1.00  0.00    -0.387 A  
HETATM   12  C   UNL     1     -10.356   8.488  68.424  1.00  0.00    -0.202 A  
HETATM   13  C   UNL     1     -10.765  10.091  70.169  1.00  0.00    -0.361 A  
HETATM   14 CL   UNL     1     -10.460   7.902  66.800  1.00  0.00    -0.380 Cl 
HETATM   15 CL   UNL     1      -9.212   6.835  71.883  1.00  0.00    -0.143 Cl 
HETATM   16  C   UNL     1      -9.851   7.589  69.373  1.00  0.00    -0.166 A  
HETATM   17  C   UNL     1      -9.821   7.943  70.716  1.00  0.00    -0.180 A  
ENDBRANCH   9  10
BRANCH   9  18
HETATM   18  C   UNL     1     -10.099  11.590  67.077  1.00  0.00    -0.210 C  
BRANCH  18  19
HETATM   19  N   UNL     1     -10.219  11.679  65.637  1.00  0.00    -0.233 NA 
HETATM   20  N   UNL     1     -10.293  11.019  63.524  1.00  0.00    -0.359 NA 
HETATM   21  C   UNL     1     -10.613  12.769  64.916  1.00  0.00    -0.314 A  
HETATM   22  C   UNL     1     -10.648  12.339  63.611  1.00  0.00    -0.462 A  
HETATM   23  C   UNL     1     -10.049  10.644  64.758  1.00  0.00    -0.344 A  
ENDBRANCH  18  19
ENDBRANCH   9  18
ENDBRANCH   8   9
ENDBRANCH   7   8
ENDBRANCH   3   7
TORSDOF 6
ENDMDL
MODEL       54
REMARK 921   NORMALIZED FREE ENERGY PREDICTED BY IDOCK:   -5.32 KCAL/MOL
REMARK 922        TOTAL FREE ENERGY PREDICTED BY IDOCK:   -8.22 KCAL/MOL
REMARK 923 INTER-LIGAND FREE ENERGY PREDICTED BY IDOCK:   -7.49 KCAL/MOL
REMARK 924 INTRA-LIGAND FREE ENERGY PREDICTED BY IDOCK:   -0.73 KCAL/MOL
REMARK 927      BINDING AFFINITY PREDICTED BY RF-SCORE:    0.00 PKD
ROOT
HETATM    1 CL   UNL     1     -10.363   9.141  66.974  1.00  0.00    -0.334 Cl 
HETATM    2  C   UNL     1      -9.065   9.575  68.020  1.00  0.00    -0.123 A  
HETATM    3  C   UNL     1      -8.537  10.833  68.212  1.00  0.00    -0.135 A  
HETATM    4  C   UNL     1      -7.495  10.773  69.205  1.00  0.00    -0.123 A  
HETATM    5  S   UNL     1      -8.333   8.364  68.950  1.00  0.00    -0.120 SA 
HETATM    6  C   UNL     1      -7.280   9.496  69.680  1.00  0.00    -0.076 A  
ENDROOT
BRANCH   3   7
HETATM    7  C   UNL     1      -9.008  12.087  67.534  1.00  0.00    -0.174 C  
BRANCH   7   8
HETATM    8  O   UNL     1      -9.564  13.000  68.480  1.00  0.00    -0.197 OA 
BRANCH   8   9
HETATM    9  C   UNL     1     -10.854  13.551  68.146  1.00  0.00    -0.254 C  
BRANCH   9  10
HETATM   10  C   UNL     1     -11.493  14.117  69.425  1.00  0.00    -0.337 A  
HETATM   11  C   UNL     1     -12.925  13.773  71.388  1.00  0.00    -0.433 A  
HETATM   12  C   UNL     1     -11.331  15.454  69.839  1.00  0.00    -0.304 A  
HETATM   13  C   UNL     1     -12.285  13.285  70.245  1.00  0.00    -0.391 A  
HETATM   14 CL   UNL     1     -10.273  16.558  69.029  1.00  0.00    -0.267 Cl 
HETATM   15 CL   UNL     1     -13.610  15.725  73.116  1.00  0.00    -0.639 Cl 
HETATM   16  C   UNL     1     -12.001  15.955  70.963  1.00  0.00    -0.453 A  
HETATM   17  C   UNL     1     -12.797  15.112  71.729  1.00  0.00    -0.355 A  
ENDBRANCH   9  10
BRANCH   9  18
HETATM   18  C   UNL     1     -11.732  12.503  67.418  1.00  0.00    -0.366 C  
BRANCH  18  19
HETATM   19  N   UNL     1     -11.943  12.768  66.011  1.00  0.00    -0.445 NA 
HETATM   20  N   UNL     1     -12.552  13.855  64.179  1.00  0.00    -0.684 NA 
HETATM   21  C   UNL     1     -11.461  12.038  64.962  1.00  0.00    -0.286 A  
HETATM   22  C   UNL     1     -11.855  12.727  63.839  1.00  0.00    -0.468 A  
HETATM   23  C   UNL     1     -12.582  13.860  65.491  1.00  0.00    -0.526 A  
ENDBRANCH  18  19
ENDBRANCH   9  18
ENDBRANCH   8   9
ENDBRANCH   7   8
ENDBRANCH   3   7
TORSDOF 6
ENDMDL
MODEL       55
REMARK 921   NORMALIZED FREE ENERGY PREDICTED BY IDOCK:   -5.31 KCAL/MOL
REMARK 922        TOTAL FREE ENERGY PREDICTED BY IDOCK:   -8.21 KCAL/MOL
REMARK 923 INTER-LIGAND FREE ENERGY PREDICTED BY IDOCK:   -7.38 KCAL/MOL
REMARK 924 INTRA-LIGAND FREE ENERGY PREDICTED BY IDOCK:   -0.83 KCAL/MOL
REMARK 927      BINDING AFFINITY PREDICTED BY RF-SCORE:    0.00 PKD
ROOT
HETATM    1 CL   UNL     1      -7.143  16.750  66.828  1.00  0.00    -0.249 Cl 
HETATM    2  C   UNL     1      -8.668  17.461  67.198  1.00  0.00    -0.227 A  
HETATM    3  C   UNL     1      -9.604  16.998  68.097  1.00  0.00    -0.266 A  
HETATM    4  C   UNL     1     -10.720  17.909  68.142  1.00  0.00    -0.287 A  
HETATM    5  S   UNL     1      -9.106  18.895  66.412  1.00  0.00    -0.277 SA 
HETATM    6  C   UNL     1     -10.580  18.972  67.275  1.00  0.00    -0.470 A  
ENDROOT
BRANCH   3   7
HETATM    7  C   UNL     1      -9.464  15.766  68.942  1.00  0.00    -0.229 C  
BRANCH   7   8
HETATM    8  O   UNL     1      -9.071  14.646  68.151  1.00  0.00    -0.176 OA 
BRANCH   8   9
HETATM    9  C   UNL     1     -10.138  13.906  67.524  1.00  0.00    -0.244 C  
BRANCH   9  10
HETATM   10  C   UNL     1     -10.503  12.713  68.422  1.00  0.00    -0.248 A  
HETATM   11  C   UNL     1     -10.077  10.398  69.116  1.00  0.00    -0.236 A  
HETATM   12  C   UNL     1     -11.576  12.736  69.335  1.00  0.00    -0.298 A  
HETATM   13  C   UNL     1      -9.747  11.522  68.354  1.00  0.00    -0.202 A  
HETATM   14 CL   UNL     1     -12.502  14.164  69.646  1.00  0.00    -0.296 Cl 
HETATM   15 CL   UNL     1     -11.610   9.041  70.869  1.00  0.00    -0.332 Cl 
HETATM   16  C   UNL     1     -11.931  11.598  70.072  1.00  0.00    -0.429 A  
HETATM   17  C   UNL     1     -11.181  10.434  69.956  1.00  0.00    -0.316 A  
ENDBRANCH   9  10
BRANCH   9  18
HETATM   18  C   UNL     1      -9.759  13.508  66.076  1.00  0.00    -0.218 C  
BRANCH  18  19
HETATM   19  N   UNL     1     -10.846  13.594  65.124  1.00  0.00    -0.317 NA 
HETATM   20  N   UNL     1     -12.417  14.505  63.856  1.00  0.00    -0.806 NA 
HETATM   21  C   UNL     1     -11.303  12.594  64.314  1.00  0.00    -0.363 A  
HETATM   22  C   UNL     1     -12.278  13.179  63.542  1.00  0.00    -0.476 A  
HETATM   23  C   UNL     1     -11.538  14.730  64.804  1.00  0.00    -0.418 A  
ENDBRANCH  18  19
ENDBRANCH   9  18
ENDBRANCH   8   9
ENDBRANCH   7   8
ENDBRANCH   3   7
TORSDOF 6
ENDMDL
MODEL       56
REMARK 921   NORMALIZED FREE ENERGY PREDICTED BY IDOCK:   -5.31 KCAL/MOL
REMARK 922        TOTAL FREE ENERGY PREDICTED BY IDOCK:   -8.21 KCAL/MOL
REMARK 923 INTER-LIGAND FREE ENERGY PREDICTED BY IDOCK:   -7.56 KCAL/MOL
REMARK 924 INTRA-LIGAND FREE ENERGY PREDICTED BY IDOCK:   -0.65 KCAL/MOL
REMARK 927      BINDING AFFINITY PREDICTED BY RF-SCORE:    0.00 PKD
ROOT
HETATM    1 CL   UNL     1     -10.684  19.429  66.799  1.00  0.00    -0.556 Cl 
HETATM    2  C   UNL     1      -9.452  18.479  67.539  1.00  0.00    -0.277 A  
HETATM    3  C   UNL     1      -9.248  17.124  67.393  1.00  0.00    -0.232 A  
HETATM    4  C   UNL     1      -8.083  16.729  68.143  1.00  0.00    -0.197 A  
HETATM    5  S   UNL     1      -8.333  19.247  68.551  1.00  0.00    -0.369 SA 
HETATM    6  C   UNL     1      -7.499  17.778  68.820  1.00  0.00    -0.263 A  
ENDROOT
BRANCH   3   7
HETATM    7  C   UNL     1     -10.075  16.206  66.541  1.00  0.00    -0.291 C  
BRANCH   7   8
HETATM    8  O   UNL     1     -11.173  15.674  67.281  1.00  0.00    -0.288 OA 
BRANCH   8   9
HETATM    9  C   UNL     1     -10.940  14.417  67.947  1.00  0.00    -0.262 C  
BRANCH   9  10
HETATM   10  C   UNL     1     -10.651  13.343  66.886  1.00  0.00    -0.273 A  
HETATM   11  C   UNL     1      -9.170  11.587  66.024  1.00  0.00    -0.229 A  
HETATM   12  C   UNL     1     -11.493  13.107  65.780  1.00  0.00    -0.325 A  
HETATM   13  C   UNL     1      -9.496  12.539  66.994  1.00  0.00    -0.217 A  
HETATM   14 CL   UNL     1     -13.017  13.901  65.585  1.00  0.00    -0.479 Cl 
HETATM   15 CL   UNL     1      -9.572  10.280  63.701  1.00  0.00    -0.350 Cl 
HETATM   16  C   UNL     1     -11.149  12.179  64.788  1.00  0.00    -0.364 A  
HETATM   17  C   UNL     1      -9.988  11.427  64.914  1.00  0.00    -0.265 A  
ENDBRANCH   9  10
BRANCH   9  18
HETATM   18  C   UNL     1     -12.117  14.064  68.891  1.00  0.00    -0.316 C  
BRANCH  18  19
HETATM   19  N   UNL     1     -12.195  14.878  70.086  1.00  0.00    -0.321 NA 
HETATM   20  N   UNL     1     -13.056  15.802  71.905  1.00  0.00    -0.453 NA 
HETATM   21  C   UNL     1     -11.159  15.506  70.715  1.00  0.00    -0.351 A  
HETATM   22  C   UNL     1     -11.716  16.075  71.836  1.00  0.00    -0.504 A  
HETATM   23  C   UNL     1     -13.316  15.073  70.845  1.00  0.00    -0.380 A  
ENDBRANCH  18  19
ENDBRANCH   9  18
ENDBRANCH   8   9
ENDBRANCH   7   8
ENDBRANCH   3   7
TORSDOF 6
ENDMDL
MODEL       57
REMARK 921   NORMALIZED FREE ENERGY PREDICTED BY IDOCK:   -5.27 KCAL/MOL
REMARK 922        TOTAL FREE ENERGY PREDICTED BY IDOCK:   -8.17 KCAL/MOL
REMARK 923 INTER-LIGAND FREE ENERGY PREDICTED BY IDOCK:   -7.23 KCAL/MOL
REMARK 924 INTRA-LIGAND FREE ENERGY PREDICTED BY IDOCK:   -0.94 KCAL/MOL
REMARK 927      BINDING AFFINITY PREDICTED BY RF-SCORE:    0.00 PKD
ROOT
HETATM    1 CL   UNL     1      -9.276  10.823  66.013  1.00  0.00    -0.200 Cl 
HETATM    2  C   UNL     1     -10.661  11.577  65.320  1.00  0.00    -0.283 A  
HETATM    3  C   UNL     1     -11.635  12.293  65.982  1.00  0.00    -0.451 A  
HETATM    4  C   UNL     1     -12.593  12.796  65.031  1.00  0.00    -0.538 A  
HETATM    5  S   UNL     1     -10.890  11.473  63.646  1.00  0.00    -0.394 SA 
HETATM    6  C   UNL     1     -12.311  12.419  63.734  1.00  0.00    -0.528 A  
ENDROOT
BRANCH   3   7
HETATM    7  C   UNL     1     -11.668  12.559  67.459  1.00  0.00    -0.374 C  
BRANCH   7   8
HETATM    8  O   UNL     1     -11.963  11.367  68.185  1.00  0.00    -0.594 OA 
BRANCH   8   9
HETATM    9  C   UNL     1     -11.439  11.295  69.526  1.00  0.00    -0.307 C  
BRANCH   9  10
HETATM   10  C   UNL     1     -10.485  10.093  69.618  1.00  0.00    -0.282 A  
HETATM   11  C   UNL     1     -10.163   7.690  69.998  1.00  0.00    -0.213 A  
HETATM   12  C   UNL     1      -9.087  10.207  69.474  1.00  0.00    -0.195 A  
HETATM   13  C   UNL     1     -11.000   8.801  69.857  1.00  0.00    -0.184 A  
HETATM   14 CL   UNL     1      -8.315  11.689  69.031  1.00  0.00     0.049 Cl 
HETATM   15 CL   UNL     1      -7.752   6.491  70.123  1.00  0.00    -0.100 Cl 
HETATM   16  C   UNL     1      -8.244   9.101  69.652  1.00  0.00    -0.116 A  
HETATM   17  C   UNL     1      -8.787   7.850  69.916  1.00  0.00    -0.141 A  
ENDBRANCH   9  10
BRANCH   9  18
HETATM   18  C   UNL     1     -12.585  11.266  70.568  1.00  0.00    -0.246 C  
BRANCH  18  19
HETATM   19  N   UNL     1     -12.898  12.552  71.155  1.00  0.00    -0.281 NA 
HETATM   20  N   UNL     1     -13.671  14.024  72.618  1.00  0.00    -0.683 NA 
HETATM   21  C   UNL     1     -12.454  13.772  70.731  1.00  0.00    -0.370 A  
HETATM   22  C   UNL     1     -12.949  14.668  71.649  1.00  0.00    -0.335 A  
HETATM   23  C   UNL     1     -13.616  12.751  72.302  1.00  0.00    -0.465 A  
ENDBRANCH  18  19
ENDBRANCH   9  18
ENDBRANCH   8   9
ENDBRANCH   7   8
ENDBRANCH   3   7
TORSDOF 6
ENDMDL
MODEL       58
REMARK 921   NORMALIZED FREE ENERGY PREDICTED BY IDOCK:   -5.23 KCAL/MOL
REMARK 922        TOTAL FREE ENERGY PREDICTED BY IDOCK:   -8.11 KCAL/MOL
REMARK 923 INTER-LIGAND FREE ENERGY PREDICTED BY IDOCK:   -7.12 KCAL/MOL
REMARK 924 INTRA-LIGAND FREE ENERGY PREDICTED BY IDOCK:   -0.99 KCAL/MOL
REMARK 927      BINDING AFFINITY PREDICTED BY RF-SCORE:    0.00 PKD
ROOT
HETATM    1 CL   UNL     1      -9.418   9.271  70.770  1.00  0.00    -0.327 Cl 
HETATM    2  C   UNL     1     -11.088   9.401  71.170  1.00  0.00    -0.362 A  
HETATM    3  C   UNL     1     -12.004  10.280  70.634  1.00  0.00    -0.436 A  
HETATM    4  C   UNL     1     -13.303  10.030  71.206  1.00  0.00    -0.410 A  
HETATM    5  S   UNL     1     -11.730   8.346  72.328  1.00  0.00    -0.380 SA 
HETATM    6  C   UNL     1     -13.292   9.015  72.140  1.00  0.00    -0.455 A  
ENDROOT
BRANCH   3   7
HETATM    7  C   UNL     1     -11.713  11.306  69.578  1.00  0.00    -0.345 C  
BRANCH   7   8
HETATM    8  O   UNL     1     -11.811  10.736  68.273  1.00  0.00    -0.504 OA 
BRANCH   8   9
HETATM    9  C   UNL     1     -10.682  10.945  67.403  1.00  0.00    -0.257 C  
BRANCH   9  10
HETATM   10  C   UNL     1     -10.846  12.302  66.699  1.00  0.00    -0.296 A  
HETATM   11  C   UNL     1     -12.038  13.689  65.063  1.00  0.00    -0.418 A  
HETATM   12  C   UNL     1      -9.998  13.401  66.940  1.00  0.00    -0.252 A  
HETATM   13  C   UNL     1     -11.885  12.488  65.761  1.00  0.00    -0.494 A  
HETATM   14 CL   UNL     1      -8.777  13.384  68.164  1.00  0.00    -0.174 Cl 
HETATM   15 CL   UNL     1     -11.309  16.196  64.394  1.00  0.00    -0.375 Cl 
HETATM   16  C   UNL     1     -10.127  14.593  66.214  1.00  0.00    -0.307 A  
HETATM   17  C   UNL     1     -11.144  14.729  65.277  1.00  0.00    -0.370 A  
ENDBRANCH   9  10
BRANCH   9  18
HETATM   18  C   UNL     1     -10.504   9.752  66.430  1.00  0.00    -0.120 C  
BRANCH  18  19
HETATM   19  N   UNL     1      -9.972   8.552  67.040  1.00  0.00    -0.223 NA 
HETATM   20  N   UNL     1      -8.504   7.191  67.988  1.00  0.00    -0.122 NA 
HETATM   21  C   UNL     1     -10.683   7.465  67.460  1.00  0.00    -0.240 A  
HETATM   22  C   UNL     1      -9.754   6.634  68.039  1.00  0.00    -0.123 A  
HETATM   23  C   UNL     1      -8.665   8.348  67.391  1.00  0.00    -0.135 A  
ENDBRANCH  18  19
ENDBRANCH   9  18
ENDBRANCH   8   9
ENDBRANCH   7   8
ENDBRANCH   3   7
TORSDOF 6
ENDMDL
MODEL       59
REMARK 921   NORMALIZED FREE ENERGY PREDICTED BY IDOCK:   -5.23 KCAL/MOL
REMARK 922        TOTAL FREE ENERGY PREDICTED BY IDOCK:   -8.10 KCAL/MOL
REMARK 923 INTER-LIGAND FREE ENERGY PREDICTED BY IDOCK:   -7.01 KCAL/MOL
REMARK 924 INTRA-LIGAND FREE ENERGY PREDICTED BY IDOCK:   -1.10 KCAL/MOL
REMARK 927      BINDING AFFINITY PREDICTED BY RF-SCORE:    0.00 PKD
ROOT
HETATM    1 CL   UNL     1     -12.933  11.318  71.530  1.00  0.00    -0.548 Cl 
HETATM    2  C   UNL     1     -12.911  13.002  71.169  1.00  0.00    -0.245 A  
HETATM    3  C   UNL     1     -12.322  13.611  70.082  1.00  0.00    -0.372 A  
HETATM    4  C   UNL     1     -12.573  15.029  70.130  1.00  0.00    -0.312 A  
HETATM    5  S   UNL     1     -13.697  14.069  72.223  1.00  0.00    -0.587 SA 
HETATM    6  C   UNL     1     -13.299  15.409  71.239  1.00  0.00    -0.520 A  
ENDROOT
BRANCH   3   7
HETATM    7  C   UNL     1     -11.580  12.905  68.985  1.00  0.00    -0.322 C  
BRANCH   7   8
HETATM    8  O   UNL     1     -11.616  13.662  67.776  1.00  0.00    -0.299 OA 
BRANCH   8   9
HETATM    9  C   UNL     1     -10.339  13.984  67.190  1.00  0.00    -0.265 C  
BRANCH   9  10
HETATM   10  C   UNL     1     -10.264  15.505  66.979  1.00  0.00    -0.271 A  
HETATM   11  C   UNL     1     -10.674  17.448  65.538  1.00  0.00    -0.081 A  
HETATM   12  C   UNL     1      -9.706  16.387  67.926  1.00  0.00    -0.235 A  
HETATM   13  C   UNL     1     -10.769  16.077  65.791  1.00  0.00    -0.310 A  
HETATM   14 CL   UNL     1      -9.184  15.864  69.490  1.00  0.00    -0.234 Cl 
HETATM   15 CL   UNL     1      -9.910  19.962  66.141  1.00  0.00    -0.542 Cl 
HETATM   16  C   UNL     1      -9.577  17.757  67.658  1.00  0.00    -0.266 A  
HETATM   17  C   UNL     1     -10.059  18.279  66.464  1.00  0.00    -0.385 A  
ENDBRANCH   9  10
BRANCH   9  18
HETATM   18  C   UNL     1     -10.097  13.159  65.902  1.00  0.00    -0.290 C  
BRANCH  18  19
HETATM   19  N   UNL     1      -9.622  11.811  66.130  1.00  0.00    -0.227 NA 
HETATM   20  N   UNL     1      -9.646   9.598  66.220  1.00  0.00    -0.202 NA 
HETATM   21  C   UNL     1      -8.337  11.431  66.389  1.00  0.00    -0.140 A  
HETATM   22  C   UNL     1      -8.376  10.058  66.445  1.00  0.00    -0.126 A  
HETATM   23  C   UNL     1     -10.373  10.672  66.024  1.00  0.00    -0.225 A  
ENDBRANCH  18  19
ENDBRANCH   9  18
ENDBRANCH   8   9
ENDBRANCH   7   8
ENDBRANCH   3   7
TORSDOF 6
ENDMDL
MODEL       60
REMARK 921   NORMALIZED FREE ENERGY PREDICTED BY IDOCK:   -5.16 KCAL/MOL
REMARK 922        TOTAL FREE ENERGY PREDICTED BY IDOCK:   -8.01 KCAL/MOL
REMARK 923 INTER-LIGAND FREE ENERGY PREDICTED BY IDOCK:   -7.16 KCAL/MOL
REMARK 924 INTRA-LIGAND FREE ENERGY PREDICTED BY IDOCK:   -0.85 KCAL/MOL
REMARK 927      BINDING AFFINITY PREDICTED BY RF-SCORE:    0.00 PKD
ROOT
HETATM    1 CL   UNL     1     -12.150  11.073  69.406  1.00  0.00    -0.407 Cl 
HETATM    2  C   UNL     1     -11.337  11.540  67.962  1.00  0.00    -0.298 A  
HETATM    3  C   UNL     1     -11.252  12.808  67.429  1.00  0.00    -0.337 A  
HETATM    4  C   UNL     1     -10.442  12.776  66.238  1.00  0.00    -0.273 A  
HETATM    5  S   UNL     1     -10.523  10.353  67.069  1.00  0.00    -0.245 SA 
HETATM    6  C   UNL     1      -9.991  11.510  65.928  1.00  0.00    -0.230 A  
ENDROOT
BRANCH   3   7
HETATM    7  C   UNL     1     -11.859  14.044  68.024  1.00  0.00    -0.368 C  
BRANCH   7   8
HETATM    8  O   UNL     1     -11.179  14.423  69.220  1.00  0.00    -0.255 OA 
BRANCH   8   9
HETATM    9  C   UNL     1     -11.028  15.839  69.443  1.00  0.00    -0.296 C  
BRANCH   9  10
HETATM   10  C   UNL     1      -9.626  16.264  68.978  1.00  0.00    -0.257 A  
HETATM   11  C   UNL     1      -7.196  15.923  69.049  1.00  0.00    -0.177 A  
HETATM   12  C   UNL     1      -9.397  17.363  68.127  1.00  0.00    -0.277 A  
HETATM   13  C   UNL     1      -8.492  15.539  69.407  1.00  0.00    -0.256 A  
HETATM   14 CL   UNL     1     -10.684  18.258  67.396  1.00  0.00    -0.418 Cl 
HETATM   15 CL   UNL     1      -5.410  17.545  67.849  1.00  0.00    -0.128 Cl 
HETATM   16  C   UNL     1      -8.097  17.771  67.797  1.00  0.00    -0.226 A  
HETATM   17  C   UNL     1      -7.004  17.051  68.263  1.00  0.00    -0.180 A  
ENDBRANCH   9  10
BRANCH   9  18
HETATM   18  C   UNL     1     -11.338  16.204  70.916  1.00  0.00    -0.359 C  
BRANCH  18  19
HETATM   19  N   UNL     1     -12.422  15.449  71.508  1.00  0.00    -0.349 NA 
HETATM   20  N   UNL     1     -13.532  14.250  73.004  1.00  0.00    -0.635 NA 
HETATM   21  C   UNL     1     -13.702  15.356  71.041  1.00  0.00    -0.342 A  
HETATM   22  C   UNL     1     -14.369  14.606  71.980  1.00  0.00    -0.558 A  
HETATM   23  C   UNL     1     -12.370  14.778  72.699  1.00  0.00    -0.287 A  
ENDBRANCH  18  19
ENDBRANCH   9  18
ENDBRANCH   8   9
ENDBRANCH   7   8
ENDBRANCH   3   7
TORSDOF 6
ENDMDL
MODEL       61
REMARK 921   NORMALIZED FREE ENERGY PREDICTED BY IDOCK:   -5.15 KCAL/MOL
REMARK 922        TOTAL FREE ENERGY PREDICTED BY IDOCK:   -8.00 KCAL/MOL
REMARK 923 INTER-LIGAND FREE ENERGY PREDICTED BY IDOCK:   -7.05 KCAL/MOL
REMARK 924 INTRA-LIGAND FREE ENERGY PREDICTED BY IDOCK:   -0.94 KCAL/MOL
REMARK 927      BINDING AFFINITY PREDICTED BY RF-SCORE:    0.00 PKD
ROOT
HETATM    1 CL   UNL     1     -12.184  13.378  63.208  1.00  0.00    -0.485 Cl 
HETATM    2  C   UNL     1     -11.296  12.268  64.180  1.00  0.00    -0.376 A  
HETATM    3  C   UNL     1     -11.313  12.170  65.555  1.00  0.00    -0.393 A  
HETATM    4  C   UNL     1     -10.466  11.081  65.971  1.00  0.00    -0.304 A  
HETATM    5  S   UNL     1     -10.291  11.141  63.414  1.00  0.00    -0.308 SA 
HETATM    6  C   UNL     1      -9.849  10.446  64.913  1.00  0.00    -0.334 A  
ENDROOT
BRANCH   3   7
HETATM    7  C   UNL     1     -12.128  13.027  66.479  1.00  0.00    -0.341 C  
BRANCH   7   8
HETATM    8  O   UNL     1     -11.958  12.619  67.836  1.00  0.00    -0.349 OA 
BRANCH   8   9
HETATM    9  C   UNL     1     -11.650  13.665  68.779  1.00  0.00    -0.324 C  
BRANCH   9  10
HETATM   10  C   UNL     1     -10.227  14.175  68.501  1.00  0.00    -0.247 A  
HETATM   11  C   UNL     1      -7.843  13.684  68.187  1.00  0.00    -0.143 A  
HETATM   12  C   UNL     1      -9.915  15.540  68.347  1.00  0.00    -0.214 A  
HETATM   13  C   UNL     1      -9.159  13.258  68.389  1.00  0.00    -0.137 A  
HETATM   14 CL   UNL     1     -11.128  16.773  68.306  1.00  0.00    -0.328 Cl 
HETATM   15 CL   UNL     1      -5.940  15.569  67.892  1.00  0.00    -0.150 Cl 
HETATM   16  C   UNL     1      -8.592  15.971  68.182  1.00  0.00    -0.171 A  
HETATM   17  C   UNL     1      -7.563  15.041  68.106  1.00  0.00    -0.111 A  
ENDBRANCH   9  10
BRANCH   9  18
HETATM   18  C   UNL     1     -11.870  13.181  70.234  1.00  0.00    -0.224 C  
BRANCH  18  19
HETATM   19  N   UNL     1     -12.297  14.213  71.154  1.00  0.00    -0.356 NA 
HETATM   20  N   UNL     1     -12.182  16.012  72.442  1.00  0.00    -0.479 NA 
HETATM   21  C   UNL     1     -13.576  14.470  71.556  1.00  0.00    -0.390 A  
HETATM   22  C   UNL     1     -13.480  15.584  72.355  1.00  0.00    -0.509 A  
HETATM   23  C   UNL     1     -11.493  15.175  71.702  1.00  0.00    -0.380 A  
ENDBRANCH  18  19
ENDBRANCH   9  18
ENDBRANCH   8   9
ENDBRANCH   7   8
ENDBRANCH   3   7
TORSDOF 6
ENDMDL
MODEL       62
REMARK 921   NORMALIZED FREE ENERGY PREDICTED BY IDOCK:   -5.15 KCAL/MOL
REMARK 922        TOTAL FREE ENERGY PREDICTED BY IDOCK:   -7.99 KCAL/MOL
REMARK 923 INTER-LIGAND FREE ENERGY PREDICTED BY IDOCK:   -7.08 KCAL/MOL
REMARK 924 INTRA-LIGAND FREE ENERGY PREDICTED BY IDOCK:   -0.91 KCAL/MOL
REMARK 927      BINDING AFFINITY PREDICTED BY RF-SCORE:    0.00 PKD
ROOT
HETATM    1 CL   UNL     1      -9.524  11.191  67.509  1.00  0.00    -0.173 Cl 
HETATM    2  C   UNL     1     -10.490  12.207  68.510  1.00  0.00    -0.233 A  
HETATM    3  C   UNL     1     -10.290  13.544  68.774  1.00  0.00    -0.169 A  
HETATM    4  C   UNL     1     -11.350  14.032  69.620  1.00  0.00    -0.270 A  
HETATM    5  S   UNL     1     -11.855  11.545  69.260  1.00  0.00    -0.348 SA 
HETATM    6  C   UNL     1     -12.258  13.051  69.962  1.00  0.00    -0.236 A  
ENDROOT
BRANCH   3   7
HETATM    7  C   UNL     1      -9.174  14.383  68.225  1.00  0.00    -0.201 C  
BRANCH   7   8
HETATM    8  O   UNL     1      -9.657  15.653  67.787  1.00  0.00    -0.209 OA 
BRANCH   8   9
HETATM    9  C   UNL     1      -9.346  16.016  66.427  1.00  0.00    -0.298 C  
BRANCH   9  10
HETATM   10  C   UNL     1      -8.621  17.371  66.433  1.00  0.00    -0.282 A  
HETATM   11  C   UNL     1      -6.579  18.663  66.004  1.00  0.00    -0.277 A  
HETATM   12  C   UNL     1      -9.220  18.563  66.887  1.00  0.00    -0.290 A  
HETATM   13  C   UNL     1      -7.291  17.460  65.968  1.00  0.00    -0.265 A  
HETATM   14 CL   UNL     1     -10.886  18.651  67.345  1.00  0.00    -0.453 Cl 
HETATM   15 CL   UNL     1      -6.295  21.277  66.596  1.00  0.00    -0.369 Cl 
HETATM   16  C   UNL     1      -8.497  19.761  66.957  1.00  0.00    -0.366 A  
HETATM   17  C   UNL     1      -7.179  19.803  66.519  1.00  0.00    -0.241 A  
ENDBRANCH   9  10
BRANCH   9  18
HETATM   18  C   UNL     1     -10.617  15.989  65.542  1.00  0.00    -0.398 C  
BRANCH  18  19
HETATM   19  N   UNL     1     -11.151  14.666  65.295  1.00  0.00    -0.340 NA 
HETATM   20  N   UNL     1     -11.196  12.532  64.704  1.00  0.00    -0.300 NA 
HETATM   21  C   UNL     1     -12.380  14.199  65.665  1.00  0.00    -0.456 A  
HETATM   22  C   UNL     1     -12.387  12.878  65.285  1.00  0.00    -0.490 A  
HETATM   23  C   UNL     1     -10.468  13.623  64.731  1.00  0.00    -0.418 A  
ENDBRANCH  18  19
ENDBRANCH   9  18
ENDBRANCH   8   9
ENDBRANCH   7   8
ENDBRANCH   3   7
TORSDOF 6
ENDMDL
MODEL       63
REMARK 921   NORMALIZED FREE ENERGY PREDICTED BY IDOCK:   -5.15 KCAL/MOL
REMARK 922        TOTAL FREE ENERGY PREDICTED BY IDOCK:   -7.99 KCAL/MOL
REMARK 923 INTER-LIGAND FREE ENERGY PREDICTED BY IDOCK:   -7.45 KCAL/MOL
REMARK 924 INTRA-LIGAND FREE ENERGY PREDICTED BY IDOCK:   -0.54 KCAL/MOL
REMARK 927      BINDING AFFINITY PREDICTED BY RF-SCORE:    0.00 PKD
ROOT
HETATM    1 CL   UNL     1     -10.875   9.631  68.835  1.00  0.00    -0.229 Cl 
HETATM    2  C   UNL     1     -11.426  11.119  69.506  1.00  0.00    -0.303 A  
HETATM    3  C   UNL     1     -11.150  12.389  69.048  1.00  0.00    -0.288 A  
HETATM    4  C   UNL     1     -11.841  13.356  69.863  1.00  0.00    -0.385 A  
HETATM    5  S   UNL     1     -12.431  11.073  70.867  1.00  0.00    -0.411 SA 
HETATM    6  C   UNL     1     -12.563  12.778  70.886  1.00  0.00    -0.255 A  
ENDROOT
BRANCH   3   7
HETATM    7  C   UNL     1     -10.306  12.719  67.852  1.00  0.00    -0.226 C  
BRANCH   7   8
HETATM    8  O   UNL     1     -10.631  14.010  67.338  1.00  0.00    -0.274 OA 
BRANCH   8   9
HETATM    9  C   UNL     1      -9.701  14.569  66.390  1.00  0.00    -0.296 C  
BRANCH   9  10
HETATM   10  C   UNL     1      -9.030  15.798  67.024  1.00  0.00    -0.247 A  
HETATM   11  C   UNL     1      -7.019  17.172  67.326  1.00  0.00    -0.196 A  
HETATM   12  C   UNL     1      -9.699  16.673  67.903  1.00  0.00    -0.244 A  
HETATM   13  C   UNL     1      -7.680  16.093  66.731  1.00  0.00    -0.288 A  
HETATM   14 CL   UNL     1     -11.389  16.537  68.243  1.00  0.00    -0.272 Cl 
HETATM   15 CL   UNL     1      -6.868  19.280  68.998  1.00  0.00    -0.359 Cl 
HETATM   16  C   UNL     1      -9.027  17.732  68.528  1.00  0.00    -0.288 A  
HETATM   17  C   UNL     1      -7.690  17.973  68.239  1.00  0.00    -0.282 A  
ENDBRANCH   9  10
BRANCH   9  18
HETATM   18  C   UNL     1     -10.397  14.862  65.037  1.00  0.00    -0.370 C  
BRANCH  18  19
HETATM   19  N   UNL     1     -11.038  13.716  64.429  1.00  0.00    -0.378 NA 
HETATM   20  N   UNL     1     -12.609  12.510  63.437  1.00  0.00    -0.723 NA 
HETATM   21  C   UNL     1     -10.441  12.541  64.073  1.00  0.00    -0.422 A  
HETATM   22  C   UNL     1     -11.433  11.808  63.465  1.00  0.00    -0.394 A  
HETATM   23  C   UNL     1     -12.341  13.657  64.015  1.00  0.00    -0.325 A  
ENDBRANCH  18  19
ENDBRANCH   9  18
ENDBRANCH   8   9
ENDBRANCH   7   8
ENDBRANCH   3   7
TORSDOF 6
ENDMDL
MODEL       64
REMARK 921   NORMALIZED FREE ENERGY PREDICTED BY IDOCK:   -5.14 KCAL/MOL
REMARK 922        TOTAL FREE ENERGY PREDICTED BY IDOCK:   -7.98 KCAL/MOL
REMARK 923 INTER-LIGAND FREE ENERGY PREDICTED BY IDOCK:   -7.29 KCAL/MOL
REMARK 924 INTRA-LIGAND FREE ENERGY PREDICTED BY IDOCK:   -0.70 KCAL/MOL
REMARK 927      BINDING AFFINITY PREDICTED BY RF-SCORE:    0.00 PKD
ROOT
HETATM    1 CL   UNL     1     -11.876  15.733  69.590  1.00  0.00    -0.360 Cl 
HETATM    2  C   UNL     1     -12.548  14.637  70.736  1.00  0.00    -0.350 A  
HETATM    3  C   UNL     1     -12.440  13.264  70.735  1.00  0.00    -0.403 A  
HETATM    4  C   UNL     1     -13.107  12.727  71.894  1.00  0.00    -0.474 A  
HETATM    5  S   UNL     1     -13.435  15.265  72.035  1.00  0.00    -0.496 SA 
HETATM    6  C   UNL     1     -13.692  13.701  72.676  1.00  0.00    -0.439 A  
ENDROOT
BRANCH   3   7
HETATM    7  C   UNL     1     -11.695  12.450  69.717  1.00  0.00    -0.291 C  
BRANCH   7   8
HETATM    8  O   UNL     1     -12.185  11.110  69.678  1.00  0.00    -0.320 OA 
BRANCH   8   9
HETATM    9  C   UNL     1     -11.209  10.085  69.406  1.00  0.00    -0.188 C  
BRANCH   9  10
HETATM   10  C   UNL     1     -10.946   9.300  70.701  1.00  0.00    -0.336 A  
HETATM   11  C   UNL     1      -9.342   8.236  72.224  1.00  0.00    -0.323 A  
HETATM   12  C   UNL     1     -11.975   8.857  71.556  1.00  0.00    -0.333 A  
HETATM   13  C   UNL     1      -9.621   8.992  71.081  1.00  0.00    -0.356 A  
HETATM   14 CL   UNL     1     -13.634   9.282  71.312  1.00  0.00    -0.350 Cl 
HETATM   15 CL   UNL     1     -10.045   6.802  74.394  1.00  0.00    -0.354 Cl 
HETATM   16  C   UNL     1     -11.699   8.069  72.681  1.00  0.00    -0.418 A  
HETATM   17  C   UNL     1     -10.384   7.760  73.007  1.00  0.00    -0.347 A  
ENDBRANCH   9  10
BRANCH   9  18
HETATM   18  C   UNL     1      -9.933  10.690  68.769  1.00  0.00    -0.193 C  
BRANCH  18  19
HETATM   19  N   UNL     1      -9.604  10.164  67.462  1.00  0.00    -0.154 NA 
HETATM   20  N   UNL     1      -8.768   8.794  65.935  1.00  0.00    -0.159 NA 
HETATM   21  C   UNL     1     -10.086  10.600  66.261  1.00  0.00    -0.235 A  
HETATM   22  C   UNL     1      -9.552   9.740  65.331  1.00  0.00    -0.292 A  
HETATM   23  C   UNL     1      -8.824   9.067  67.217  1.00  0.00    -0.117 A  
ENDBRANCH  18  19
ENDBRANCH   9  18
ENDBRANCH   8   9
ENDBRANCH   7   8
ENDBRANCH   3   7
TORSDOF 6
ENDMDL
MODEL       65
REMARK 921   NORMALIZED FREE ENERGY PREDICTED BY IDOCK:   -5.14 KCAL/MOL
REMARK 922        TOTAL FREE ENERGY PREDICTED BY IDOCK:   -7.98 KCAL/MOL
REMARK 923 INTER-LIGAND FREE ENERGY PREDICTED BY IDOCK:   -7.55 KCAL/MOL
REMARK 924 INTRA-LIGAND FREE ENERGY PREDICTED BY IDOCK:   -0.43 KCAL/MOL
REMARK 927      BINDING AFFINITY PREDICTED BY RF-SCORE:    0.00 PKD
ROOT
HETATM    1 CL   UNL     1      -7.769  17.867  68.166  1.00  0.00    -0.247 Cl 
HETATM    2  C   UNL     1      -6.925  16.758  69.178  1.00  0.00    -0.231 A  
HETATM    3  C   UNL     1      -7.244  15.438  69.410  1.00  0.00    -0.203 A  
HETATM    4  C   UNL     1      -6.257  14.850  70.281  1.00  0.00    -0.152 A  
HETATM    5  S   UNL     1      -5.537  17.292  69.986  1.00  0.00    -0.236 SA 
HETATM    6  C   UNL     1      -5.284  15.746  70.671  1.00  0.00    -0.168 A  
ENDROOT
BRANCH   3   7
HETATM    7  C   UNL     1      -8.406  14.703  68.808  1.00  0.00    -0.163 C  
BRANCH   7   8
HETATM    8  O   UNL     1      -9.596  15.487  68.879  1.00  0.00    -0.195 OA 
BRANCH   8   9
HETATM    9  C   UNL     1     -10.837  14.754  68.912  1.00  0.00    -0.254 C  
BRANCH   9  10
HETATM   10  C   UNL     1     -11.212  14.354  67.476  1.00  0.00    -0.329 A  
HETATM   11  C   UNL     1     -12.002  12.637  65.911  1.00  0.00    -0.497 A  
HETATM   12  C   UNL     1     -11.095  15.230  66.378  1.00  0.00    -0.273 A  
HETATM   13  C   UNL     1     -11.698  13.056  67.210  1.00  0.00    -0.429 A  
HETATM   14 CL   UNL     1     -10.659  16.894  66.557  1.00  0.00    -0.240 Cl 
HETATM   15 CL   UNL     1     -12.152  12.980  63.242  1.00  0.00    -0.612 Cl 
HETATM   16  C   UNL     1     -11.364  14.800  65.071  1.00  0.00    -0.391 A  
HETATM   17  C   UNL     1     -11.812  13.504  64.845  1.00  0.00    -0.374 A  
ENDBRANCH   9  10
BRANCH   9  18
HETATM   18  C   UNL     1     -11.938  15.561  69.645  1.00  0.00    -0.359 C  
BRANCH  18  19
HETATM   19  N   UNL     1     -12.532  14.879  70.776  1.00  0.00    -0.315 NA 
HETATM   20  N   UNL     1     -13.740  14.580  72.608  1.00  0.00    -0.523 NA 
HETATM   21  C   UNL     1     -12.538  13.534  71.007  1.00  0.00    -0.359 A  
HETATM   22  C   UNL     1     -13.287  13.372  72.148  1.00  0.00    -0.520 A  
HETATM   23  C   UNL     1     -13.279  15.468  71.759  1.00  0.00    -0.481 A  
ENDBRANCH  18  19
ENDBRANCH   9  18
ENDBRANCH   8   9
ENDBRANCH   7   8
ENDBRANCH   3   7
TORSDOF 6
ENDMDL
MODEL       66
REMARK 921   NORMALIZED FREE ENERGY PREDICTED BY IDOCK:   -5.11 KCAL/MOL
REMARK 922        TOTAL FREE ENERGY PREDICTED BY IDOCK:   -7.95 KCAL/MOL
REMARK 923 INTER-LIGAND FREE ENERGY PREDICTED BY IDOCK:   -7.50 KCAL/MOL
REMARK 924 INTRA-LIGAND FREE ENERGY PREDICTED BY IDOCK:   -0.45 KCAL/MOL
REMARK 927      BINDING AFFINITY PREDICTED BY RF-SCORE:    0.00 PKD
ROOT
HETATM    1 CL   UNL     1      -9.144   9.186  65.472  1.00  0.00    -0.260 Cl 
HETATM    2  C   UNL     1      -7.984  10.267  66.145  1.00  0.00    -0.131 A  
HETATM    3  C   UNL     1      -8.207  11.234  67.102  1.00  0.00    -0.149 A  
HETATM    4  C   UNL     1      -6.964  11.888  67.423  1.00  0.00    -0.128 A  
HETATM    5  S   UNL     1      -6.378  10.163  65.621  1.00  0.00    -0.110 SA 
HETATM    6  C   UNL     1      -5.899  11.409  66.689  1.00  0.00    -0.144 A  
ENDROOT
BRANCH   3   7
HETATM    7  C   UNL     1      -9.527  11.527  67.753  1.00  0.00    -0.168 C  
BRANCH   7   8
HETATM    8  O   UNL     1      -9.633  12.909  68.092  1.00  0.00    -0.214 OA 
BRANCH   8   9
HETATM    9  C   UNL     1     -10.884  13.547  67.767  1.00  0.00    -0.253 C  
BRANCH   9  10
HETATM   10  C   UNL     1     -11.527  14.060  69.066  1.00  0.00    -0.337 A  
HETATM   11  C   UNL     1     -12.157  15.954  70.493  1.00  0.00    -0.343 A  
HETATM   12  C   UNL     1     -12.037  13.204  70.063  1.00  0.00    -0.305 A  
HETATM   13  C   UNL     1     -11.626  15.448  69.303  1.00  0.00    -0.354 A  
HETATM   14 CL   UNL     1     -12.128  11.488  69.859  1.00  0.00    -0.387 Cl 
HETATM   15 CL   UNL     1     -13.212  15.700  72.960  1.00  0.00    -0.607 Cl 
HETATM   16  C   UNL     1     -12.536  13.708  71.271  1.00  0.00    -0.435 A  
HETATM   17  C   UNL     1     -12.590  15.081  71.481  1.00  0.00    -0.340 A  
ENDBRANCH   9  10
BRANCH   9  18
HETATM   18  C   UNL     1     -11.795  12.598  66.949  1.00  0.00    -0.355 C  
BRANCH  18  19
HETATM   19  N   UNL     1     -11.979  12.983  65.566  1.00  0.00    -0.398 NA 
HETATM   20  N   UNL     1     -12.392  14.279  63.818  1.00  0.00    -0.759 NA 
HETATM   21  C   UNL     1     -11.684  12.232  64.464  1.00  0.00    -0.353 A  
HETATM   22  C   UNL     1     -11.952  13.053  63.394  1.00  0.00    -0.520 A  
HETATM   23  C   UNL     1     -12.389  14.212  65.129  1.00  0.00    -0.451 A  
ENDBRANCH  18  19
ENDBRANCH   9  18
ENDBRANCH   8   9
ENDBRANCH   7   8
ENDBRANCH   3   7
TORSDOF 6
ENDMDL
MODEL       67
REMARK 921   NORMALIZED FREE ENERGY PREDICTED BY IDOCK:   -5.11 KCAL/MOL
REMARK 922        TOTAL FREE ENERGY PREDICTED BY IDOCK:   -7.94 KCAL/MOL
REMARK 923 INTER-LIGAND FREE ENERGY PREDICTED BY IDOCK:   -6.88 KCAL/MOL
REMARK 924 INTRA-LIGAND FREE ENERGY PREDICTED BY IDOCK:   -1.07 KCAL/MOL
REMARK 927      BINDING AFFINITY PREDICTED BY RF-SCORE:    0.00 PKD
ROOT
HETATM    1 CL   UNL     1     -11.140  16.787  65.559  1.00  0.00    -0.009 Cl 
HETATM    2  C   UNL     1     -10.368  17.610  66.860  1.00  0.00    -0.329 A  
HETATM    3  C   UNL     1     -10.460  17.312  68.203  1.00  0.00    -0.382 A  
HETATM    4  C   UNL     1      -9.623  18.212  68.954  1.00  0.00    -0.247 A  
HETATM    5  S   UNL     1      -9.362  18.924  66.506  1.00  0.00    -0.333 SA 
HETATM    6  C   UNL     1      -8.980  19.137  68.159  1.00  0.00    -0.322 A  
ENDROOT
BRANCH   3   7
HETATM    7  C   UNL     1     -11.262  16.189  68.792  1.00  0.00    -0.365 C  
BRANCH   7   8
HETATM    8  O   UNL     1     -10.410  15.153  69.278  1.00  0.00    -0.238 OA 
BRANCH   8   9
HETATM    9  C   UNL     1     -10.844  13.802  69.025  1.00  0.00    -0.217 C  
BRANCH   9  10
HETATM   10  C   UNL     1     -11.118  13.647  67.520  1.00  0.00    -0.296 A  
HETATM   11  C   UNL     1     -12.736  13.353  65.699  1.00  0.00    -0.432 A  
HETATM   12  C   UNL     1     -10.095  13.597  66.553  1.00  0.00    -0.286 A  
HETATM   13  C   UNL     1     -12.446  13.546  67.053  1.00  0.00    -0.106 A  
HETATM   14 CL   UNL     1      -8.430  13.856  66.945  1.00  0.00    -0.150 Cl 
HETATM   15 CL   UNL     1     -12.052  12.970  63.120  1.00  0.00    -0.518 Cl 
HETATM   16  C   UNL     1     -10.382  13.366  65.201  1.00  0.00    -0.349 A  
HETATM   17  C   UNL     1     -11.700  13.242  64.782  1.00  0.00    -0.355 A  
ENDBRANCH   9  10
BRANCH   9  18
HETATM   18  C   UNL     1     -12.051  13.431  69.923  1.00  0.00    -0.322 C  
BRANCH  18  19
HETATM   19  N   UNL     1     -12.093  12.043  70.332  1.00  0.00    -0.355 NA 
HETATM   20  N   UNL     1     -11.478   9.924  70.522  1.00  0.00    -0.295 NA 
HETATM   21  C   UNL     1     -12.930  11.490  71.258  1.00  0.00    -0.297 A  
HETATM   22  C   UNL     1     -12.534  10.177  71.356  1.00  0.00    -0.423 A  
HETATM   23  C   UNL     1     -11.227  11.065  69.924  1.00  0.00    -0.252 A  
ENDBRANCH  18  19
ENDBRANCH   9  18
ENDBRANCH   8   9
ENDBRANCH   7   8
ENDBRANCH   3   7
TORSDOF 6
ENDMDL
MODEL       68
REMARK 921   NORMALIZED FREE ENERGY PREDICTED BY IDOCK:   -5.09 KCAL/MOL
REMARK 922        TOTAL FREE ENERGY PREDICTED BY IDOCK:   -7.92 KCAL/MOL
REMARK 923 INTER-LIGAND FREE ENERGY PREDICTED BY IDOCK:   -7.43 KCAL/MOL
REMARK 924 INTRA-LIGAND FREE ENERGY PREDICTED BY IDOCK:   -0.49 KCAL/MOL
REMARK 927      BINDING AFFINITY PREDICTED BY RF-SCORE:    0.00 PKD
ROOT
HETATM    1 CL   UNL     1     -10.586  12.147  63.404  1.00  0.00    -0.478 Cl 
HETATM    2  C   UNL     1      -9.968  10.893  64.410  1.00  0.00    -0.322 A  
HETATM    3  C   UNL     1     -10.171  10.739  65.765  1.00  0.00    -0.319 A  
HETATM    4  C   UNL     1      -9.519   9.536  66.215  1.00  0.00    -0.267 A  
HETATM    5  S   UNL     1      -9.014   9.685  63.707  1.00  0.00    -0.169 SA 
HETATM    6  C   UNL     1      -8.852   8.876  65.205  1.00  0.00    -0.166 A  
ENDROOT
BRANCH   3   7
HETATM    7  C   UNL     1     -10.990  11.650  66.631  1.00  0.00    -0.299 C  
BRANCH   7   8
HETATM    8  O   UNL     1     -10.248  12.070  67.776  1.00  0.00    -0.195 OA 
BRANCH   8   9
HETATM    9  C   UNL     1     -10.946  12.917  68.709  1.00  0.00    -0.254 C  
BRANCH   9  10
HETATM   10  C   UNL     1     -11.654  12.030  69.746  1.00  0.00    -0.348 A  
HETATM   11  C   UNL     1     -12.224   9.782  70.547  1.00  0.00    -0.205 A  
HETATM   12  C   UNL     1     -12.418  12.549  70.810  1.00  0.00    -0.268 A  
HETATM   13  C   UNL     1     -11.554  10.625  69.655  1.00  0.00    -0.368 A  
HETATM   14 CL   UNL     1     -12.513  14.243  71.147  1.00  0.00    -0.410 Cl 
HETATM   15 CL   UNL     1     -13.874   9.292  72.621  1.00  0.00    -0.460 Cl 
HETATM   16  C   UNL     1     -13.119  11.706  71.682  1.00  0.00    -0.456 A  
HETATM   17  C   UNL     1     -13.021  10.327  71.544  1.00  0.00    -0.453 A  
ENDBRANCH   9  10
BRANCH   9  18
HETATM   18  C   UNL     1     -11.893  13.895  67.969  1.00  0.00    -0.375 C  
BRANCH  18  19
HETATM   19  N   UNL     1     -11.291  15.160  67.609  1.00  0.00    -0.325 NA 
HETATM   20  N   UNL     1     -10.385  16.732  66.338  1.00  0.00    -0.315 NA 
HETATM   21  C   UNL     1     -11.193  16.271  68.397  1.00  0.00    -0.349 A  
HETATM   22  C   UNL     1     -10.625  17.230  67.591  1.00  0.00    -0.350 A  
HETATM   23  C   UNL     1     -10.803  15.489  66.373  1.00  0.00    -0.277 A  
ENDBRANCH  18  19
ENDBRANCH   9  18
ENDBRANCH   8   9
ENDBRANCH   7   8
ENDBRANCH   3   7
TORSDOF 6
ENDMDL
MODEL       69
REMARK 921   NORMALIZED FREE ENERGY PREDICTED BY IDOCK:   -4.98 KCAL/MOL
REMARK 922        TOTAL FREE ENERGY PREDICTED BY IDOCK:   -7.78 KCAL/MOL
REMARK 923 INTER-LIGAND FREE ENERGY PREDICTED BY IDOCK:   -7.24 KCAL/MOL
REMARK 924 INTRA-LIGAND FREE ENERGY PREDICTED BY IDOCK:   -0.53 KCAL/MOL
REMARK 927      BINDING AFFINITY PREDICTED BY RF-SCORE:    0.00 PKD
ROOT
HETATM    1 CL   UNL     1     -11.714  10.883  68.814  1.00  0.00    -0.374 Cl 
HETATM    2  C   UNL     1     -10.083  10.511  69.225  1.00  0.00    -0.224 A  
HETATM    3  C   UNL     1      -8.943  11.064  68.685  1.00  0.00    -0.167 A  
HETATM    4  C   UNL     1      -7.783  10.512  69.337  1.00  0.00    -0.157 A  
HETATM    5  S   UNL     1      -9.794   9.357  70.430  1.00  0.00    -0.273 SA 
HETATM    6  C   UNL     1      -8.103   9.573  70.296  1.00  0.00    -0.181 A  
ENDROOT
BRANCH   3   7
HETATM    7  C   UNL     1      -8.909  12.121  67.619  1.00  0.00    -0.172 C  
BRANCH   7   8
HETATM    8  O   UNL     1      -9.659  13.268  68.014  1.00  0.00    -0.207 OA 
BRANCH   8   9
HETATM    9  C   UNL     1     -10.283  14.016  66.951  1.00  0.00    -0.260 C  
BRANCH   9  10
HETATM   10  C   UNL     1     -10.200  15.513  67.287  1.00  0.00    -0.260 A  
HETATM   11  C   UNL     1      -9.463  17.769  66.660  1.00  0.00    -0.299 A  
HETATM   12  C   UNL     1     -10.695  16.062  68.487  1.00  0.00    -0.287 A  
HETATM   13  C   UNL     1      -9.604  16.408  66.372  1.00  0.00    -0.313 A  
HETATM   14 CL   UNL     1     -11.583  15.128  69.640  1.00  0.00    -0.307 Cl 
HETATM   15 CL   UNL     1      -9.700  19.930  68.253  1.00  0.00    -0.482 Cl 
HETATM   16  C   UNL     1     -10.521  17.419  68.794  1.00  0.00    -0.333 A  
HETATM   17  C   UNL     1      -9.903  18.263  67.880  1.00  0.00    -0.317 A  
ENDBRANCH   9  10
BRANCH   9  18
HETATM   18  C   UNL     1     -11.725  13.511  66.692  1.00  0.00    -0.387 C  
BRANCH  18  19
HETATM   19  N   UNL     1     -12.036  13.268  65.299  1.00  0.00    -0.391 NA 
HETATM   20  N   UNL     1     -12.491  13.705  63.176  1.00  0.00    -0.714 NA 
HETATM   21  C   UNL     1     -12.005  12.066  64.653  1.00  0.00    -0.249 A  
HETATM   22  C   UNL     1     -12.294  12.359  63.342  1.00  0.00    -0.499 A  
HETATM   23  C   UNL     1     -12.321  14.228  64.367  1.00  0.00    -0.391 A  
ENDBRANCH  18  19
ENDBRANCH   9  18
ENDBRANCH   8   9
ENDBRANCH   7   8
ENDBRANCH   3   7
TORSDOF 6
ENDMDL
MODEL       70
REMARK 921   NORMALIZED FREE ENERGY PREDICTED BY IDOCK:   -4.98 KCAL/MOL
REMARK 922        TOTAL FREE ENERGY PREDICTED BY IDOCK:   -7.77 KCAL/MOL
REMARK 923 INTER-LIGAND FREE ENERGY PREDICTED BY IDOCK:   -7.09 KCAL/MOL
REMARK 924 INTRA-LIGAND FREE ENERGY PREDICTED BY IDOCK:   -0.68 KCAL/MOL
REMARK 927      BINDING AFFINITY PREDICTED BY RF-SCORE:    0.00 PKD
ROOT
HETATM    1 CL   UNL     1      -9.179   9.133  71.122  1.00  0.00    -0.322 Cl 
HETATM    2  C   UNL     1     -10.881   9.240  71.366  1.00  0.00    -0.364 A  
HETATM    3  C   UNL     1     -11.728  10.218  70.891  1.00  0.00    -0.472 A  
HETATM    4  C   UNL     1     -13.082   9.912  71.279  1.00  0.00    -0.487 A  
HETATM    5  S   UNL     1     -11.649   8.030  72.266  1.00  0.00    -0.391 SA 
HETATM    6  C   UNL     1     -13.177   8.760  72.032  1.00  0.00    -0.395 A  
ENDROOT
BRANCH   3   7
HETATM    7  C   UNL     1     -11.319  11.392  70.051  1.00  0.00    -0.176 C  
BRANCH   7   8
HETATM    8  O   UNL     1     -10.583  10.967  68.904  1.00  0.00    -0.188 OA 
BRANCH   8   9
HETATM    9  C   UNL     1     -10.533  11.895  67.802  1.00  0.00    -0.202 C  
BRANCH   9  10
HETATM   10  C   UNL     1      -9.585  13.048  68.173  1.00  0.00    -0.227 A  
HETATM   11  C   UNL     1      -9.289  15.374  68.895  1.00  0.00    -0.218 A  
HETATM   12  C   UNL     1      -8.181  12.940  68.112  1.00  0.00    -0.163 A  
HETATM   13  C   UNL     1     -10.114  14.286  68.598  1.00  0.00    -0.238 A  
HETATM   14 CL   UNL     1      -7.377  11.450  67.757  1.00  0.00    -0.094 Cl 
HETATM   15 CL   UNL     1      -6.896  16.600  69.092  1.00  0.00    -0.215 Cl 
HETATM   16  C   UNL     1      -7.354  14.040  68.374  1.00  0.00    -0.113 A  
HETATM   17  C   UNL     1      -7.913  15.252  68.761  1.00  0.00    -0.158 A  
ENDBRANCH   9  10
BRANCH   9  18
HETATM   18  C   UNL     1     -11.956  12.358  67.402  1.00  0.00    -0.175 C  
BRANCH  18  19
HETATM   19  N   UNL     1     -12.105  12.709  66.006  1.00  0.00    -0.574 NA 
HETATM   20  N   UNL     1     -12.650  13.900  64.219  1.00  0.00    -0.684 NA 
HETATM   21  C   UNL     1     -11.558  12.057  64.938  1.00  0.00    -0.273 A  
HETATM   22  C   UNL     1     -11.912  12.809  63.843  1.00  0.00    -0.480 A  
HETATM   23  C   UNL     1     -12.743  13.820  65.526  1.00  0.00    -0.488 A  
ENDBRANCH  18  19
ENDBRANCH   9  18
ENDBRANCH   8   9
ENDBRANCH   7   8
ENDBRANCH   3   7
TORSDOF 6
ENDMDL
MODEL       71
REMARK 921   NORMALIZED FREE ENERGY PREDICTED BY IDOCK:   -4.98 KCAL/MOL
REMARK 922        TOTAL FREE ENERGY PREDICTED BY IDOCK:   -7.77 KCAL/MOL
REMARK 923 INTER-LIGAND FREE ENERGY PREDICTED BY IDOCK:   -7.28 KCAL/MOL
REMARK 924 INTRA-LIGAND FREE ENERGY PREDICTED BY IDOCK:   -0.49 KCAL/MOL
REMARK 927      BINDING AFFINITY PREDICTED BY RF-SCORE:    0.00 PKD
ROOT
HETATM    1 CL   UNL     1     -10.588  10.260  68.711  1.00  0.00    -0.215 Cl 
HETATM    2  C   UNL     1     -11.580  10.469  70.103  1.00  0.00    -0.326 A  
HETATM    3  C   UNL     1     -12.256  11.610  70.477  1.00  0.00    -0.451 A  
HETATM    4  C   UNL     1     -13.007  11.353  71.679  1.00  0.00    -0.523 A  
HETATM    5  S   UNL     1     -11.796   9.157  71.150  1.00  0.00    -0.320 SA 
HETATM    6  C   UNL     1     -12.841  10.067  72.151  1.00  0.00    -0.322 A  
ENDROOT
BRANCH   3   7
HETATM    7  C   UNL     1     -12.257  12.908  69.723  1.00  0.00    -0.162 C  
BRANCH   7   8
HETATM    8  O   UNL     1     -10.932  13.282  69.348  1.00  0.00    -0.149 OA 
BRANCH   8   9
HETATM    9  C   UNL     1     -10.823  14.308  68.342  1.00  0.00    -0.253 C  
BRANCH   9  10
HETATM   10  C   UNL     1     -11.232  13.714  66.985  1.00  0.00    -0.328 A  
HETATM   11  C   UNL     1     -12.921  13.472  65.221  1.00  0.00    -0.290 A  
HETATM   12  C   UNL     1     -10.405  12.847  66.243  1.00  0.00    -0.268 A  
HETATM   13  C   UNL     1     -12.490  14.031  66.427  1.00  0.00    -0.395 A  
HETATM   14 CL   UNL     1      -8.781  12.482  66.714  1.00  0.00    -0.183 Cl 
HETATM   15 CL   UNL     1     -12.648  11.855  63.082  1.00  0.00    -0.545 Cl 
HETATM   16  C   UNL     1     -10.850  12.257  65.052  1.00  0.00    -0.337 A  
HETATM   17  C   UNL     1     -12.107  12.570  64.550  1.00  0.00    -0.425 A  
ENDBRANCH   9  10
BRANCH   9  18
HETATM   18  C   UNL     1      -9.410  14.942  68.349  1.00  0.00    -0.197 C  
BRANCH  18  19
HETATM   19  N   UNL     1      -9.284  16.142  67.548  1.00  0.00    -0.207 NA 
HETATM   20  N   UNL     1      -8.417  17.586  66.110  1.00  0.00    -0.484 NA 
HETATM   21  C   UNL     1     -10.242  17.093  67.348  1.00  0.00    -0.321 A  
HETATM   22  C   UNL     1      -9.682  17.979  66.458  1.00  0.00    -0.338 A  
HETATM   23  C   UNL     1      -8.207  16.473  66.773  1.00  0.00    -0.243 A  
ENDBRANCH  18  19
ENDBRANCH   9  18
ENDBRANCH   8   9
ENDBRANCH   7   8
ENDBRANCH   3   7
TORSDOF 6
ENDMDL
MODEL       72
REMARK 921   NORMALIZED FREE ENERGY PREDICTED BY IDOCK:   -4.92 KCAL/MOL
REMARK 922        TOTAL FREE ENERGY PREDICTED BY IDOCK:   -7.68 KCAL/MOL
REMARK 923 INTER-LIGAND FREE ENERGY PREDICTED BY IDOCK:   -6.88 KCAL/MOL
REMARK 924 INTRA-LIGAND FREE ENERGY PREDICTED BY IDOCK:   -0.81 KCAL/MOL
REMARK 927      BINDING AFFINITY PREDICTED BY RF-SCORE:    0.00 PKD
ROOT
HETATM    1 CL   UNL     1      -8.615   9.854  66.166  1.00  0.00    -0.133 Cl 
HETATM    2  C   UNL     1      -9.951  10.940  66.096  1.00  0.00    -0.233 A  
HETATM    3  C   UNL     1     -10.539  11.602  67.153  1.00  0.00    -0.269 A  
HETATM    4  C   UNL     1     -11.595  12.450  66.662  1.00  0.00    -0.447 A  
HETATM    5  S   UNL     1     -10.643  11.279  64.589  1.00  0.00    -0.312 SA 
HETATM    6  C   UNL     1     -11.761  12.364  65.295  1.00  0.00    -0.390 A  
ENDROOT
BRANCH   3   7
HETATM    7  C   UNL     1     -10.113  11.502  68.588  1.00  0.00    -0.207 C  
BRANCH   7   8
HETATM    8  O   UNL     1     -10.543  10.269  69.163  1.00  0.00    -0.201 OA 
BRANCH   8   9
HETATM    9  C   UNL     1     -11.247  10.364  70.417  1.00  0.00    -0.321 C  
BRANCH   9  10
HETATM   10  C   UNL     1     -11.277   8.975  71.073  1.00  0.00    -0.361 A  
HETATM   11  C   UNL     1     -12.577   7.035  71.828  1.00  0.00    -0.388 A  
HETATM   12  C   UNL     1     -10.126   8.336  71.576  1.00  0.00    -0.208 A  
HETATM   13  C   UNL     1     -12.499   8.278  71.193  1.00  0.00    -0.189 A  
HETATM   14 CL   UNL     1      -8.536   8.987  71.371  1.00  0.00    -0.234 Cl 
HETATM   15 CL   UNL     1     -11.533   4.952  73.182  1.00  0.00    -0.398 Cl 
HETATM   16  C   UNL     1     -10.208   7.107  72.245  1.00  0.00    -0.213 A  
HETATM   17  C   UNL     1     -11.434   6.466  72.370  1.00  0.00    -0.282 A  
ENDBRANCH   9  10
BRANCH   9  18
HETATM   18  C   UNL     1     -12.649  10.994  70.219  1.00  0.00    -0.243 C  
BRANCH  18  19
HETATM   19  N   UNL     1     -12.873  12.212  70.968  1.00  0.00    -0.233 NA 
HETATM   20  N   UNL     1     -13.597  13.542  72.585  1.00  0.00    -0.692 NA 
HETATM   21  C   UNL     1     -12.285  13.425  70.749  1.00  0.00    -0.328 A  
HETATM   22  C   UNL     1     -12.751  14.233  71.759  1.00  0.00    -0.347 A  
HETATM   23  C   UNL     1     -13.646  12.327  72.091  1.00  0.00    -0.247 A  
ENDBRANCH  18  19
ENDBRANCH   9  18
ENDBRANCH   8   9
ENDBRANCH   7   8
ENDBRANCH   3   7
TORSDOF 6
ENDMDL
MODEL       73
REMARK 921   NORMALIZED FREE ENERGY PREDICTED BY IDOCK:   -4.90 KCAL/MOL
REMARK 922        TOTAL FREE ENERGY PREDICTED BY IDOCK:   -7.66 KCAL/MOL
REMARK 923 INTER-LIGAND FREE ENERGY PREDICTED BY IDOCK:   -6.94 KCAL/MOL
REMARK 924 INTRA-LIGAND FREE ENERGY PREDICTED BY IDOCK:   -0.71 KCAL/MOL
REMARK 927      BINDING AFFINITY PREDICTED BY RF-SCORE:    0.00 PKD
ROOT
HETATM    1 CL   UNL     1     -13.333  10.316  71.679  1.00  0.00    -0.471 Cl 
HETATM    2  C   UNL     1     -11.791   9.788  71.122  1.00  0.00    -0.382 A  
HETATM    3  C   UNL     1     -11.086  10.277  70.044  1.00  0.00    -0.373 A  
HETATM    4  C   UNL     1      -9.820   9.595  69.947  1.00  0.00    -0.271 A  
HETATM    5  S   UNL     1     -11.005   8.548  71.965  1.00  0.00    -0.360 SA 
HETATM    6  C   UNL     1      -9.653   8.632  70.920  1.00  0.00    -0.203 A  
ENDROOT
BRANCH   3   7
HETATM    7  C   UNL     1     -11.536  11.386  69.139  1.00  0.00    -0.314 C  
BRANCH   7   8
HETATM    8  O   UNL     1     -11.516  10.971  67.773  1.00  0.00    -0.425 OA 
BRANCH   8   9
HETATM    9  C   UNL     1     -11.277  12.006  66.799  1.00  0.00    -0.322 C  
BRANCH   9  10
HETATM   10  C   UNL     1     -10.374  11.439  65.691  1.00  0.00    -0.307 A  
HETATM   11  C   UNL     1     -10.094  10.771  63.346  1.00  0.00    -0.345 A  
HETATM   12  C   UNL     1      -9.050  11.014  65.919  1.00  0.00    -0.197 A  
HETATM   13  C   UNL     1     -10.865  11.327  64.372  1.00  0.00    -0.373 A  
HETATM   14 CL   UNL     1      -8.254  11.224  67.440  1.00  0.00    -0.130 Cl 
HETATM   15 CL   UNL     1      -7.880   9.585  62.370  1.00  0.00    -0.117 Cl 
HETATM   16  C   UNL     1      -8.290  10.422  64.901  1.00  0.00    -0.165 A  
HETATM   17  C   UNL     1      -8.818  10.301  63.621  1.00  0.00    -0.222 A  
ENDBRANCH   9  10
BRANCH   9  18
HETATM   18  C   UNL     1     -10.715  13.282  67.474  1.00  0.00    -0.250 C  
BRANCH  18  19
HETATM   19  N   UNL     1     -10.562  14.415  66.586  1.00  0.00    -0.279 NA 
HETATM   20  N   UNL     1      -9.566  16.052  65.474  1.00  0.00    -0.427 NA 
HETATM   21  C   UNL     1     -11.497  14.905  65.719  1.00  0.00    -0.281 A  
HETATM   22  C   UNL     1     -10.860  15.920  65.045  1.00  0.00    -0.426 A  
HETATM   23  C   UNL     1      -9.411  15.129  66.394  1.00  0.00    -0.301 A  
ENDBRANCH  18  19
ENDBRANCH   9  18
ENDBRANCH   8   9
ENDBRANCH   7   8
ENDBRANCH   3   7
TORSDOF 6
ENDMDL
MODEL       74
REMARK 921   NORMALIZED FREE ENERGY PREDICTED BY IDOCK:   -4.89 KCAL/MOL
REMARK 922        TOTAL FREE ENERGY PREDICTED BY IDOCK:   -7.65 KCAL/MOL
REMARK 923 INTER-LIGAND FREE ENERGY PREDICTED BY IDOCK:   -6.91 KCAL/MOL
REMARK 924 INTRA-LIGAND FREE ENERGY PREDICTED BY IDOCK:   -0.74 KCAL/MOL
REMARK 927      BINDING AFFINITY PREDICTED BY RF-SCORE:    0.00 PKD
ROOT
HETATM    1 CL   UNL     1     -12.132   8.673  72.460  1.00  0.00    -0.419 Cl 
HETATM    2  C   UNL     1     -11.049   7.751  71.488  1.00  0.00    -0.236 A  
HETATM    3  C   UNL     1     -10.181   8.229  70.530  1.00  0.00    -0.213 A  
HETATM    4  C   UNL     1      -9.420   7.136  69.981  1.00  0.00    -0.164 A  
HETATM    5  S   UNL     1     -10.993   6.073  71.704  1.00  0.00    -0.272 SA 
HETATM    6  C   UNL     1      -9.765   5.916  70.524  1.00  0.00    -0.175 A  
ENDROOT
BRANCH   3   7
HETATM    7  C   UNL     1     -10.010   9.671  70.152  1.00  0.00    -0.261 C  
BRANCH   7   8
HETATM    8  O   UNL     1     -11.248  10.236  69.722  1.00  0.00    -0.248 OA 
BRANCH   8   9
HETATM    9  C   UNL     1     -11.171  11.532  69.094  1.00  0.00    -0.274 C  
BRANCH   9  10
HETATM   10  C   UNL     1     -11.843  12.565  70.012  1.00  0.00    -0.363 A  
HETATM   11  C   UNL     1     -13.222  13.039  71.986  1.00  0.00    -0.543 A  
HETATM   12  C   UNL     1     -11.792  13.953  69.776  1.00  0.00    -0.329 A  
HETATM   13  C   UNL     1     -12.554  12.135  71.154  1.00  0.00    -0.360 A  
HETATM   14 CL   UNL     1     -10.840  14.647  68.510  1.00  0.00    -0.245 Cl 
HETATM   15 CL   UNL     1     -14.055  15.504  72.689  1.00  0.00    -0.605 Cl 
HETATM   16  C   UNL     1     -12.492  14.856  70.588  1.00  0.00    -0.411 A  
HETATM   17  C   UNL     1     -13.206  14.393  71.687  1.00  0.00    -0.350 A  
ENDBRANCH   9  10
BRANCH   9  18
HETATM   18  C   UNL     1     -11.759  11.489  67.662  1.00  0.00    -0.208 C  
BRANCH  18  19
HETATM   19  N   UNL     1     -10.833  11.042  66.643  1.00  0.00    -0.252 NA 
HETATM   20  N   UNL     1      -9.625   9.651  65.413  1.00  0.00    -0.285 NA 
HETATM   21  C   UNL     1     -10.303  11.795  65.635  1.00  0.00    -0.252 A  
HETATM   22  C   UNL     1      -9.556  10.914  64.889  1.00  0.00    -0.248 A  
HETATM   23  C   UNL     1     -10.407   9.754  66.462  1.00  0.00    -0.192 A  
ENDBRANCH  18  19
ENDBRANCH   9  18
ENDBRANCH   8   9
ENDBRANCH   7   8
ENDBRANCH   3   7
TORSDOF 6
ENDMDL
MODEL       75
REMARK 921   NORMALIZED FREE ENERGY PREDICTED BY IDOCK:   -4.88 KCAL/MOL
REMARK 922        TOTAL FREE ENERGY PREDICTED BY IDOCK:   -7.64 KCAL/MOL
REMARK 923 INTER-LIGAND FREE ENERGY PREDICTED BY IDOCK:   -7.05 KCAL/MOL
REMARK 924 INTRA-LIGAND FREE ENERGY PREDICTED BY IDOCK:   -0.59 KCAL/MOL
REMARK 927      BINDING AFFINITY PREDICTED BY RF-SCORE:    0.00 PKD
ROOT
HETATM    1 CL   UNL     1     -12.055  12.403  70.320  1.00  0.00    -0.418 Cl 
HETATM    2  C   UNL     1     -12.470  13.794  71.246  1.00  0.00    -0.345 A  
HETATM    3  C   UNL     1     -11.816  15.007  71.261  1.00  0.00    -0.389 A  
HETATM    4  C   UNL     1     -12.511  15.919  72.134  1.00  0.00    -0.540 A  
HETATM    5  S   UNL     1     -13.830  13.724  72.251  1.00  0.00    -0.581 SA 
HETATM    6  C   UNL     1     -13.613  15.349  72.737  1.00  0.00    -0.531 A  
ENDROOT
BRANCH   3   7
HETATM    7  C   UNL     1     -10.599  15.350  70.452  1.00  0.00    -0.248 C  
BRANCH   7   8
HETATM    8  O   UNL     1     -10.718  14.860  69.118  1.00  0.00    -0.236 OA 
BRANCH   8   9
HETATM    9  C   UNL     1      -9.623  15.162  68.230  1.00  0.00    -0.211 C  
BRANCH   9  10
HETATM   10  C   UNL     1      -9.566  16.683  68.019  1.00  0.00    -0.225 A  
HETATM   11  C   UNL     1     -10.624  18.727  67.167  1.00  0.00    -0.491 A  
HETATM   12  C   UNL     1      -8.460  17.471  68.393  1.00  0.00    -0.275 A  
HETATM   13  C   UNL     1     -10.657  17.353  67.423  1.00  0.00    -0.308 A  
HETATM   14 CL   UNL     1      -7.113  16.829  69.267  1.00  0.00    -0.225 Cl 
HETATM   15 CL   UNL     1      -9.435  21.145  67.144  1.00  0.00    -0.243 Cl 
HETATM   16  C   UNL     1      -8.410  18.842  68.104  1.00  0.00    -0.334 A  
HETATM   17  C   UNL     1      -9.491  19.461  67.489  1.00  0.00    -0.312 A  
ENDBRANCH   9  10
BRANCH   9  18
HETATM   18  C   UNL     1      -9.735  14.350  66.916  1.00  0.00    -0.262 C  
BRANCH  18  19
HETATM   19  N   UNL     1      -8.963  13.126  66.896  1.00  0.00    -0.226 NA 
HETATM   20  N   UNL     1      -7.289  11.730  67.295  1.00  0.00    -0.132 NA 
HETATM   21  C   UNL     1      -9.388  11.899  66.475  1.00  0.00    -0.216 A  
HETATM   22  C   UNL     1      -8.335  11.052  66.727  1.00  0.00    -0.147 A  
HETATM   23  C   UNL     1      -7.697  12.973  67.394  1.00  0.00    -0.155 A  
ENDBRANCH  18  19
ENDBRANCH   9  18
ENDBRANCH   8   9
ENDBRANCH   7   8
ENDBRANCH   3   7
TORSDOF 6
ENDMDL
MODEL       76
REMARK 921   NORMALIZED FREE ENERGY PREDICTED BY IDOCK:   -4.86 KCAL/MOL
REMARK 922        TOTAL FREE ENERGY PREDICTED BY IDOCK:   -7.61 KCAL/MOL
REMARK 923 INTER-LIGAND FREE ENERGY PREDICTED BY IDOCK:   -7.01 KCAL/MOL
REMARK 924 INTRA-LIGAND FREE ENERGY PREDICTED BY IDOCK:   -0.59 KCAL/MOL
REMARK 927      BINDING AFFINITY PREDICTED BY RF-SCORE:    0.00 PKD
ROOT
HETATM    1 CL   UNL     1     -12.872  11.870  64.164  1.00  0.00    -0.339 Cl 
HETATM    2  C   UNL     1     -11.935  13.176  64.785  1.00  0.00    -0.388 A  
HETATM    3  C   UNL     1     -10.914  13.100  65.708  1.00  0.00    -0.295 A  
HETATM    4  C   UNL     1     -10.361  14.413  65.922  1.00  0.00    -0.327 A  
HETATM    5  S   UNL     1     -12.251  14.741  64.222  1.00  0.00    -0.210 SA 
HETATM    6  C   UNL     1     -10.997  15.390  65.186  1.00  0.00    -0.418 A  
ENDROOT
BRANCH   3   7
HETATM    7  C   UNL     1     -10.415  11.840  66.352  1.00  0.00    -0.235 C  
BRANCH   7   8
HETATM    8  O   UNL     1     -10.244  12.019  67.758  1.00  0.00    -0.195 OA 
BRANCH   8   9
HETATM    9  C   UNL     1     -11.056  11.183  68.607  1.00  0.00    -0.239 C  
BRANCH   9  10
HETATM   10  C   UNL     1     -11.745  12.070  69.657  1.00  0.00    -0.405 A  
HETATM   11  C   UNL     1     -12.289  14.317  70.478  1.00  0.00    -0.430 A  
HETATM   12  C   UNL     1     -12.420  11.550  70.780  1.00  0.00    -0.349 A  
HETATM   13  C   UNL     1     -11.719  13.475  69.519  1.00  0.00    -0.382 A  
HETATM   14 CL   UNL     1     -12.671   9.855  71.012  1.00  0.00    -0.421 Cl 
HETATM   15 CL   UNL     1     -13.559  14.808  72.804  1.00  0.00    -0.551 Cl 
HETATM   16  C   UNL     1     -12.959  12.394  71.760  1.00  0.00    -0.422 A  
HETATM   17  C   UNL     1     -12.887  13.773  71.605  1.00  0.00    -0.352 A  
ENDBRANCH   9  10
BRANCH   9  18
HETATM   18  C   UNL     1     -10.219  10.029  69.212  1.00  0.00    -0.214 C  
BRANCH  18  19
HETATM   19  N   UNL     1      -9.661   9.115  68.239  1.00  0.00    -0.151 NA 
HETATM   20  N   UNL     1      -9.596   7.564  66.658  1.00  0.00    -0.198 NA 
HETATM   21  C   UNL     1      -8.367   9.072  67.807  1.00  0.00    -0.117 A  
HETATM   22  C   UNL     1      -8.349   8.102  66.833  1.00  0.00    -0.115 A  
HETATM   23  C   UNL     1     -10.368   8.197  67.510  1.00  0.00    -0.261 A  
ENDBRANCH  18  19
ENDBRANCH   9  18
ENDBRANCH   8   9
ENDBRANCH   7   8
ENDBRANCH   3   7
TORSDOF 6
ENDMDL
MODEL       77
REMARK 921   NORMALIZED FREE ENERGY PREDICTED BY IDOCK:   -4.86 KCAL/MOL
REMARK 922        TOTAL FREE ENERGY PREDICTED BY IDOCK:   -7.60 KCAL/MOL
REMARK 923 INTER-LIGAND FREE ENERGY PREDICTED BY IDOCK:   -6.78 KCAL/MOL
REMARK 924 INTRA-LIGAND FREE ENERGY PREDICTED BY IDOCK:   -0.82 KCAL/MOL
REMARK 927      BINDING AFFINITY PREDICTED BY RF-SCORE:    0.00 PKD
ROOT
HETATM    1 CL   UNL     1     -10.710  19.758  66.917  1.00  0.00    -0.588 Cl 
HETATM    2  C   UNL     1      -9.328  18.768  66.641  1.00  0.00    -0.329 A  
HETATM    3  C   UNL     1      -9.273  17.391  66.671  1.00  0.00    -0.278 A  
HETATM    4  C   UNL     1      -7.940  16.955  66.340  1.00  0.00    -0.352 A  
HETATM    5  S   UNL     1      -7.854  19.516  66.274  1.00  0.00    -0.325 SA 
HETATM    6  C   UNL     1      -7.074  18.003  66.110  1.00  0.00    -0.295 A  
ENDROOT
BRANCH   3   7
HETATM    7  C   UNL     1     -10.432  16.479  66.949  1.00  0.00    -0.282 C  
BRANCH   7   8
HETATM    8  O   UNL     1     -10.161  15.155  66.491  1.00  0.00    -0.253 OA 
BRANCH   8   9
HETATM    9  C   UNL     1     -10.352  14.099  67.453  1.00  0.00    -0.256 C  
BRANCH   9  10
HETATM   10  C   UNL     1      -9.013  13.375  67.662  1.00  0.00    -0.202 A  
HETATM   11  C   UNL     1      -7.532  11.496  67.113  1.00  0.00    -0.142 A  
HETATM   12  C   UNL     1      -8.035  13.812  68.578  1.00  0.00    -0.131 A  
HETATM   13  C   UNL     1      -8.717  12.213  66.917  1.00  0.00    -0.194 A  
HETATM   14 CL   UNL     1      -8.180  15.296  69.454  1.00  0.00    -0.239 Cl 
HETATM   15 CL   UNL     1      -5.180  11.020  68.339  1.00  0.00    -0.040 Cl 
HETATM   16  C   UNL     1      -6.865  13.075  68.802  1.00  0.00    -0.102 A  
HETATM   17  C   UNL     1      -6.622  11.919  68.071  1.00  0.00    -0.063 A  
ENDBRANCH   9  10
BRANCH   9  18
HETATM   18  C   UNL     1     -11.511  13.164  67.026  1.00  0.00    -0.336 C  
BRANCH  18  19
HETATM   19  N   UNL     1     -11.792  13.163  65.606  1.00  0.00    -0.365 NA 
HETATM   20  N   UNL     1     -12.615  13.829  63.660  1.00  0.00    -0.782 NA 
HETATM   21  C   UNL     1     -11.215  12.364  64.661  1.00  0.00    -0.312 A  
HETATM   22  C   UNL     1     -11.742  12.791  63.465  1.00  0.00    -0.530 A  
HETATM   23  C   UNL     1     -12.618  14.038  64.956  1.00  0.00    -0.390 A  
ENDBRANCH  18  19
ENDBRANCH   9  18
ENDBRANCH   8   9
ENDBRANCH   7   8
ENDBRANCH   3   7
TORSDOF 6
ENDMDL
MODEL       78
REMARK 921   NORMALIZED FREE ENERGY PREDICTED BY IDOCK:   -4.85 KCAL/MOL
REMARK 922        TOTAL FREE ENERGY PREDICTED BY IDOCK:   -7.60 KCAL/MOL
REMARK 923 INTER-LIGAND FREE ENERGY PREDICTED BY IDOCK:   -6.51 KCAL/MOL
REMARK 924 INTRA-LIGAND FREE ENERGY PREDICTED BY IDOCK:   -1.08 KCAL/MOL
REMARK 927      BINDING AFFINITY PREDICTED BY RF-SCORE:    0.00 PKD
ROOT
HETATM    1 CL   UNL     1      -7.901   9.843  64.764  1.00  0.00    -0.135 Cl 
HETATM    2  C   UNL     1      -8.888   8.768  65.679  1.00  0.00    -0.199 A  
HETATM    3  C   UNL     1     -10.034   9.083  66.376  1.00  0.00    -0.370 A  
HETATM    4  C   UNL     1     -10.583   7.889  66.966  1.00  0.00    -0.381 A  
HETATM    5  S   UNL     1      -8.457   7.133  65.750  1.00  0.00    -0.129 SA 
HETATM    6  C   UNL     1      -9.823   6.766  66.711  1.00  0.00    -0.178 A  
ENDROOT
BRANCH   3   7
HETATM    7  C   UNL     1     -10.652  10.448  66.465  1.00  0.00    -0.151 C  
BRANCH   7   8
HETATM    8  O   UNL     1      -9.803  11.348  67.175  1.00  0.00    -0.188 OA 
BRANCH   8   9
HETATM    9  C   UNL     1     -10.405  12.052  68.279  1.00  0.00    -0.204 C  
BRANCH   9  10
HETATM   10  C   UNL     1     -10.752  11.036  69.380  1.00  0.00    -0.247 A  
HETATM   11  C   UNL     1     -12.421  10.073  70.900  1.00  0.00    -0.431 A  
HETATM   12  C   UNL     1      -9.802  10.166  69.951  1.00  0.00    -0.177 A  
HETATM   13  C   UNL     1     -12.075  10.947  69.865  1.00  0.00    -0.428 A  
HETATM   14 CL   UNL     1      -8.179  10.046  69.365  1.00  0.00    -0.141 Cl 
HETATM   15 CL   UNL     1     -11.861   8.226  72.781  1.00  0.00    -0.389 Cl 
HETATM   16  C   UNL     1     -10.139   9.316  71.013  1.00  0.00    -0.373 A  
HETATM   17  C   UNL     1     -11.446   9.277  71.484  1.00  0.00    -0.384 A  
ENDBRANCH   9  10
BRANCH   9  18
HETATM   18  C   UNL     1     -11.612  12.898  67.804  1.00  0.00    -0.343 C  
BRANCH  18  19
HETATM   19  N   UNL     1     -11.278  13.956  66.874  1.00  0.00    -0.304 NA 
HETATM   20  N   UNL     1     -11.221  15.102  64.980  1.00  0.00    -0.395 NA 
HETATM   21  C   UNL     1     -10.682  15.147  67.174  1.00  0.00    -0.310 A  
HETATM   22  C   UNL     1     -10.653  15.838  65.986  1.00  0.00    -0.326 A  
HETATM   23  C   UNL     1     -11.597  13.979  65.544  1.00  0.00    -0.332 A  
ENDBRANCH  18  19
ENDBRANCH   9  18
ENDBRANCH   8   9
ENDBRANCH   7   8
ENDBRANCH   3   7
TORSDOF 6
ENDMDL
MODEL       79
REMARK 921   NORMALIZED FREE ENERGY PREDICTED BY IDOCK:   -4.85 KCAL/MOL
REMARK 922        TOTAL FREE ENERGY PREDICTED BY IDOCK:   -7.59 KCAL/MOL
REMARK 923 INTER-LIGAND FREE ENERGY PREDICTED BY IDOCK:   -7.24 KCAL/MOL
REMARK 924 INTRA-LIGAND FREE ENERGY PREDICTED BY IDOCK:   -0.35 KCAL/MOL
REMARK 927      BINDING AFFINITY PREDICTED BY RF-SCORE:    0.00 PKD
ROOT
HETATM    1 CL   UNL     1      -7.002   8.204  69.969  1.00  0.00    -0.040 Cl 
HETATM    2  C   UNL     1      -8.374   8.174  71.009  1.00  0.00    -0.120 A  
HETATM    3  C   UNL     1      -9.484   8.987  70.944  1.00  0.00    -0.331 A  
HETATM    4  C   UNL     1     -10.423   8.605  71.968  1.00  0.00    -0.422 A  
HETATM    5  S   UNL     1      -8.423   7.027  72.254  1.00  0.00    -0.110 SA 
HETATM    6  C   UNL     1      -9.969   7.564  72.750  1.00  0.00    -0.227 A  
ENDROOT
BRANCH   3   7
HETATM    7  C   UNL     1      -9.712  10.070  69.930  1.00  0.00    -0.203 C  
BRANCH   7   8
HETATM    8  O   UNL     1     -10.965  10.717  70.147  1.00  0.00    -0.263 OA 
BRANCH   8   9
HETATM    9  C   UNL     1     -11.184  11.938  69.412  1.00  0.00    -0.211 C  
BRANCH   9  10
HETATM   10  C   UNL     1     -11.929  12.931  70.319  1.00  0.00    -0.359 A  
HETATM   11  C   UNL     1     -12.368  15.255  70.975  1.00  0.00    -0.426 A  
HETATM   12  C   UNL     1     -12.806  12.528  71.346  1.00  0.00    -0.260 A  
HETATM   13  C   UNL     1     -11.749  14.320  70.140  1.00  0.00    -0.357 A  
HETATM   14 CL   UNL     1     -13.249  10.874  71.594  1.00  0.00    -0.502 Cl 
HETATM   15 CL   UNL     1     -13.909  15.966  73.069  1.00  0.00    -0.610 Cl 
HETATM   16  C   UNL     1     -13.398  13.462  72.207  1.00  0.00    -0.641 A  
HETATM   17  C   UNL     1     -13.173  14.820  72.019  1.00  0.00    -0.351 A  
ENDBRANCH   9  10
BRANCH   9  18
HETATM   18  C   UNL     1     -11.902  11.655  68.069  1.00  0.00    -0.225 C  
BRANCH  18  19
HETATM   19  N   UNL     1     -11.521  12.536  66.985  1.00  0.00    -0.334 NA 
HETATM   20  N   UNL     1     -11.706  14.110  65.438  1.00  0.00    -0.336 NA 
HETATM   21  C   UNL     1     -10.260  12.743  66.506  1.00  0.00    -0.253 A  
HETATM   22  C   UNL     1     -10.399  13.717  65.546  1.00  0.00    -0.309 A  
HETATM   23  C   UNL     1     -12.358  13.390  66.321  1.00  0.00    -0.349 A  
ENDBRANCH  18  19
ENDBRANCH   9  18
ENDBRANCH   8   9
ENDBRANCH   7   8
ENDBRANCH   3   7
TORSDOF 6
ENDMDL
MODEL       80
REMARK 921   NORMALIZED FREE ENERGY PREDICTED BY IDOCK:   -4.85 KCAL/MOL
REMARK 922        TOTAL FREE ENERGY PREDICTED BY IDOCK:   -7.59 KCAL/MOL
REMARK 923 INTER-LIGAND FREE ENERGY PREDICTED BY IDOCK:   -6.74 KCAL/MOL
REMARK 924 INTRA-LIGAND FREE ENERGY PREDICTED BY IDOCK:   -0.84 KCAL/MOL
REMARK 927      BINDING AFFINITY PREDICTED BY RF-SCORE:    0.00 PKD
ROOT
HETATM    1 CL   UNL     1     -13.585  13.542  72.563  1.00  0.00    -0.685 Cl 
HETATM    2  C   UNL     1     -12.758  13.009  71.149  1.00  0.00    -0.283 A  
HETATM    3  C   UNL     1     -12.415  11.715  70.825  1.00  0.00    -0.425 A  
HETATM    4  C   UNL     1     -11.775  11.694  69.534  1.00  0.00    -0.410 A  
HETATM    5  S   UNL     1     -12.308  14.159  69.991  1.00  0.00    -0.307 SA 
HETATM    6  C   UNL     1     -11.649  12.950  68.978  1.00  0.00    -0.322 A  
ENDROOT
BRANCH   3   7
HETATM    7  C   UNL     1     -12.710  10.502  71.658  1.00  0.00    -0.445 C  
BRANCH   7   8
HETATM    8  O   UNL     1     -12.107   9.337  71.096  1.00  0.00    -0.297 OA 
BRANCH   8   9
HETATM    9  C   UNL     1     -11.480   8.434  72.028  1.00  0.00    -0.349 C  
BRANCH   9  10
HETATM   10  C   UNL     1      -9.954   8.549  71.875  1.00  0.00    -0.365 A  
HETATM   11  C   UNL     1      -8.026   9.279  70.545  1.00  0.00    -0.188 A  
HETATM   12  C   UNL     1      -9.045   8.030  72.817  1.00  0.00    -0.238 A  
HETATM   13  C   UNL     1      -9.407   9.198  70.747  1.00  0.00    -0.325 A  
HETATM   14 CL   UNL     1      -9.554   7.341  74.320  1.00  0.00    -0.221 Cl 
HETATM   15 CL   UNL     1      -5.462   8.767  71.197  1.00  0.00    -0.033 Cl 
HETATM   16  C   UNL     1      -7.661   8.077  72.598  1.00  0.00    -0.160 A  
HETATM   17  C   UNL     1      -7.160   8.699  71.461  1.00  0.00    -0.089 A  
ENDBRANCH   9  10
BRANCH   9  18
HETATM   18  C   UNL     1     -12.021   6.993  71.853  1.00  0.00    -0.320 C  
BRANCH  18  19
HETATM   19  N   UNL     1     -11.379   6.232  70.802  1.00  0.00    -0.333 NA 
HETATM   20  N   UNL     1     -10.693   5.686  68.768  1.00  0.00    -0.229 NA 
HETATM   21  C   UNL     1     -10.535   5.171  70.962  1.00  0.00    -0.171 A  
HETATM   22  C   UNL     1     -10.127   4.847  69.690  1.00  0.00    -0.230 A  
HETATM   23  C   UNL     1     -11.434   6.516  69.465  1.00  0.00    -0.319 A  
ENDBRANCH  18  19
ENDBRANCH   9  18
ENDBRANCH   8   9
ENDBRANCH   7   8
ENDBRANCH   3   7
TORSDOF 6
ENDMDL
MODEL       81
REMARK 921   NORMALIZED FREE ENERGY PREDICTED BY IDOCK:   -4.83 KCAL/MOL
REMARK 922        TOTAL FREE ENERGY PREDICTED BY IDOCK:   -7.57 KCAL/MOL
REMARK 923 INTER-LIGAND FREE ENERGY PREDICTED BY IDOCK:   -6.52 KCAL/MOL
REMARK 924 INTRA-LIGAND FREE ENERGY PREDICTED BY IDOCK:   -1.05 KCAL/MOL
REMARK 927      BINDING AFFINITY PREDICTED BY RF-SCORE:    0.00 PKD
ROOT
HETATM    1 CL   UNL     1      -9.934  14.402  66.452  1.00  0.00    -0.291 Cl 
HETATM    2  C   UNL     1     -10.752  13.563  65.189  1.00  0.00    -0.341 A  
HETATM    3  C   UNL     1     -10.555  12.257  64.796  1.00  0.00    -0.332 A  
HETATM    4  C   UNL     1     -11.474  11.929  63.735  1.00  0.00    -0.542 A  
HETATM    5  S   UNL     1     -11.950  14.380  64.315  1.00  0.00    -0.351 SA 
HETATM    6  C   UNL     1     -12.279  12.990  63.376  1.00  0.00    -0.472 A  
ENDROOT
BRANCH   3   7
HETATM    7  C   UNL     1      -9.575  11.301  65.411  1.00  0.00    -0.228 C  
BRANCH   7   8
HETATM    8  O   UNL     1     -10.231  10.400  66.301  1.00  0.00    -0.225 OA 
BRANCH   8   9
HETATM    9  C   UNL     1      -9.594  10.192  67.578  1.00  0.00    -0.156 C  
BRANCH   9  10
HETATM   10  C   UNL     1     -10.556  10.646  68.688  1.00  0.00    -0.229 A  
HETATM   11  C   UNL     1     -11.807  12.457  69.773  1.00  0.00    -0.387 A  
HETATM   12  C   UNL     1     -11.060   9.774  69.673  1.00  0.00    -0.217 A  
HETATM   13  C   UNL     1     -10.974  11.993  68.751  1.00  0.00    -0.282 A  
HETATM   14 CL   UNL     1     -10.765   8.070  69.647  1.00  0.00    -0.232 Cl 
HETATM   15 CL   UNL     1     -13.228  12.159  72.044  1.00  0.00    -0.576 Cl 
HETATM   16  C   UNL     1     -11.865  10.245  70.720  1.00  0.00    -0.459 A  
HETATM   17  C   UNL     1     -12.231  11.584  70.765  1.00  0.00    -0.363 A  
ENDBRANCH   9  10
BRANCH   9  18
HETATM   18  C   UNL     1      -8.210  10.887  67.625  1.00  0.00    -0.116 C  
BRANCH  18  19
HETATM   19  N   UNL     1      -7.466  10.662  68.846  1.00  0.00    -0.099 NA 
HETATM   20  N   UNL     1      -6.257  11.121  70.645  1.00  0.00    -0.345 NA 
HETATM   21  C   UNL     1      -7.409   9.504  69.567  1.00  0.00    -0.077 A  
HETATM   22  C   UNL     1      -6.652   9.810  70.673  1.00  0.00    -0.113 A  
HETATM   23  C   UNL     1      -6.768  11.613  69.541  1.00  0.00    -0.089 A  
ENDBRANCH  18  19
ENDBRANCH   9  18
ENDBRANCH   8   9
ENDBRANCH   7   8
ENDBRANCH   3   7
TORSDOF 6
ENDMDL
MODEL       82
REMARK 921   NORMALIZED FREE ENERGY PREDICTED BY IDOCK:   -4.83 KCAL/MOL
REMARK 922        TOTAL FREE ENERGY PREDICTED BY IDOCK:   -7.57 KCAL/MOL
REMARK 923 INTER-LIGAND FREE ENERGY PREDICTED BY IDOCK:   -7.04 KCAL/MOL
REMARK 924 INTRA-LIGAND FREE ENERGY PREDICTED BY IDOCK:   -0.53 KCAL/MOL
REMARK 927      BINDING AFFINITY PREDICTED BY RF-SCORE:    0.00 PKD
ROOT
HETATM    1 CL   UNL     1     -10.861  16.736  69.787  1.00  0.00    -0.266 Cl 
HETATM    2  C   UNL     1     -11.738  15.586  70.723  1.00  0.00    -0.362 A  
HETATM    3  C   UNL     1     -12.244  14.379  70.293  1.00  0.00    -0.397 A  
HETATM    4  C   UNL     1     -12.869  13.698  71.399  1.00  0.00    -0.442 A  
HETATM    5  S   UNL     1     -12.022  15.918  72.359  1.00  0.00    -0.558 SA 
HETATM    6  C   UNL     1     -12.825  14.424  72.571  1.00  0.00    -0.368 A  
ENDROOT
BRANCH   3   7
HETATM    7  C   UNL     1     -12.119  13.827  68.903  1.00  0.00    -0.313 C  
BRANCH   7   8
HETATM    8  O   UNL     1     -10.828  13.255  68.696  1.00  0.00    -0.248 OA 
BRANCH   8   9
HETATM    9  C   UNL     1     -10.772  12.120  67.809  1.00  0.00    -0.209 C  
BRANCH   9  10
HETATM   10  C   UNL     1     -10.078  10.958  68.539  1.00  0.00    -0.193 A  
HETATM   11  C   UNL     1     -10.218   8.720  69.535  1.00  0.00    -0.208 A  
HETATM   12  C   UNL     1      -8.730  11.002  68.948  1.00  0.00    -0.117 A  
HETATM   13  C   UNL     1     -10.797   9.779  68.829  1.00  0.00    -0.219 A  
HETATM   14 CL   UNL     1      -7.675  12.309  68.538  1.00  0.00    -0.128 Cl 
HETATM   15 CL   UNL     1      -8.204   7.537  70.879  1.00  0.00    -0.111 Cl 
HETATM   16  C   UNL     1      -8.160   9.957  69.688  1.00  0.00    -0.171 A  
HETATM   17  C   UNL     1      -8.908   8.824  69.980  1.00  0.00    -0.146 A  
ENDBRANCH   9  10
BRANCH   9  18
HETATM   18  C   UNL     1     -10.106  12.501  66.463  1.00  0.00    -0.238 C  
BRANCH  18  19
HETATM   19  N   UNL     1     -11.029  12.658  65.359  1.00  0.00    -0.280 NA 
HETATM   20  N   UNL     1     -12.909  13.124  64.285  1.00  0.00    -0.664 NA 
HETATM   21  C   UNL     1     -10.725  12.606  64.029  1.00  0.00    -0.425 A  
HETATM   22  C   UNL     1     -11.905  12.893  63.383  1.00  0.00    -0.507 A  
HETATM   23  C   UNL     1     -12.353  12.985  65.466  1.00  0.00    -0.472 A  
ENDBRANCH  18  19
ENDBRANCH   9  18
ENDBRANCH   8   9
ENDBRANCH   7   8
ENDBRANCH   3   7
TORSDOF 6
ENDMDL
MODEL       83
REMARK 921   NORMALIZED FREE ENERGY PREDICTED BY IDOCK:   -4.83 KCAL/MOL
REMARK 922        TOTAL FREE ENERGY PREDICTED BY IDOCK:   -7.56 KCAL/MOL
REMARK 923 INTER-LIGAND FREE ENERGY PREDICTED BY IDOCK:   -6.88 KCAL/MOL
REMARK 924 INTRA-LIGAND FREE ENERGY PREDICTED BY IDOCK:   -0.68 KCAL/MOL
REMARK 927      BINDING AFFINITY PREDICTED BY RF-SCORE:    0.00 PKD
ROOT
HETATM    1 CL   UNL     1      -6.475  15.162  70.537  1.00  0.00     0.002 Cl 
HETATM    2  C   UNL     1      -7.201  15.873  69.146  1.00  0.00    -0.196 A  
HETATM    3  C   UNL     1      -7.997  15.245  68.212  1.00  0.00    -0.132 A  
HETATM    4  C   UNL     1      -8.439  16.205  67.233  1.00  0.00    -0.203 A  
HETATM    5  S   UNL     1      -6.955  17.523  68.856  1.00  0.00    -0.246 SA 
HETATM    6  C   UNL     1      -7.942  17.471  67.460  1.00  0.00    -0.200 A  
ENDROOT
BRANCH   3   7
HETATM    7  C   UNL     1      -8.392  13.798  68.237  1.00  0.00    -0.161 C  
BRANCH   7   8
HETATM    8  O   UNL     1      -9.699  13.616  67.695  1.00  0.00    -0.218 OA 
BRANCH   8   9
HETATM    9  C   UNL     1     -10.781  14.226  68.428  1.00  0.00    -0.251 C  
BRANCH   9  10
HETATM   10  C   UNL     1     -11.406  13.169  69.353  1.00  0.00    -0.276 A  
HETATM   11  C   UNL     1     -11.840  10.805  69.850  1.00  0.00    -0.413 A  
HETATM   12  C   UNL     1     -12.150  13.497  70.504  1.00  0.00    -0.335 A  
HETATM   13  C   UNL     1     -11.246  11.796  69.064  1.00  0.00    -0.324 A  
HETATM   14 CL   UNL     1     -12.310  15.121  71.077  1.00  0.00    -0.367 Cl 
HETATM   15 CL   UNL     1     -13.383   9.951  71.889  1.00  0.00    -0.514 Cl 
HETATM   16  C   UNL     1     -12.777  12.506  71.272  1.00  0.00    -0.350 A  
HETATM   17  C   UNL     1     -12.622  11.167  70.939  1.00  0.00    -0.386 A  
ENDBRANCH   9  10
BRANCH   9  18
HETATM   18  C   UNL     1     -11.794  14.895  67.466  1.00  0.00    -0.232 C  
BRANCH  18  19
HETATM   19  N   UNL     1     -11.863  14.294  66.151  1.00  0.00    -0.391 NA 
HETATM   20  N   UNL     1     -12.543  12.955  64.523  1.00  0.00    -0.656 NA 
HETATM   21  C   UNL     1     -11.253  14.743  65.015  1.00  0.00    -0.395 A  
HETATM   22  C   UNL     1     -11.684  13.896  64.022  1.00  0.00    -0.288 A  
HETATM   23  C   UNL     1     -12.640  13.223  65.804  1.00  0.00    -0.347 A  
ENDBRANCH  18  19
ENDBRANCH   9  18
ENDBRANCH   8   9
ENDBRANCH   7   8
ENDBRANCH   3   7
TORSDOF 6
ENDMDL
MODEL       84
REMARK 921   NORMALIZED FREE ENERGY PREDICTED BY IDOCK:   -4.83 KCAL/MOL
REMARK 922        TOTAL FREE ENERGY PREDICTED BY IDOCK:   -7.56 KCAL/MOL
REMARK 923 INTER-LIGAND FREE ENERGY PREDICTED BY IDOCK:   -6.43 KCAL/MOL
REMARK 924 INTRA-LIGAND FREE ENERGY PREDICTED BY IDOCK:   -1.13 KCAL/MOL
REMARK 927      BINDING AFFINITY PREDICTED BY RF-SCORE:    0.00 PKD
ROOT
HETATM    1 CL   UNL     1     -10.472   6.745  68.605  1.00  0.00    -0.205 Cl 
HETATM    2  C   UNL     1      -9.834   7.712  67.330  1.00  0.00    -0.173 A  
HETATM    3  C   UNL     1     -10.070   9.050  67.105  1.00  0.00    -0.309 A  
HETATM    4  C   UNL     1      -9.310   9.488  65.962  1.00  0.00    -0.273 A  
HETATM    5  S   UNL     1      -8.785   6.992  66.213  1.00  0.00    -0.148 SA 
HETATM    6  C   UNL     1      -8.578   8.473  65.383  1.00  0.00    -0.176 A  
ENDROOT
BRANCH   3   7
HETATM    7  C   UNL     1     -10.940   9.935  67.950  1.00  0.00    -0.223 C  
BRANCH   7   8
HETATM    8  O   UNL     1     -10.173  10.595  68.956  1.00  0.00    -0.196 OA 
BRANCH   8   9
HETATM    9  C   UNL     1     -10.840  10.827  70.212  1.00  0.00     0.014 C  
BRANCH   9  10
HETATM   10  C   UNL     1     -10.787   9.536  71.044  1.00  0.00    -0.423 A  
HETATM   11  C   UNL     1     -11.978   7.792  72.294  1.00  0.00    -0.356 A  
HETATM   12  C   UNL     1      -9.582   8.895  71.396  1.00  0.00    -0.289 A  
HETATM   13  C   UNL     1     -11.984   8.938  71.493  1.00  0.00    -0.401 A  
HETATM   14 CL   UNL     1      -8.044   9.415  70.801  1.00  0.00    -0.197 Cl 
HETATM   15 CL   UNL     1     -10.758   5.836  73.690  1.00  0.00    -0.295 Cl 
HETATM   16  C   UNL     1      -9.572   7.768  72.230  1.00  0.00    -0.231 A  
HETATM   17  C   UNL     1     -10.771   7.225  72.676  1.00  0.00    -0.278 A  
ENDBRANCH   9  10
BRANCH   9  18
HETATM   18  C   UNL     1     -12.273  11.369  69.986  1.00  0.00    -0.301 C  
BRANCH  18  19
HETATM   19  N   UNL     1     -12.634  12.487  70.832  1.00  0.00    -0.304 NA 
HETATM   20  N   UNL     1     -12.870  14.588  71.494  1.00  0.00    -0.317 NA 
HETATM   21  C   UNL     1     -13.398  12.442  71.962  1.00  0.00    -0.407 A  
HETATM   22  C   UNL     1     -13.527  13.753  72.357  1.00  0.00    -0.571 A  
HETATM   23  C   UNL     1     -12.350  13.802  70.581  1.00  0.00    -0.375 A  
ENDBRANCH  18  19
ENDBRANCH   9  18
ENDBRANCH   8   9
ENDBRANCH   7   8
ENDBRANCH   3   7
TORSDOF 6
ENDMDL
MODEL       85
REMARK 921   NORMALIZED FREE ENERGY PREDICTED BY IDOCK:   -4.82 KCAL/MOL
REMARK 922        TOTAL FREE ENERGY PREDICTED BY IDOCK:   -7.55 KCAL/MOL
REMARK 923 INTER-LIGAND FREE ENERGY PREDICTED BY IDOCK:   -6.55 KCAL/MOL
REMARK 924 INTRA-LIGAND FREE ENERGY PREDICTED BY IDOCK:   -1.00 KCAL/MOL
REMARK 927      BINDING AFFINITY PREDICTED BY RF-SCORE:    0.00 PKD
ROOT
HETATM    1 CL   UNL     1     -10.150  10.793  64.911  1.00  0.00    -0.362 Cl 
HETATM    2  C   UNL     1      -9.763  10.404  66.544  1.00  0.00    -0.194 A  
HETATM    3  C   UNL     1      -9.123  11.210  67.460  1.00  0.00    -0.146 A  
HETATM    4  C   UNL     1      -9.035  10.526  68.725  1.00  0.00    -0.166 A  
HETATM    5  S   UNL     1     -10.209   8.885  67.143  1.00  0.00    -0.281 SA 
HETATM    6  C   UNL     1      -9.578   9.258  68.688  1.00  0.00    -0.147 A  
ENDROOT
BRANCH   3   7
HETATM    7  C   UNL     1      -8.640  12.607  67.203  1.00  0.00    -0.199 C  
BRANCH   7   8
HETATM    8  O   UNL     1      -9.469  13.564  67.862  1.00  0.00    -0.200 OA 
BRANCH   8   9
HETATM    9  C   UNL     1     -10.436  14.241  67.035  1.00  0.00    -0.271 C  
BRANCH   9  10
HETATM   10  C   UNL     1     -10.171  15.754  67.106  1.00  0.00    -0.279 A  
HETATM   11  C   UNL     1      -9.330  17.682  68.370  1.00  0.00    -0.289 A  
HETATM   12  C   UNL     1     -10.528  16.648  66.077  1.00  0.00    -0.298 A  
HETATM   13  C   UNL     1      -9.543  16.306  68.244  1.00  0.00    -0.218 A  
HETATM   14 CL   UNL     1     -11.166  16.113  64.560  1.00  0.00    -0.409 Cl 
HETATM   15 CL   UNL     1      -9.525  20.236  67.533  1.00  0.00    -0.525 Cl 
HETATM   16  C   UNL     1     -10.349  18.030  66.218  1.00  0.00    -0.384 A  
HETATM   17  C   UNL     1      -9.754  18.540  67.365  1.00  0.00    -0.303 A  
ENDBRANCH   9  10
BRANCH   9  18
HETATM   18  C   UNL     1     -11.880  13.838  67.426  1.00  0.00    -0.396 C  
BRANCH  18  19
HETATM   19  N   UNL     1     -12.044  13.463  68.814  1.00  0.00    -0.310 NA 
HETATM   20  N   UNL     1     -12.418  13.686  70.987  1.00  0.00    -0.369 NA 
HETATM   21  C   UNL     1     -12.146  12.195  69.311  1.00  0.00    -0.178 A  
HETATM   22  C   UNL     1     -12.372  12.357  70.657  1.00  0.00    -0.279 A  
HETATM   23  C   UNL     1     -12.227  14.328  69.858  1.00  0.00    -0.352 A  
ENDBRANCH  18  19
ENDBRANCH   9  18
ENDBRANCH   8   9
ENDBRANCH   7   8
ENDBRANCH   3   7
TORSDOF 6
ENDMDL
MODEL       86
REMARK 921   NORMALIZED FREE ENERGY PREDICTED BY IDOCK:   -4.78 KCAL/MOL
REMARK 922        TOTAL FREE ENERGY PREDICTED BY IDOCK:   -7.49 KCAL/MOL
REMARK 923 INTER-LIGAND FREE ENERGY PREDICTED BY IDOCK:   -6.61 KCAL/MOL
REMARK 924 INTRA-LIGAND FREE ENERGY PREDICTED BY IDOCK:   -0.88 KCAL/MOL
REMARK 927      BINDING AFFINITY PREDICTED BY RF-SCORE:    0.00 PKD
ROOT
HETATM    1 CL   UNL     1     -13.802   9.703  72.087  1.00  0.00    -0.382 Cl 
HETATM    2  C   UNL     1     -12.164   9.333  71.700  1.00  0.00    -0.370 A  
HETATM    3  C   UNL     1     -11.340  10.021  70.836  1.00  0.00    -0.439 A  
HETATM    4  C   UNL     1     -10.034   9.413  70.830  1.00  0.00    -0.358 A  
HETATM    5  S   UNL     1     -11.435   8.001  72.447  1.00  0.00    -0.409 SA 
HETATM    6  C   UNL     1      -9.952   8.308  71.652  1.00  0.00    -0.212 A  
ENDROOT
BRANCH   3   7
HETATM    7  C   UNL     1     -11.721  11.247  70.060  1.00  0.00    -0.346 C  
BRANCH   7   8
HETATM    8  O   UNL     1     -11.928  10.936  68.682  1.00  0.00    -0.484 OA 
BRANCH   8   9
HETATM    9  C   UNL     1     -10.812  11.178  67.803  1.00  0.00    -0.239 C  
BRANCH   9  10
HETATM   10  C   UNL     1     -11.109  12.430  66.962  1.00  0.00    -0.327 A  
HETATM   11  C   UNL     1     -12.202  13.438  65.009  1.00  0.00    -0.463 A  
HETATM   12  C   UNL     1     -10.582  13.702  67.261  1.00  0.00    -0.267 A  
HETATM   13  C   UNL     1     -11.947  12.335  65.829  1.00  0.00    -0.362 A  
HETATM   14 CL   UNL     1      -9.665  14.015  68.694  1.00  0.00    -0.211 Cl 
HETATM   15 CL   UNL     1     -11.896  16.012  64.271  1.00  0.00    -0.218 Cl 
HETATM   16  C   UNL     1     -10.807  14.800  66.420  1.00  0.00    -0.322 A  
HETATM   17  C   UNL     1     -11.612  14.661  65.297  1.00  0.00    -0.354 A  
ENDBRANCH   9  10
BRANCH   9  18
HETATM   18  C   UNL     1     -10.488   9.919  66.960  1.00  0.00    -0.230 C  
BRANCH  18  19
HETATM   19  N   UNL     1      -9.122   9.846  66.487  1.00  0.00    -0.149 NA 
HETATM   20  N   UNL     1      -6.915   9.664  66.559  1.00  0.00    -0.084 NA 
HETATM   21  C   UNL     1      -8.713   9.711  65.191  1.00  0.00    -0.166 A  
HETATM   22  C   UNL     1      -7.344   9.605  65.260  1.00  0.00    -0.113 A  
HETATM   23  C   UNL     1      -8.006   9.799  67.277  1.00  0.00    -0.106 A  
ENDBRANCH  18  19
ENDBRANCH   9  18
ENDBRANCH   8   9
ENDBRANCH   7   8
ENDBRANCH   3   7
TORSDOF 6
ENDMDL
MODEL       87
REMARK 921   NORMALIZED FREE ENERGY PREDICTED BY IDOCK:   -4.77 KCAL/MOL
REMARK 922        TOTAL FREE ENERGY PREDICTED BY IDOCK:   -7.48 KCAL/MOL
REMARK 923 INTER-LIGAND FREE ENERGY PREDICTED BY IDOCK:   -7.47 KCAL/MOL
REMARK 924 INTRA-LIGAND FREE ENERGY PREDICTED BY IDOCK:   -0.01 KCAL/MOL
REMARK 927      BINDING AFFINITY PREDICTED BY RF-SCORE:    0.00 PKD
ROOT
HETATM    1 CL   UNL     1     -13.903   9.258  72.198  1.00  0.00    -0.479 Cl 
HETATM    2  C   UNL     1     -12.245   9.179  71.739  1.00  0.00    -0.372 A  
HETATM    3  C   UNL     1     -11.566  10.058  70.923  1.00  0.00    -0.463 A  
HETATM    4  C   UNL     1     -10.184   9.660  70.829  1.00  0.00    -0.330 A  
HETATM    5  S   UNL     1     -11.295   7.913  72.342  1.00  0.00    -0.396 SA 
HETATM    6  C   UNL     1      -9.907   8.513  71.543  1.00  0.00    -0.239 A  
ENDROOT
BRANCH   3   7
HETATM    7  C   UNL     1     -12.156  11.275  70.273  1.00  0.00    -0.373 C  
BRANCH   7   8
HETATM    8  O   UNL     1     -12.245  11.106  68.858  1.00  0.00    -0.522 OA 
BRANCH   8   9
HETATM    9  C   UNL     1     -11.094  11.521  68.096  1.00  0.00    -0.246 C  
BRANCH   9  10
HETATM   10  C   UNL     1     -10.902  13.035  68.281  1.00  0.00    -0.267 A  
HETATM   11  C   UNL     1     -11.897  15.265  68.529  1.00  0.00    -0.305 A  
HETATM   12  C   UNL     1      -9.635  13.650  68.329  1.00  0.00    -0.215 A  
HETATM   13  C   UNL     1     -12.027  13.878  68.411  1.00  0.00    -0.391 A  
HETATM   14 CL   UNL     1      -8.161  12.744  68.335  1.00  0.00    -0.148 Cl 
HETATM   15 CL   UNL     1     -10.473  17.551  68.618  1.00  0.00    -0.358 Cl 
HETATM   16  C   UNL     1      -9.503  15.043  68.410  1.00  0.00    -0.201 A  
HETATM   17  C   UNL     1     -10.635  15.842  68.507  1.00  0.00    -0.263 A  
ENDBRANCH   9  10
BRANCH   9  18
HETATM   18  C   UNL     1     -11.222  11.081  66.616  1.00  0.00    -0.050 C  
BRANCH  18  19
HETATM   19  N   UNL     1     -11.372  12.171  65.675  1.00  0.00    -0.340 NA 
HETATM   20  N   UNL     1     -10.797  13.762  64.244  1.00  0.00    -0.314 NA 
HETATM   21  C   UNL     1     -12.536  12.607  65.110  1.00  0.00    -0.463 A  
HETATM   22  C   UNL     1     -12.157  13.594  64.231  1.00  0.00    -0.434 A  
HETATM   23  C   UNL     1     -10.350  12.887  65.114  1.00  0.00    -0.303 A  
ENDBRANCH  18  19
ENDBRANCH   9  18
ENDBRANCH   8   9
ENDBRANCH   7   8
ENDBRANCH   3   7
TORSDOF 6
ENDMDL
MODEL       88
REMARK 921   NORMALIZED FREE ENERGY PREDICTED BY IDOCK:   -4.77 KCAL/MOL
REMARK 922        TOTAL FREE ENERGY PREDICTED BY IDOCK:   -7.48 KCAL/MOL
REMARK 923 INTER-LIGAND FREE ENERGY PREDICTED BY IDOCK:   -7.09 KCAL/MOL
REMARK 924 INTRA-LIGAND FREE ENERGY PREDICTED BY IDOCK:   -0.39 KCAL/MOL
REMARK 927      BINDING AFFINITY PREDICTED BY RF-SCORE:    0.00 PKD
ROOT
HETATM    1 CL   UNL     1     -12.088  12.171  70.236  1.00  0.00    -0.417 Cl 
HETATM    2  C   UNL     1     -12.625  13.522  71.159  1.00  0.00    -0.355 A  
HETATM    3  C   UNL     1     -12.130  14.807  71.115  1.00  0.00    -0.391 A  
HETATM    4  C   UNL     1     -12.887  15.646  72.010  1.00  0.00    -0.518 A  
HETATM    5  S   UNL     1     -13.909  13.306  72.241  1.00  0.00    -0.433 SA 
HETATM    6  C   UNL     1     -13.874  14.957  72.685  1.00  0.00    -0.416 A  
ENDROOT
BRANCH   3   7
HETATM    7  C   UNL     1     -11.012  15.280  70.233  1.00  0.00    -0.289 C  
BRANCH   7   8
HETATM    8  O   UNL     1     -10.960  14.523  69.025  1.00  0.00    -0.240 OA 
BRANCH   8   9
HETATM    9  C   UNL     1     -10.841  15.281  67.805  1.00  0.00    -0.295 C  
BRANCH   9  10
HETATM   10  C   UNL     1     -11.325  14.410  66.634  1.00  0.00    -0.359 A  
HETATM   11  C   UNL     1     -12.099  12.230  65.818  1.00  0.00    -0.287 A  
HETATM   12  C   UNL     1     -11.416  14.883  65.310  1.00  0.00    -0.336 A  
HETATM   13  C   UNL     1     -11.702  13.069  66.863  1.00  0.00    -0.441 A  
HETATM   14 CL   UNL     1     -11.136  16.538  64.891  1.00  0.00    -0.304 Cl 
HETATM   15 CL   UNL     1     -12.570  11.670  63.224  1.00  0.00    -0.466 Cl 
HETATM   16  C   UNL     1     -11.779  14.033  64.256  1.00  0.00    -0.388 A  
HETATM   17  C   UNL     1     -12.115  12.710  64.516  1.00  0.00    -0.417 A  
ENDBRANCH   9  10
BRANCH   9  18
HETATM   18  C   UNL     1      -9.400  15.824  67.629  1.00  0.00    -0.216 C  
BRANCH  18  19
HETATM   19  N   UNL     1      -8.359  14.832  67.793  1.00  0.00    -0.150 NA 
HETATM   20  N   UNL     1      -6.727  13.687  68.758  1.00  0.00    -0.098 NA 
HETATM   21  C   UNL     1      -8.100  13.776  66.967  1.00  0.00     0.018 A  
HETATM   22  C   UNL     1      -7.084  13.084  67.582  1.00  0.00    -0.156 A  
HETATM   23  C   UNL     1      -7.516  14.731  68.865  1.00  0.00    -0.137 A  
ENDBRANCH  18  19
ENDBRANCH   9  18
ENDBRANCH   8   9
ENDBRANCH   7   8
ENDBRANCH   3   7
TORSDOF 6
ENDMDL
MODEL       89
REMARK 921   NORMALIZED FREE ENERGY PREDICTED BY IDOCK:   -4.76 KCAL/MOL
REMARK 922        TOTAL FREE ENERGY PREDICTED BY IDOCK:   -7.48 KCAL/MOL
REMARK 923 INTER-LIGAND FREE ENERGY PREDICTED BY IDOCK:   -6.53 KCAL/MOL
REMARK 924 INTRA-LIGAND FREE ENERGY PREDICTED BY IDOCK:   -0.95 KCAL/MOL
REMARK 927      BINDING AFFINITY PREDICTED BY RF-SCORE:    0.00 PKD
ROOT
HETATM    1 CL   UNL     1      -5.187  14.954  70.684  1.00  0.00    -0.122 Cl 
HETATM    2  C   UNL     1      -6.201  13.890  69.785  1.00  0.00    -0.136 A  
HETATM    3  C   UNL     1      -7.405  14.197  69.189  1.00  0.00    -0.067 A  
HETATM    4  C   UNL     1      -7.908  13.038  68.495  1.00  0.00    -0.105 A  
HETATM    5  S   UNL     1      -5.702  12.287  69.564  1.00  0.00    -0.099 SA 
HETATM    6  C   UNL     1      -7.087  11.937  68.625  1.00  0.00    -0.102 A  
ENDROOT
BRANCH   3   7
HETATM    7  C   UNL     1      -8.068  15.542  69.208  1.00  0.00    -0.248 C  
BRANCH   7   8
HETATM    8  O   UNL     1      -9.484  15.415  69.084  1.00  0.00    -0.211 OA 
BRANCH   8   9
HETATM    9  C   UNL     1     -10.089  16.105  67.972  1.00  0.00    -0.242 C  
BRANCH   9  10
HETATM   10  C   UNL     1     -10.675  15.062  67.006  1.00  0.00    -0.304 A  
HETATM   11  C   UNL     1     -10.783  14.123  64.742  1.00  0.00    -0.436 A  
HETATM   12  C   UNL     1     -11.649  14.119  67.390  1.00  0.00    -0.372 A  
HETATM   13  C   UNL     1     -10.239  15.022  65.664  1.00  0.00    -0.386 A  
HETATM   14 CL   UNL     1     -12.175  13.939  69.028  1.00  0.00    -0.353 Cl 
HETATM   15 CL   UNL     1     -12.484  12.169  63.998  1.00  0.00    -0.557 Cl 
HETATM   16  C   UNL     1     -12.222  13.242  66.458  1.00  0.00    -0.389 A  
HETATM   17  C   UNL     1     -11.788  13.252  65.139  1.00  0.00    -0.348 A  
ENDBRANCH   9  10
BRANCH   9  18
HETATM   18  C   UNL     1      -9.081  17.077  67.309  1.00  0.00    -0.223 C  
BRANCH  18  19
HETATM   19  N   UNL     1      -9.625  18.378  66.984  1.00  0.00    -0.289 NA 
HETATM   20  N   UNL     1      -9.878  20.578  67.008  1.00  0.00    -0.447 NA 
HETATM   21  C   UNL     1     -10.511  18.666  65.985  1.00  0.00    -0.414 A  
HETATM   22  C   UNL     1     -10.656  20.033  66.022  1.00  0.00    -0.367 A  
HETATM   23  C   UNL     1      -9.262  19.562  67.565  1.00  0.00    -0.315 A  
ENDBRANCH  18  19
ENDBRANCH   9  18
ENDBRANCH   8   9
ENDBRANCH   7   8
ENDBRANCH   3   7
TORSDOF 6
ENDMDL
MODEL       90
REMARK 921   NORMALIZED FREE ENERGY PREDICTED BY IDOCK:   -4.76 KCAL/MOL
REMARK 922        TOTAL FREE ENERGY PREDICTED BY IDOCK:   -7.47 KCAL/MOL
REMARK 923 INTER-LIGAND FREE ENERGY PREDICTED BY IDOCK:   -6.69 KCAL/MOL
REMARK 924 INTRA-LIGAND FREE ENERGY PREDICTED BY IDOCK:   -0.78 KCAL/MOL
REMARK 927      BINDING AFFINITY PREDICTED BY RF-SCORE:    0.00 PKD
ROOT
HETATM    1 CL   UNL     1      -6.804  16.766  67.245  1.00  0.00    -0.184 Cl 
HETATM    2  C   UNL     1      -6.533  15.541  68.426  1.00  0.00    -0.114 A  
HETATM    3  C   UNL     1      -7.043  14.261  68.426  1.00  0.00    -0.105 A  
HETATM    4  C   UNL     1      -6.536  13.541  69.567  1.00  0.00    -0.054 A  
HETATM    5  S   UNL     1      -5.526  15.890  69.741  1.00  0.00    -0.134 SA 
HETATM    6  C   UNL     1      -5.712  14.308  70.362  1.00  0.00    -0.144 A  
ENDROOT
BRANCH   3   7
HETATM    7  C   UNL     1      -7.942  13.682  67.373  1.00  0.00    -0.166 C  
BRANCH   7   8
HETATM    8  O   UNL     1      -8.550  12.474  67.829  1.00  0.00    -0.157 OA 
BRANCH   8   9
HETATM    9  C   UNL     1      -9.955  12.323  67.543  1.00  0.00    -0.199 C  
BRANCH   9  10
HETATM   10  C   UNL     1     -10.635  11.656  68.749  1.00  0.00    -0.241 A  
HETATM   11  C   UNL     1     -10.811   9.732  70.262  1.00  0.00    -0.356 A  
HETATM   12  C   UNL     1     -11.708  12.242  69.449  1.00  0.00    -0.330 A  
HETATM   13  C   UNL     1     -10.187  10.396  69.201  1.00  0.00    -0.239 A  
HETATM   14 CL   UNL     1     -12.273  13.842  69.116  1.00  0.00    -0.367 Cl 
HETATM   15 CL   UNL     1     -12.699   9.480  72.169  1.00  0.00    -0.454 Cl 
HETATM   16  C   UNL     1     -12.358  11.562  70.488  1.00  0.00    -0.432 A  
HETATM   17  C   UNL     1     -11.908  10.309  70.886  1.00  0.00    -0.377 A  
ENDBRANCH   9  10
BRANCH   9  18
HETATM   18  C   UNL     1     -10.169  11.571  66.206  1.00  0.00    -0.230 C  
BRANCH  18  19
HETATM   19  N   UNL     1     -11.124  12.191  65.312  1.00  0.00    -0.312 NA 
HETATM   20  N   UNL     1     -12.865  13.393  64.657  1.00  0.00    -0.685 NA 
HETATM   21  C   UNL     1     -11.033  12.274  63.952  1.00  0.00    -0.406 A  
HETATM   22  C   UNL     1     -12.124  13.018  63.568  1.00  0.00    -0.542 A  
HETATM   23  C   UNL     1     -12.236  12.890  65.693  1.00  0.00    -0.463 A  
ENDBRANCH  18  19
ENDBRANCH   9  18
ENDBRANCH   8   9
ENDBRANCH   7   8
ENDBRANCH   3   7
TORSDOF 6
ENDMDL
MODEL       91
REMARK 921   NORMALIZED FREE ENERGY PREDICTED BY IDOCK:   -4.75 KCAL/MOL
REMARK 922        TOTAL FREE ENERGY PREDICTED BY IDOCK:   -7.46 KCAL/MOL
REMARK 923 INTER-LIGAND FREE ENERGY PREDICTED BY IDOCK:   -6.62 KCAL/MOL
REMARK 924 INTRA-LIGAND FREE ENERGY PREDICTED BY IDOCK:   -0.84 KCAL/MOL
REMARK 927      BINDING AFFINITY PREDICTED BY RF-SCORE:    0.00 PKD
ROOT
HETATM    1 CL   UNL     1     -11.652  16.083  70.671  1.00  0.00    -0.407 Cl 
HETATM    2  C   UNL     1     -12.387  14.601  71.151  1.00  0.00    -0.335 A  
HETATM    3  C   UNL     1     -12.328  13.393  70.490  1.00  0.00    -0.401 A  
HETATM    4  C   UNL     1     -13.038  12.394  71.249  1.00  0.00    -0.218 A  
HETATM    5  S   UNL     1     -13.276  14.565  72.591  1.00  0.00    -0.510 SA 
HETATM    6  C   UNL     1     -13.604  12.897  72.402  1.00  0.00    -0.478 A  
ENDROOT
BRANCH   3   7
HETATM    7  C   UNL     1     -11.593  13.137  69.207  1.00  0.00    -0.314 C  
BRANCH   7   8
HETATM    8  O   UNL     1     -11.444  11.737  68.975  1.00  0.00    -0.245 OA 
BRANCH   8   9
HETATM    9  C   UNL     1     -10.827  11.362  67.727  1.00  0.00    -0.231 C  
BRANCH   9  10
HETATM   10  C   UNL     1      -9.687  10.373  68.019  1.00  0.00    -0.166 A  
HETATM   11  C   UNL     1      -8.162   9.345  69.644  1.00  0.00    -0.136 A  
HETATM   12  C   UNL     1      -9.052   9.612  67.017  1.00  0.00    -0.135 A  
HETATM   13  C   UNL     1      -9.229  10.196  69.343  1.00  0.00    -0.229 A  
HETATM   14 CL   UNL     1      -9.593   9.602  65.374  1.00  0.00    -0.351 Cl 
HETATM   15 CL   UNL     1      -6.181   7.640  68.985  1.00  0.00    -0.034 Cl 
HETATM   16  C   UNL     1      -7.958   8.787  67.311  1.00  0.00    -0.097 A  
HETATM   17  C   UNL     1      -7.517   8.661  68.622  1.00  0.00    -0.096 A  
ENDBRANCH   9  10
BRANCH   9  18
HETATM   18  C   UNL     1     -10.383  12.615  66.932  1.00  0.00    -0.233 C  
BRANCH  18  19
HETATM   19  N   UNL     1     -11.078  12.809  65.677  1.00  0.00    -0.274 NA 
HETATM   20  N   UNL     1     -12.747  12.836  64.221  1.00  0.00    -0.702 NA 
HETATM   21  C   UNL     1     -10.600  13.447  64.569  1.00  0.00    -0.425 A  
HETATM   22  C   UNL     1     -11.648  13.448  63.679  1.00  0.00    -0.245 A  
HETATM   23  C   UNL     1     -12.380  12.470  65.426  1.00  0.00    -0.359 A  
ENDBRANCH  18  19
ENDBRANCH   9  18
ENDBRANCH   8   9
ENDBRANCH   7   8
ENDBRANCH   3   7
TORSDOF 6
ENDMDL
MODEL       92
REMARK 921   NORMALIZED FREE ENERGY PREDICTED BY IDOCK:   -4.75 KCAL/MOL
REMARK 922        TOTAL FREE ENERGY PREDICTED BY IDOCK:   -7.45 KCAL/MOL
REMARK 923 INTER-LIGAND FREE ENERGY PREDICTED BY IDOCK:   -6.95 KCAL/MOL
REMARK 924 INTRA-LIGAND FREE ENERGY PREDICTED BY IDOCK:   -0.51 KCAL/MOL
REMARK 927      BINDING AFFINITY PREDICTED BY RF-SCORE:    0.00 PKD
ROOT
HETATM    1 CL   UNL     1     -11.886  10.443  69.999  1.00  0.00    -0.344 Cl 
HETATM    2  C   UNL     1     -11.223  10.915  68.481  1.00  0.00    -0.274 A  
HETATM    3  C   UNL     1     -11.190  12.185  67.947  1.00  0.00    -0.329 A  
HETATM    4  C   UNL     1     -10.505  12.157  66.680  1.00  0.00    -0.248 A  
HETATM    5  S   UNL     1     -10.505   9.730  67.507  1.00  0.00    -0.262 SA 
HETATM    6  C   UNL     1     -10.090  10.891  66.322  1.00  0.00    -0.233 A  
ENDROOT
BRANCH   3   7
HETATM    7  C   UNL     1     -11.732  13.420  68.605  1.00  0.00    -0.349 C  
BRANCH   7   8
HETATM    8  O   UNL     1     -10.690  14.161  69.237  1.00  0.00    -0.223 OA 
BRANCH   8   9
HETATM    9  C   UNL     1     -10.894  15.585  69.337  1.00  0.00    -0.261 C  
BRANCH   9  10
HETATM   10  C   UNL     1      -9.881  16.293  68.423  1.00  0.00    -0.229 A  
HETATM   11  C   UNL     1      -9.437  17.941  66.660  1.00  0.00    -0.303 A  
HETATM   12  C   UNL     1      -8.507  15.983  68.411  1.00  0.00    -0.180 A  
HETATM   13  C   UNL     1     -10.316  17.307  67.543  1.00  0.00    -0.346 A  
HETATM   14 CL   UNL     1      -7.793  14.876  69.532  1.00  0.00    -0.147 Cl 
HETATM   15 CL   UNL     1      -7.024  18.317  65.520  1.00  0.00    -0.229 Cl 
HETATM   16  C   UNL     1      -7.631  16.591  67.502  1.00  0.00    -0.170 A  
HETATM   17  C   UNL     1      -8.101  17.564  66.629  1.00  0.00    -0.255 A  
ENDBRANCH   9  10
BRANCH   9  18
HETATM   18  C   UNL     1     -10.839  16.049  70.814  1.00  0.00    -0.076 C  
BRANCH  18  19
HETATM   19  N   UNL     1     -12.081  15.895  71.541  1.00  0.00    -0.441 NA 
HETATM   20  N   UNL     1     -14.195  15.362  71.933  1.00  0.00    -0.530 NA 
HETATM   21  C   UNL     1     -12.265  16.051  72.885  1.00  0.00    -0.517 A  
HETATM   22  C   UNL     1     -13.581  15.720  73.104  1.00  0.00    -0.504 A  
HETATM   23  C   UNL     1     -13.267  15.467  71.011  1.00  0.00    -0.496 A  
ENDBRANCH  18  19
ENDBRANCH   9  18
ENDBRANCH   8   9
ENDBRANCH   7   8
ENDBRANCH   3   7
TORSDOF 6
ENDMDL
MODEL       93
REMARK 921   NORMALIZED FREE ENERGY PREDICTED BY IDOCK:   -4.74 KCAL/MOL
REMARK 922        TOTAL FREE ENERGY PREDICTED BY IDOCK:   -7.45 KCAL/MOL
REMARK 923 INTER-LIGAND FREE ENERGY PREDICTED BY IDOCK:   -6.50 KCAL/MOL
REMARK 924 INTRA-LIGAND FREE ENERGY PREDICTED BY IDOCK:   -0.95 KCAL/MOL
REMARK 927      BINDING AFFINITY PREDICTED BY RF-SCORE:    0.00 PKD
ROOT
HETATM    1 CL   UNL     1     -10.260   4.790  70.442  1.00  0.00    -0.298 Cl 
HETATM    2  C   UNL     1     -10.034   6.116  71.517  1.00  0.00    -0.182 A  
HETATM    3  C   UNL     1      -9.831   7.436  71.177  1.00  0.00    -0.177 A  
HETATM    4  C   UNL     1      -9.735   8.232  72.374  1.00  0.00    -0.373 A  
HETATM    5  S   UNL     1     -10.073   5.824  73.185  1.00  0.00    -0.193 SA 
HETATM    6  C   UNL     1      -9.842   7.484  73.527  1.00  0.00    -0.317 A  
ENDROOT
BRANCH   3   7
HETATM    7  C   UNL     1      -9.774   7.975  69.778  1.00  0.00    -0.176 C  
BRANCH   7   8
HETATM    8  O   UNL     1     -10.952   8.719  69.469  1.00  0.00    -0.186 OA 
BRANCH   8   9
HETATM    9  C   UNL     1     -10.746  10.056  68.970  1.00  0.00    -0.220 C  
BRANCH   9  10
HETATM   10  C   UNL     1     -11.519  11.040  69.862  1.00  0.00    -0.400 A  
HETATM   11  C   UNL     1     -13.060  11.411  71.736  1.00  0.00    -0.523 A  
HETATM   12  C   UNL     1     -11.495  12.436  69.670  1.00  0.00    -0.194 A  
HETATM   13  C   UNL     1     -12.301  10.554  70.933  1.00  0.00    -0.490 A  
HETATM   14 CL   UNL     1     -10.471  13.196  68.502  1.00  0.00    -0.259 Cl 
HETATM   15 CL   UNL     1     -14.023  13.827  72.442  1.00  0.00    -0.657 Cl 
HETATM   16  C   UNL     1     -12.283  13.292  70.451  1.00  0.00    -0.404 A  
HETATM   17  C   UNL     1     -13.064  12.774  71.477  1.00  0.00    -0.286 A  
ENDBRANCH   9  10
BRANCH   9  18
HETATM   18  C   UNL     1     -11.114  10.149  67.468  1.00  0.00    -0.181 C  
BRANCH  18  19
HETATM   19  N   UNL     1      -9.979  10.233  66.574  1.00  0.00    -0.215 NA 
HETATM   20  N   UNL     1      -8.849  10.458  64.682  1.00  0.00    -0.188 NA 
HETATM   21  C   UNL     1      -8.665  10.337  66.930  1.00  0.00    -0.126 A  
HETATM   22  C   UNL     1      -7.984  10.471  65.744  1.00  0.00    -0.158 A  
HETATM   23  C   UNL     1     -10.042  10.324  65.210  1.00  0.00    -0.289 A  
ENDBRANCH  18  19
ENDBRANCH   9  18
ENDBRANCH   8   9
ENDBRANCH   7   8
ENDBRANCH   3   7
TORSDOF 6
ENDMDL
MODEL       94
REMARK 921   NORMALIZED FREE ENERGY PREDICTED BY IDOCK:   -4.74 KCAL/MOL
REMARK 922        TOTAL FREE ENERGY PREDICTED BY IDOCK:   -7.44 KCAL/MOL
REMARK 923 INTER-LIGAND FREE ENERGY PREDICTED BY IDOCK:   -7.41 KCAL/MOL
REMARK 924 INTRA-LIGAND FREE ENERGY PREDICTED BY IDOCK:   -0.03 KCAL/MOL
REMARK 927      BINDING AFFINITY PREDICTED BY RF-SCORE:    0.00 PKD
ROOT
HETATM    1 CL   UNL     1     -11.622  15.994  70.811  1.00  0.00    -0.422 Cl 
HETATM    2  C   UNL     1     -12.291  14.435  71.108  1.00  0.00    -0.358 A  
HETATM    3  C   UNL     1     -12.069  13.284  70.383  1.00  0.00    -0.401 A  
HETATM    4  C   UNL     1     -12.780  12.188  70.990  1.00  0.00    -0.322 A  
HETATM    5  S   UNL     1     -13.326  14.235  72.433  1.00  0.00    -0.515 SA 
HETATM    6  C   UNL     1     -13.504  12.567  72.101  1.00  0.00    -0.422 A  
ENDROOT
BRANCH   3   7
HETATM    7  C   UNL     1     -11.182  13.172  69.178  1.00  0.00    -0.247 C  
BRANCH   7   8
HETATM    8  O   UNL     1     -10.582  14.429  68.867  1.00  0.00    -0.239 OA 
BRANCH   8   9
HETATM    9  C   UNL     1     -10.138  14.601  67.507  1.00  0.00    -0.224 C  
BRANCH   9  10
HETATM   10  C   UNL     1      -8.960  15.588  67.494  1.00  0.00    -0.196 A  
HETATM   11  C   UNL     1      -6.548  15.978  67.262  1.00  0.00    -0.219 A  
HETATM   12  C   UNL     1      -9.109  16.969  67.735  1.00  0.00    -0.228 A  
HETATM   13  C   UNL     1      -7.653  15.122  67.232  1.00  0.00    -0.236 A  
HETATM   14 CL   UNL     1     -10.657  17.718  67.922  1.00  0.00    -0.399 Cl 
HETATM   15 CL   UNL     1      -5.363  18.369  67.639  1.00  0.00    -0.154 Cl 
HETATM   16  C   UNL     1      -7.999  17.821  67.802  1.00  0.00    -0.225 A  
HETATM   17  C   UNL     1      -6.724  17.320  67.568  1.00  0.00    -0.148 A  
ENDBRANCH   9  10
BRANCH   9  18
HETATM   18  C   UNL     1     -11.315  15.018  66.589  1.00  0.00    -0.289 C  
BRANCH  18  19
HETATM   19  N   UNL     1     -11.667  14.041  65.581  1.00  0.00    -0.342 NA 
HETATM   20  N   UNL     1     -12.799  12.425  64.574  1.00  0.00    -0.764 NA 
HETATM   21  C   UNL     1     -11.127  13.925  64.333  1.00  0.00    -0.319 A  
HETATM   22  C   UNL     1     -11.839  12.916  63.729  1.00  0.00    -0.504 A  
HETATM   23  C   UNL     1     -12.679  13.125  65.677  1.00  0.00    -0.233 A  
ENDBRANCH  18  19
ENDBRANCH   9  18
ENDBRANCH   8   9
ENDBRANCH   7   8
ENDBRANCH   3   7
TORSDOF 6
ENDMDL
MODEL       95
REMARK 921   NORMALIZED FREE ENERGY PREDICTED BY IDOCK:   -4.73 KCAL/MOL
REMARK 922        TOTAL FREE ENERGY PREDICTED BY IDOCK:   -7.43 KCAL/MOL
REMARK 923 INTER-LIGAND FREE ENERGY PREDICTED BY IDOCK:   -6.62 KCAL/MOL
REMARK 924 INTRA-LIGAND FREE ENERGY PREDICTED BY IDOCK:   -0.81 KCAL/MOL
REMARK 927      BINDING AFFINITY PREDICTED BY RF-SCORE:    0.00 PKD
ROOT
HETATM    1 CL   UNL     1      -5.601  12.179  67.377  1.00  0.00    -0.115 Cl 
HETATM    2  C   UNL     1      -7.208  11.618  67.642  1.00  0.00    -0.107 A  
HETATM    3  C   UNL     1      -8.287  12.360  68.070  1.00  0.00    -0.170 A  
HETATM    4  C   UNL     1      -9.459  11.523  68.118  1.00  0.00    -0.184 A  
HETATM    5  S   UNL     1      -7.557   9.988  67.344  1.00  0.00    -0.091 SA 
HETATM    6  C   UNL     1      -9.201  10.218  67.757  1.00  0.00    -0.141 A  
ENDROOT
BRANCH   3   7
HETATM    7  C   UNL     1      -8.264  13.827  68.385  1.00  0.00    -0.151 C  
BRANCH   7   8
HETATM    8  O   UNL     1      -9.190  14.540  67.566  1.00  0.00    -0.185 OA 
BRANCH   8   9
HETATM    9  C   UNL     1      -9.860  15.655  68.186  1.00  0.00    -0.212 C  
BRANCH   9  10
HETATM   10  C   UNL     1     -10.846  15.116  69.234  1.00  0.00    -0.255 A  
HETATM   11  C   UNL     1     -11.650  15.104  71.553  1.00  0.00    -0.443 A  
HETATM   12  C   UNL     1     -11.817  14.136  68.945  1.00  0.00    -0.347 A  
HETATM   13  C   UNL     1     -10.804  15.605  70.558  1.00  0.00    -0.347 A  
HETATM   14 CL   UNL     1     -12.096  13.547  67.343  1.00  0.00    -0.391 Cl 
HETATM   15 CL   UNL     1     -13.566  13.450  72.478  1.00  0.00    -0.687 Cl 
HETATM   16  C   UNL     1     -12.639  13.607  69.949  1.00  0.00    -0.116 A  
HETATM   17  C   UNL     1     -12.549  14.092  71.248  1.00  0.00    -0.367 A  
ENDBRANCH   9  10
BRANCH   9  18
HETATM   18  C   UNL     1     -10.514  16.570  67.121  1.00  0.00    -0.300 C  
BRANCH  18  19
HETATM   19  N   UNL     1     -10.202  17.977  67.262  1.00  0.00    -0.348 NA 
HETATM   20  N   UNL     1      -9.976  20.110  66.710  1.00  0.00    -0.449 NA 
HETATM   21  C   UNL     1      -9.915  18.637  68.422  1.00  0.00    -0.387 A  
HETATM   22  C   UNL     1      -9.775  19.955  68.056  1.00  0.00    -0.393 A  
HETATM   23  C   UNL     1     -10.241  18.907  66.259  1.00  0.00    -0.438 A  
ENDBRANCH  18  19
ENDBRANCH   9  18
ENDBRANCH   8   9
ENDBRANCH   7   8
ENDBRANCH   3   7
TORSDOF 6
ENDMDL
MODEL       96
REMARK 921   NORMALIZED FREE ENERGY PREDICTED BY IDOCK:   -4.73 KCAL/MOL
REMARK 922        TOTAL FREE ENERGY PREDICTED BY IDOCK:   -7.43 KCAL/MOL
REMARK 923 INTER-LIGAND FREE ENERGY PREDICTED BY IDOCK:   -6.69 KCAL/MOL
REMARK 924 INTRA-LIGAND FREE ENERGY PREDICTED BY IDOCK:   -0.73 KCAL/MOL
REMARK 927      BINDING AFFINITY PREDICTED BY RF-SCORE:    0.00 PKD
ROOT
HETATM    1 CL   UNL     1      -8.990   8.978  70.854  1.00  0.00    -0.275 Cl 
HETATM    2  C   UNL     1     -10.661   9.384  70.953  1.00  0.00    -0.323 A  
HETATM    3  C   UNL     1     -11.334  10.320  70.199  1.00  0.00    -0.388 A  
HETATM    4  C   UNL     1     -12.729  10.319  70.561  1.00  0.00    -0.325 A  
HETATM    5  S   UNL     1     -11.632   8.561  72.070  1.00  0.00    -0.383 SA 
HETATM    6  C   UNL     1     -13.022   9.419  71.565  1.00  0.00    -0.371 A  
ENDROOT
BRANCH   3   7
HETATM    7  C   UNL     1     -10.726  11.175  69.125  1.00  0.00    -0.221 C  
BRANCH   7   8
HETATM    8  O   UNL     1      -9.875  10.402  68.279  1.00  0.00    -0.149 OA 
BRANCH   8   9
HETATM    9  C   UNL     1     -10.280  10.295  66.900  1.00  0.00    -0.230 C  
BRANCH   9  10
HETATM   10  C   UNL     1      -9.595   9.066  66.280  1.00  0.00    -0.327 A  
HETATM   11  C   UNL     1      -8.093   8.134  64.578  1.00  0.00    -0.142 A  
HETATM   12  C   UNL     1      -9.816   7.750  66.734  1.00  0.00    -0.241 A  
HETATM   13  C   UNL     1      -8.697   9.229  65.203  1.00  0.00    -0.216 A  
HETATM   14 CL   UNL     1     -10.767   7.397  68.135  1.00  0.00    -0.206 Cl 
HETATM   15 CL   UNL     1      -7.670   5.496  64.220  1.00  0.00    -0.085 Cl 
HETATM   16  C   UNL     1      -9.240   6.649  66.085  1.00  0.00    -0.120 A  
HETATM   17  C   UNL     1      -8.385   6.847  65.009  1.00  0.00    -0.049 A  
ENDBRANCH   9  10
BRANCH   9  18
HETATM   18  C   UNL     1     -10.006  11.616  66.138  1.00  0.00    -0.221 C  
BRANCH  18  19
HETATM   19  N   UNL     1     -11.025  11.979  65.177  1.00  0.00    -0.302 NA 
HETATM   20  N   UNL     1     -12.849  12.933  64.357  1.00  0.00    -0.725 NA 
HETATM   21  C   UNL     1     -10.994  11.754  63.831  1.00  0.00    -0.407 A  
HETATM   22  C   UNL     1     -12.135  12.349  63.345  1.00  0.00    -0.524 A  
HETATM   23  C   UNL     1     -12.154  12.703  65.446  1.00  0.00    -0.462 A  
ENDBRANCH  18  19
ENDBRANCH   9  18
ENDBRANCH   8   9
ENDBRANCH   7   8
ENDBRANCH   3   7
TORSDOF 6
ENDMDL
MODEL       97
REMARK 921   NORMALIZED FREE ENERGY PREDICTED BY IDOCK:   -4.70 KCAL/MOL
REMARK 922        TOTAL FREE ENERGY PREDICTED BY IDOCK:   -7.39 KCAL/MOL
REMARK 923 INTER-LIGAND FREE ENERGY PREDICTED BY IDOCK:   -6.65 KCAL/MOL
REMARK 924 INTRA-LIGAND FREE ENERGY PREDICTED BY IDOCK:   -0.74 KCAL/MOL
REMARK 927      BINDING AFFINITY PREDICTED BY RF-SCORE:    0.00 PKD
ROOT
HETATM    1 CL   UNL     1      -6.069  17.523  68.860  1.00  0.00    -0.186 Cl 
HETATM    2  C   UNL     1      -7.725  17.941  68.638  1.00  0.00    -0.289 A  
HETATM    3  C   UNL     1      -8.810  17.093  68.690  1.00  0.00    -0.266 A  
HETATM    4  C   UNL     1     -10.022  17.848  68.498  1.00  0.00    -0.379 A  
HETATM    5  S   UNL     1      -8.120  19.559  68.337  1.00  0.00    -0.327 SA 
HETATM    6  C   UNL     1      -9.790  19.191  68.289  1.00  0.00    -0.390 A  
ENDROOT
BRANCH   3   7
HETATM    7  C   UNL     1      -8.750  15.618  68.962  1.00  0.00    -0.240 C  
BRANCH   7   8
HETATM    8  O   UNL     1      -9.436  14.884  67.949  1.00  0.00    -0.196 OA 
BRANCH   8   9
HETATM    9  C   UNL     1     -10.481  14.000  68.403  1.00  0.00    -0.253 C  
BRANCH   9  10
HETATM   10  C   UNL     1     -10.080  12.554  68.072  1.00  0.00    -0.220 A  
HETATM   11  C   UNL     1      -8.757  10.999  66.710  1.00  0.00    -0.152 A  
HETATM   12  C   UNL     1     -10.637  11.433  68.720  1.00  0.00    -0.204 A  
HETATM   13  C   UNL     1      -9.112  12.301  67.076  1.00  0.00    -0.201 A  
HETATM   14 CL   UNL     1     -11.720  11.577  70.061  1.00  0.00    -0.409 Cl 
HETATM   15 CL   UNL     1      -8.964   8.316  66.852  1.00  0.00    -0.157 Cl 
HETATM   16  C   UNL     1     -10.309  10.128  68.329  1.00  0.00    -0.215 A  
HETATM   17  C   UNL     1      -9.373   9.918  67.324  1.00  0.00    -0.145 A  
ENDBRANCH   9  10
BRANCH   9  18
HETATM   18  C   UNL     1     -11.853  14.420  67.820  1.00  0.00    -0.368 C  
BRANCH  18  19
HETATM   19  N   UNL     1     -11.962  14.290  66.382  1.00  0.00    -0.418 NA 
HETATM   20  N   UNL     1     -12.712  13.587  64.420  1.00  0.00    -0.658 NA 
HETATM   21  C   UNL     1     -11.350  15.071  65.444  1.00  0.00    -0.328 A  
HETATM   22  C   UNL     1     -11.825  14.614  64.237  1.00  0.00    -0.337 A  
HETATM   23  C   UNL     1     -12.782  13.418  65.720  1.00  0.00    -0.318 A  
ENDBRANCH  18  19
ENDBRANCH   9  18
ENDBRANCH   8   9
ENDBRANCH   7   8
ENDBRANCH   3   7
TORSDOF 6
ENDMDL
MODEL       98
REMARK 921   NORMALIZED FREE ENERGY PREDICTED BY IDOCK:   -4.70 KCAL/MOL
REMARK 922        TOTAL FREE ENERGY PREDICTED BY IDOCK:   -7.39 KCAL/MOL
REMARK 923 INTER-LIGAND FREE ENERGY PREDICTED BY IDOCK:   -6.83 KCAL/MOL
REMARK 924 INTRA-LIGAND FREE ENERGY PREDICTED BY IDOCK:   -0.56 KCAL/MOL
REMARK 927      BINDING AFFINITY PREDICTED BY RF-SCORE:    0.00 PKD
ROOT
HETATM    1 CL   UNL     1      -9.973   9.240  66.278  1.00  0.00    -0.357 Cl 
HETATM    2  C   UNL     1      -9.913  10.288  64.912  1.00  0.00    -0.323 A  
HETATM    3  C   UNL     1     -10.615  11.460  64.732  1.00  0.00    -0.377 A  
HETATM    4  C   UNL     1     -10.242  12.057  63.475  1.00  0.00    -0.477 A  
HETATM    5  S   UNL     1      -8.881   9.891  63.630  1.00  0.00    -0.253 SA 
HETATM    6  C   UNL     1      -9.319  11.307  62.778  1.00  0.00    -0.332 A  
ENDROOT
BRANCH   3   7
HETATM    7  C   UNL     1     -11.579  12.057  65.716  1.00  0.00    -0.290 C  
BRANCH   7   8
HETATM    8  O   UNL     1     -11.557  11.342  66.951  1.00  0.00    -0.464 OA 
BRANCH   8   9
HETATM    9  C   UNL     1     -11.303  12.126  68.133  1.00  0.00    -0.293 C  
BRANCH   9  10
HETATM   10  C   UNL     1      -9.965  12.861  67.959  1.00  0.00    -0.236 A  
HETATM   11  C   UNL     1      -7.520  12.758  67.779  1.00  0.00    -0.135 A  
HETATM   12  C   UNL     1      -9.863  14.263  67.866  1.00  0.00    -0.226 A  
HETATM   13  C   UNL     1      -8.762  12.126  67.886  1.00  0.00    -0.176 A  
HETATM   14 CL   UNL     1     -11.250  15.294  67.789  1.00  0.00    -0.320 Cl 
HETATM   15 CL   UNL     1      -5.923  14.926  67.659  1.00  0.00    -0.124 Cl 
HETATM   16  C   UNL     1      -8.617  14.901  67.796  1.00  0.00    -0.171 A  
HETATM   17  C   UNL     1      -7.452  14.144  67.756  1.00  0.00    -0.165 A  
ENDBRANCH   9  10
BRANCH   9  18
HETATM   18  C   UNL     1     -11.375  11.246  69.406  1.00  0.00    -0.292 C  
BRANCH  18  19
HETATM   19  N   UNL     1     -12.148  11.816  70.489  1.00  0.00    -0.374 NA 
HETATM   20  N   UNL     1     -13.174  13.352  71.713  1.00  0.00    -0.404 NA 
HETATM   21  C   UNL     1     -12.856  11.132  71.435  1.00  0.00    -0.439 A  
HETATM   22  C   UNL     1     -13.479  12.102  72.184  1.00  0.00    -0.278 A  
HETATM   23  C   UNL     1     -12.380  13.150  70.688  1.00  0.00    -0.326 A  
ENDBRANCH  18  19
ENDBRANCH   9  18
ENDBRANCH   8   9
ENDBRANCH   7   8
ENDBRANCH   3   7
TORSDOF 6
ENDMDL
MODEL       99
REMARK 921   NORMALIZED FREE ENERGY PREDICTED BY IDOCK:   -4.70 KCAL/MOL
REMARK 922        TOTAL FREE ENERGY PREDICTED BY IDOCK:   -7.39 KCAL/MOL
REMARK 923 INTER-LIGAND FREE ENERGY PREDICTED BY IDOCK:   -6.92 KCAL/MOL
REMARK 924 INTRA-LIGAND FREE ENERGY PREDICTED BY IDOCK:   -0.47 KCAL/MOL
REMARK 927      BINDING AFFINITY PREDICTED BY RF-SCORE:    0.00 PKD
ROOT
HETATM    1 CL   UNL     1      -6.345  16.356  69.786  1.00  0.00    -0.211 Cl 
HETATM    2  C   UNL     1      -6.644  14.689  69.474  1.00  0.00    -0.149 A  
HETATM    3  C   UNL     1      -7.594  14.160  68.627  1.00  0.00    -0.126 A  
HETATM    4  C   UNL     1      -7.484  12.723  68.617  1.00  0.00    -0.092 A  
HETATM    5  S   UNL     1      -5.684  13.532  70.253  1.00  0.00    -0.160 SA 
HETATM    6  C   UNL     1      -6.495  12.255  69.457  1.00  0.00    -0.094 A  
ENDROOT
BRANCH   3   7
HETATM    7  C   UNL     1      -8.561  14.954  67.799  1.00  0.00    -0.167 C  
BRANCH   7   8
HETATM    8  O   UNL     1      -9.596  15.506  68.611  1.00  0.00    -0.190 OA 
BRANCH   8   9
HETATM    9  C   UNL     1     -10.811  14.736  68.701  1.00  0.00    -0.253 C  
BRANCH   9  10
HETATM   10  C   UNL     1     -11.168  14.213  67.300  1.00  0.00    -0.330 A  
HETATM   11  C   UNL     1     -11.464  14.658  64.905  1.00  0.00    -0.401 A  
HETATM   12  C   UNL     1     -11.572  12.886  67.053  1.00  0.00    -0.362 A  
HETATM   13  C   UNL     1     -11.099  15.079  66.187  1.00  0.00    -0.329 A  
HETATM   14 CL   UNL     1     -11.563  11.667  68.281  1.00  0.00    -0.363 Cl 
HETATM   15 CL   UNL     1     -12.403  12.850  63.140  1.00  0.00    -0.441 Cl 
HETATM   16  C   UNL     1     -11.973  12.472  65.776  1.00  0.00    -0.482 A  
HETATM   17  C   UNL     1     -11.920  13.362  64.710  1.00  0.00    -0.390 A  
ENDBRANCH   9  10
BRANCH   9  18
HETATM   18  C   UNL     1     -11.940  15.558  69.371  1.00  0.00    -0.336 C  
BRANCH  18  19
HETATM   19  N   UNL     1     -12.527  14.937  70.538  1.00  0.00    -0.341 NA 
HETATM   20  N   UNL     1     -13.074  13.346  71.980  1.00  0.00    -0.380 NA 
HETATM   21  C   UNL     1     -13.087  15.575  71.608  1.00  0.00    -0.481 A  
HETATM   22  C   UNL     1     -13.423  14.571  72.485  1.00  0.00    -0.483 A  
HETATM   23  C   UNL     1     -12.530  13.597  70.813  1.00  0.00    -0.359 A  
ENDBRANCH  18  19
ENDBRANCH   9  18
ENDBRANCH   8   9
ENDBRANCH   7   8
ENDBRANCH   3   7
TORSDOF 6
ENDMDL
MODEL      100
REMARK 921   NORMALIZED FREE ENERGY PREDICTED BY IDOCK:   -4.70 KCAL/MOL
REMARK 922        TOTAL FREE ENERGY PREDICTED BY IDOCK:   -7.39 KCAL/MOL
REMARK 923 INTER-LIGAND FREE ENERGY PREDICTED BY IDOCK:   -6.94 KCAL/MOL
REMARK 924 INTRA-LIGAND FREE ENERGY PREDICTED BY IDOCK:   -0.45 KCAL/MOL
REMARK 927      BINDING AFFINITY PREDICTED BY RF-SCORE:    0.00 PKD
ROOT
HETATM    1 CL   UNL     1     -11.915  15.187  69.455  1.00  0.00    -0.349 Cl 
HETATM    2  C   UNL     1     -12.332  13.758  70.322  1.00  0.00    -0.337 A  
HETATM    3  C   UNL     1     -12.161  12.455  69.907  1.00  0.00    -0.227 A  
HETATM    4  C   UNL     1     -12.597  11.558  70.947  1.00  0.00    -0.438 A  
HETATM    5  S   UNL     1     -13.014  13.915  71.864  1.00  0.00    -0.350 SA 
HETATM    6  C   UNL     1     -13.087  12.217  72.055  1.00  0.00    -0.355 A  
ENDROOT
BRANCH   3   7
HETATM    7  C   UNL     1     -11.563  12.030  68.598  1.00  0.00    -0.319 C  
BRANCH   7   8
HETATM    8  O   UNL     1     -10.266  12.599  68.421  1.00  0.00    -0.230 OA 
BRANCH   8   9
HETATM    9  C   UNL     1      -9.816  12.741  67.059  1.00  0.00    -0.231 C  
BRANCH   9  10
HETATM   10  C   UNL     1      -9.573  14.232  66.774  1.00  0.00    -0.290 A  
HETATM   11  C   UNL     1      -8.044  16.151  66.788  1.00  0.00    -0.305 A  
HETATM   12  C   UNL     1     -10.577  15.099  66.300  1.00  0.00    -0.310 A  
HETATM   13  C   UNL     1      -8.293  14.790  66.987  1.00  0.00    -0.228 A  
HETATM   14 CL   UNL     1     -12.151  14.541  65.848  1.00  0.00    -0.329 Cl 
HETATM   15 CL   UNL     1      -8.778  18.670  66.172  1.00  0.00    -0.218 Cl 
HETATM   16  C   UNL     1     -10.338  16.470  66.136  1.00  0.00    -0.344 A  
HETATM   17  C   UNL     1      -9.073  16.989  66.384  1.00  0.00    -0.270 A  
ENDBRANCH   9  10
BRANCH   9  18
HETATM   18  C   UNL     1     -10.805  12.068  66.076  1.00  0.00    -0.289 C  
BRANCH  18  19
HETATM   19  N   UNL     1     -10.182  11.433  64.934  1.00  0.00    -0.261 NA 
HETATM   20  N   UNL     1      -9.562  11.107  62.833  1.00  0.00    -0.349 NA 
HETATM   21  C   UNL     1      -9.297  10.394  64.960  1.00  0.00    -0.229 A  
HETATM   22  C   UNL     1      -8.930  10.207  63.649  1.00  0.00    -0.247 A  
HETATM   23  C   UNL     1     -10.301  11.838  63.633  1.00  0.00    -0.434 A  
ENDBRANCH  18  19
ENDBRANCH   9  18
ENDBRANCH   8   9
ENDBRANCH   7   8
ENDBRANCH   3   7
TORSDOF 6
ENDMDL
MODEL      101
REMARK 921   NORMALIZED FREE ENERGY PREDICTED BY IDOCK:   -4.69 KCAL/MOL
REMARK 922        TOTAL FREE ENERGY PREDICTED BY IDOCK:   -7.38 KCAL/MOL
REMARK 923 INTER-LIGAND FREE ENERGY PREDICTED BY IDOCK:   -6.78 KCAL/MOL
REMARK 924 INTRA-LIGAND FREE ENERGY PREDICTED BY IDOCK:   -0.60 KCAL/MOL
REMARK 927      BINDING AFFINITY PREDICTED BY RF-SCORE:    0.00 PKD
ROOT
HETATM    1 CL   UNL     1     -11.299  16.704  70.986  1.00  0.00    -0.105 Cl 
HETATM    2  C   UNL     1     -12.118  15.285  71.520  1.00  0.00    -0.359 A  
HETATM    3  C   UNL     1     -12.500  14.208  70.751  1.00  0.00    -0.436 A  
HETATM    4  C   UNL     1     -13.115  13.211  71.590  1.00  0.00    -0.444 A  
HETATM    5  S   UNL     1     -12.505  15.141  73.162  1.00  0.00    -0.479 SA 
HETATM    6  C   UNL     1     -13.187  13.593  72.913  1.00  0.00    -0.138 A  
ENDROOT
BRANCH   3   7
HETATM    7  C   UNL     1     -12.264  14.063  69.276  1.00  0.00    -0.278 C  
BRANCH   7   8
HETATM    8  O   UNL     1     -10.887  14.266  68.957  1.00  0.00    -0.247 OA 
BRANCH   8   9
HETATM    9  C   UNL     1     -10.617  14.931  67.707  1.00  0.00    -0.262 C  
BRANCH   9  10
HETATM   10  C   UNL     1     -10.424  13.867  66.615  1.00  0.00    -0.272 A  
HETATM   11  C   UNL     1     -11.086  12.947  64.439  1.00  0.00    -0.395 A  
HETATM   12  C   UNL     1      -9.499  12.810  66.725  1.00  0.00    -0.243 A  
HETATM   13  C   UNL     1     -11.195  13.923  65.434  1.00  0.00    -0.306 A  
HETATM   14 CL   UNL     1      -8.378  12.687  68.037  1.00  0.00    -0.166 Cl 
HETATM   15 CL   UNL     1     -10.100  10.662  63.403  1.00  0.00    -0.338 Cl 
HETATM   16  C   UNL     1      -9.415  11.811  65.746  1.00  0.00    -0.232 A  
HETATM   17  C   UNL     1     -10.212  11.883  64.610  1.00  0.00    -0.278 A  
ENDBRANCH   9  10
BRANCH   9  18
HETATM   18  C   UNL     1      -9.423  15.909  67.848  1.00  0.00    -0.213 C  
BRANCH  18  19
HETATM   19  N   UNL     1      -9.684  17.250  67.368  1.00  0.00    -0.253 NA 
HETATM   20  N   UNL     1     -10.734  19.181  67.097  1.00  0.00    -0.471 NA 
HETATM   21  C   UNL     1      -8.815  18.060  66.695  1.00  0.00    -0.266 A  
HETATM   22  C   UNL     1      -9.488  19.248  66.534  1.00  0.00    -0.357 A  
HETATM   23  C   UNL     1     -10.823  17.973  67.600  1.00  0.00    -0.239 A  
ENDBRANCH  18  19
ENDBRANCH   9  18
ENDBRANCH   8   9
ENDBRANCH   7   8
ENDBRANCH   3   7
TORSDOF 6
ENDMDL
MODEL      102
REMARK 921   NORMALIZED FREE ENERGY PREDICTED BY IDOCK:   -4.67 KCAL/MOL
REMARK 922        TOTAL FREE ENERGY PREDICTED BY IDOCK:   -7.35 KCAL/MOL
REMARK 923 INTER-LIGAND FREE ENERGY PREDICTED BY IDOCK:   -6.49 KCAL/MOL
REMARK 924 INTRA-LIGAND FREE ENERGY PREDICTED BY IDOCK:   -0.87 KCAL/MOL
REMARK 927      BINDING AFFINITY PREDICTED BY RF-SCORE:    0.00 PKD
ROOT
HETATM    1 CL   UNL     1     -10.597  19.518  66.544  1.00  0.00    -0.565 Cl 
HETATM    2  C   UNL     1      -9.454  18.685  67.527  1.00  0.00    -0.291 A  
HETATM    3  C   UNL     1      -9.515  17.373  67.941  1.00  0.00    -0.265 A  
HETATM    4  C   UNL     1      -8.338  17.055  68.710  1.00  0.00    -0.237 A  
HETATM    5  S   UNL     1      -8.079  19.520  68.057  1.00  0.00    -0.318 SA 
HETATM    6  C   UNL     1      -7.484  18.128  68.853  1.00  0.00    -0.234 A  
ENDROOT
BRANCH   3   7
HETATM    7  C   UNL     1     -10.608  16.402  67.601  1.00  0.00    -0.313 C  
BRANCH   7   8
HETATM    8  O   UNL     1     -10.111  15.065  67.567  1.00  0.00    -0.227 OA 
BRANCH   8   9
HETATM    9  C   UNL     1     -10.657  14.160  68.547  1.00  0.00    -0.252 C  
BRANCH   9  10
HETATM   10  C   UNL     1     -10.309  12.720  68.135  1.00  0.00    -0.243 A  
HETATM   11  C   UNL     1     -11.063  10.516  67.362  1.00  0.00    -0.322 A  
HETATM   12  C   UNL     1      -8.998  12.205  68.169  1.00  0.00    -0.195 A  
HETATM   13  C   UNL     1     -11.329  11.847  67.697  1.00  0.00    -0.372 A  
HETATM   14 CL   UNL     1      -7.622  13.186  68.536  1.00  0.00    -0.129 Cl 
HETATM   15 CL   UNL     1      -9.445   8.377  67.093  1.00  0.00    -0.193 Cl 
HETATM   16  C   UNL     1      -8.736  10.861  67.869  1.00  0.00    -0.131 A  
HETATM   17  C   UNL     1      -9.770  10.024  67.471  1.00  0.00    -0.159 A  
ENDBRANCH   9  10
BRANCH   9  18
HETATM   18  C   UNL     1     -12.173  14.407  68.744  1.00  0.00    -0.165 C  
BRANCH  18  19
HETATM   19  N   UNL     1     -12.601  14.453  70.126  1.00  0.00    -0.332 NA 
HETATM   20  N   UNL     1     -13.050  13.745  72.177  1.00  0.00    -0.395 NA 
HETATM   21  C   UNL     1     -12.876  15.572  70.859  1.00  0.00    -0.477 A  
HETATM   22  C   UNL     1     -13.155  15.109  72.123  1.00  0.00    -0.363 A  
HETATM   23  C   UNL     1     -12.706  13.377  70.965  1.00  0.00    -0.307 A  
ENDBRANCH  18  19
ENDBRANCH   9  18
ENDBRANCH   8   9
ENDBRANCH   7   8
ENDBRANCH   3   7
TORSDOF 6
ENDMDL
MODEL      103
REMARK 921   NORMALIZED FREE ENERGY PREDICTED BY IDOCK:   -4.67 KCAL/MOL
REMARK 922        TOTAL FREE ENERGY PREDICTED BY IDOCK:   -7.35 KCAL/MOL
REMARK 923 INTER-LIGAND FREE ENERGY PREDICTED BY IDOCK:   -6.47 KCAL/MOL
REMARK 924 INTRA-LIGAND FREE ENERGY PREDICTED BY IDOCK:   -0.88 KCAL/MOL
REMARK 927      BINDING AFFINITY PREDICTED BY RF-SCORE:    0.00 PKD
ROOT
HETATM    1 CL   UNL     1      -9.935  10.912  62.949  1.00  0.00    -0.305 Cl 
HETATM    2  C   UNL     1     -10.951  11.742  64.065  1.00  0.00    -0.384 A  
HETATM    3  C   UNL     1     -10.901  11.679  65.440  1.00  0.00    -0.336 A  
HETATM    4  C   UNL     1     -11.894  12.561  66.000  1.00  0.00    -0.478 A  
HETATM    5  S   UNL     1     -12.149  12.774  63.458  1.00  0.00    -0.532 SA 
HETATM    6  C   UNL     1     -12.641  13.207  65.038  1.00  0.00    -0.438 A  
ENDROOT
BRANCH   3   7
HETATM    7  C   UNL     1      -9.927  10.863  66.239  1.00  0.00    -0.227 C  
BRANCH   7   8
HETATM    8  O   UNL     1      -9.785  11.386  67.559  1.00  0.00    -0.176 OA 
BRANCH   8   9
HETATM    9  C   UNL     1      -9.219  10.493  68.538  1.00  0.00    -0.168 C  
BRANCH   9  10
HETATM   10  C   UNL     1     -10.307  10.129  69.560  1.00  0.00    -0.263 A  
HETATM   11  C   UNL     1     -12.536  10.551  70.497  1.00  0.00    -0.433 A  
HETATM   12  C   UNL     1     -10.145   9.121  70.532  1.00  0.00    -0.235 A  
HETATM   13  C   UNL     1     -11.540  10.817  69.553  1.00  0.00    -0.375 A  
HETATM   14 CL   UNL     1      -8.759   8.087  70.578  1.00  0.00    -0.134 Cl 
HETATM   15 CL   UNL     1     -13.526   9.292  72.664  1.00  0.00    -0.455 Cl 
HETATM   16  C   UNL     1     -11.128   8.878  71.501  1.00  0.00    -0.397 A  
HETATM   17  C   UNL     1     -12.316   9.598  71.480  1.00  0.00    -0.390 A  
ENDBRANCH   9  10
BRANCH   9  18
HETATM   18  C   UNL     1      -7.943  11.102  69.172  1.00  0.00    -0.042 C  
BRANCH  18  19
HETATM   19  N   UNL     1      -6.932  11.507  68.219  1.00  0.00    -0.069 NA 
HETATM   20  N   UNL     1      -5.565  12.840  67.094  1.00  0.00    -0.345 NA 
HETATM   21  C   UNL     1      -6.114  10.685  67.498  1.00  0.00    -0.052 A  
HETATM   22  C   UNL     1      -5.280  11.532  66.806  1.00  0.00    -0.122 A  
HETATM   23  C   UNL     1      -6.556  12.796  67.953  1.00  0.00    -0.118 A  
ENDBRANCH  18  19
ENDBRANCH   9  18
ENDBRANCH   8   9
ENDBRANCH   7   8
ENDBRANCH   3   7
TORSDOF 6
ENDMDL
MODEL      104
REMARK 921   NORMALIZED FREE ENERGY PREDICTED BY IDOCK:   -4.65 KCAL/MOL
REMARK 922        TOTAL FREE ENERGY PREDICTED BY IDOCK:   -7.33 KCAL/MOL
REMARK 923 INTER-LIGAND FREE ENERGY PREDICTED BY IDOCK:   -6.54 KCAL/MOL
REMARK 924 INTRA-LIGAND FREE ENERGY PREDICTED BY IDOCK:   -0.79 KCAL/MOL
REMARK 927      BINDING AFFINITY PREDICTED BY RF-SCORE:    0.00 PKD
ROOT
HETATM    1 CL   UNL     1     -11.924  11.825  63.654  1.00  0.00    -0.544 Cl 
HETATM    2  C   UNL     1     -11.869  12.475  65.248  1.00  0.00    -0.413 A  
HETATM    3  C   UNL     1     -11.299  11.897  66.362  1.00  0.00    -0.400 A  
HETATM    4  C   UNL     1     -11.428  12.788  67.487  1.00  0.00    -0.390 A  
HETATM    5  S   UNL     1     -12.560  13.995  65.529  1.00  0.00    -0.460 SA 
HETATM    6  C   UNL     1     -12.095  13.954  67.174  1.00  0.00    -0.387 A  
ENDROOT
BRANCH   3   7
HETATM    7  C   UNL     1     -10.602  10.568  66.393  1.00  0.00    -0.149 C  
BRANCH   7   8
HETATM    8  O   UNL     1     -10.816   9.909  67.640  1.00  0.00    -0.274 OA 
BRANCH   8   9
HETATM    9  C   UNL     1      -9.642   9.377  68.286  1.00  0.00    -0.142 C  
BRANCH   9  10
HETATM   10  C   UNL     1      -9.558   7.870  67.993  1.00  0.00    -0.168 A  
HETATM   11  C   UNL     1     -10.695   5.783  67.383  1.00  0.00    -0.332 A  
HETATM   12  C   UNL     1      -8.361   7.133  68.088  1.00  0.00    -0.124 A  
HETATM   13  C   UNL     1     -10.718   7.162  67.609  1.00  0.00    -0.314 A  
HETATM   14 CL   UNL     1      -6.832   7.878  68.399  1.00  0.00    -0.069 Cl 
HETATM   15 CL   UNL     1      -9.487   3.374  67.306  1.00  0.00    -0.239 Cl 
HETATM   16  C   UNL     1      -8.344   5.745  67.898  1.00  0.00    -0.104 A  
HETATM   17  C   UNL     1      -9.511   5.077  67.550  1.00  0.00    -0.135 A  
ENDBRANCH   9  10
BRANCH   9  18
HETATM   18  C   UNL     1      -9.637   9.723  69.796  1.00  0.00    -0.230 C  
BRANCH  18  19
HETATM   19  N   UNL     1     -10.940   9.698  70.425  1.00  0.00    -0.275 NA 
HETATM   20  N   UNL     1     -12.689   8.903  71.527  1.00  0.00    -0.328 NA 
HETATM   21  C   UNL     1     -11.747  10.771  70.675  1.00  0.00    -0.342 A  
HETATM   22  C   UNL     1     -12.825  10.255  71.353  1.00  0.00    -0.441 A  
HETATM   23  C   UNL     1     -11.543   8.596  70.967  1.00  0.00    -0.281 A  
ENDBRANCH  18  19
ENDBRANCH   9  18
ENDBRANCH   8   9
ENDBRANCH   7   8
ENDBRANCH   3   7
TORSDOF 6
ENDMDL
MODEL      105
REMARK 921   NORMALIZED FREE ENERGY PREDICTED BY IDOCK:   -4.64 KCAL/MOL
REMARK 922        TOTAL FREE ENERGY PREDICTED BY IDOCK:   -7.32 KCAL/MOL
REMARK 923 INTER-LIGAND FREE ENERGY PREDICTED BY IDOCK:   -6.40 KCAL/MOL
REMARK 924 INTRA-LIGAND FREE ENERGY PREDICTED BY IDOCK:   -0.92 KCAL/MOL
REMARK 927      BINDING AFFINITY PREDICTED BY RF-SCORE:    0.00 PKD
ROOT
HETATM    1 CL   UNL     1     -11.588   6.454  70.447  1.00  0.00    -0.463 Cl 
HETATM    2  C   UNL     1     -12.451   7.710  71.252  1.00  0.00    -0.298 A  
HETATM    3  C   UNL     1     -12.016   8.995  71.490  1.00  0.00    -0.414 A  
HETATM    4  C   UNL     1     -13.058   9.742  72.148  1.00  0.00    -0.513 A  
HETATM    5  S   UNL     1     -14.014   7.387  71.816  1.00  0.00    -0.298 SA 
HETATM    6  C   UNL     1     -14.188   8.988  72.390  1.00  0.00    -0.339 A  
ENDROOT
BRANCH   3   7
HETATM    7  C   UNL     1     -10.685   9.555  71.079  1.00  0.00    -0.340 C  
BRANCH   7   8
HETATM    8  O   UNL     1     -10.572   9.611  69.658  1.00  0.00    -0.209 OA 
BRANCH   8   9
HETATM    9  C   UNL     1      -9.731  10.656  69.129  1.00  0.00    -0.189 C  
BRANCH   9  10
HETATM   10  C   UNL     1     -10.565  11.520  68.169  1.00  0.00    -0.226 A  
HETATM   11  C   UNL     1     -11.105  12.179  65.868  1.00  0.00    -0.360 A  
HETATM   12  C   UNL     1     -11.505  12.472  68.610  1.00  0.00    -0.306 A  
HETATM   13  C   UNL     1     -10.403  11.378  66.774  1.00  0.00    -0.271 A  
HETATM   14 CL   UNL     1     -11.927  12.661  70.276  1.00  0.00    -0.409 Cl 
HETATM   15 CL   UNL     1     -12.812  14.163  65.228  1.00  0.00    -0.447 Cl 
HETATM   16  C   UNL     1     -12.181  13.301  67.704  1.00  0.00    -0.181 A  
HETATM   17  C   UNL     1     -11.974  13.152  66.339  1.00  0.00    -0.402 A  
ENDBRANCH   9  10
BRANCH   9  18
HETATM   18  C   UNL     1      -8.450  10.065  68.490  1.00  0.00    -0.115 C  
BRANCH  18  19
HETATM   19  N   UNL     1      -8.488   8.634  68.277  1.00  0.00    -0.130 NA 
HETATM   20  N   UNL     1      -8.267   6.472  68.710  1.00  0.00    -0.118 NA 
HETATM   21  C   UNL     1      -9.068   7.979  67.229  1.00  0.00    -0.135 A  
HETATM   22  C   UNL     1      -8.915   6.643  67.516  1.00  0.00    -0.114 A  
HETATM   23  C   UNL     1      -8.029   7.686  69.151  1.00  0.00    -0.120 A  
ENDBRANCH  18  19
ENDBRANCH   9  18
ENDBRANCH   8   9
ENDBRANCH   7   8
ENDBRANCH   3   7
TORSDOF 6
ENDMDL
MODEL      106
REMARK 921   NORMALIZED FREE ENERGY PREDICTED BY IDOCK:   -4.64 KCAL/MOL
REMARK 922        TOTAL FREE ENERGY PREDICTED BY IDOCK:   -7.31 KCAL/MOL
REMARK 923 INTER-LIGAND FREE ENERGY PREDICTED BY IDOCK:   -6.08 KCAL/MOL
REMARK 924 INTRA-LIGAND FREE ENERGY PREDICTED BY IDOCK:   -1.24 KCAL/MOL
REMARK 927      BINDING AFFINITY PREDICTED BY RF-SCORE:    0.00 PKD
ROOT
HETATM    1 CL   UNL     1      -8.725  11.445  65.952  1.00  0.00    -0.149 Cl 
HETATM    2  C   UNL     1     -10.252  12.020  65.402  1.00  0.00    -0.263 A  
HETATM    3  C   UNL     1     -11.344  12.349  66.176  1.00  0.00    -0.398 A  
HETATM    4  C   UNL     1     -12.406  12.832  65.330  1.00  0.00    -0.528 A  
HETATM    5  S   UNL     1     -10.486  12.238  63.739  1.00  0.00    -0.449 SA 
HETATM    6  C   UNL     1     -12.075  12.817  63.992  1.00  0.00    -0.457 A  
ENDROOT
BRANCH   3   7
HETATM    7  C   UNL     1     -11.404  12.272  67.673  1.00  0.00    -0.311 C  
BRANCH   7   8
HETATM    8  O   UNL     1     -11.942  11.020  68.098  1.00  0.00    -0.610 OA 
BRANCH   8   9
HETATM    9  C   UNL     1     -11.174  10.301  69.083  1.00  0.00    -0.215 C  
BRANCH   9  10
HETATM   10  C   UNL     1     -10.255   9.304  68.359  1.00  0.00    -0.231 A  
HETATM   11  C   UNL     1      -9.951   7.629  66.591  1.00  0.00    -0.284 A  
HETATM   12  C   UNL     1      -8.923   9.061  68.750  1.00  0.00    -0.137 A  
HETATM   13  C   UNL     1     -10.737   8.581  67.246  1.00  0.00    -0.219 A  
HETATM   14 CL   UNL     1      -8.138   9.970  69.994  1.00  0.00    -0.188 Cl 
HETATM   15 CL   UNL     1      -7.707   6.172  66.263  1.00  0.00    -0.097 Cl 
HETATM   16  C   UNL     1      -8.146   8.080  68.118  1.00  0.00    -0.129 A  
HETATM   17  C   UNL     1      -8.665   7.368  67.045  1.00  0.00    -0.123 A  
ENDBRANCH   9  10
BRANCH   9  18
HETATM   18  C   UNL     1     -12.100   9.647  70.139  1.00  0.00     0.109 C  
BRANCH  18  19
HETATM   19  N   UNL     1     -11.480   8.594  70.915  1.00  0.00    -0.274 NA 
HETATM   20  N   UNL     1     -10.354   7.627  72.559  1.00  0.00    -0.232 NA 
HETATM   21  C   UNL     1     -11.625   7.250  70.729  1.00  0.00    -0.302 A  
HETATM   22  C   UNL     1     -10.916   6.671  71.755  1.00  0.00    -0.240 A  
HETATM   23  C   UNL     1     -10.717   8.774  72.036  1.00  0.00    -0.347 A  
ENDBRANCH  18  19
ENDBRANCH   9  18
ENDBRANCH   8   9
ENDBRANCH   7   8
ENDBRANCH   3   7
TORSDOF 6
ENDMDL
MODEL      107
REMARK 921   NORMALIZED FREE ENERGY PREDICTED BY IDOCK:   -4.61 KCAL/MOL
REMARK 922        TOTAL FREE ENERGY PREDICTED BY IDOCK:   -7.27 KCAL/MOL
REMARK 923 INTER-LIGAND FREE ENERGY PREDICTED BY IDOCK:   -6.39 KCAL/MOL
REMARK 924 INTRA-LIGAND FREE ENERGY PREDICTED BY IDOCK:   -0.88 KCAL/MOL
REMARK 927      BINDING AFFINITY PREDICTED BY RF-SCORE:    0.00 PKD
ROOT
HETATM    1 CL   UNL     1     -11.016   6.706  69.423  1.00  0.00    -0.336 Cl 
HETATM    2  C   UNL     1      -9.611   7.110  68.511  1.00  0.00    -0.139 A  
HETATM    3  C   UNL     1      -8.818   8.227  68.658  1.00  0.00    -0.133 A  
HETATM    4  C   UNL     1      -7.717   8.161  67.732  1.00  0.00    -0.110 A  
HETATM    5  S   UNL     1      -9.096   6.044  67.301  1.00  0.00    -0.111 SA 
HETATM    6  C   UNL     1      -7.752   7.036  66.935  1.00  0.00    -0.103 A  
ENDROOT
BRANCH   3   7
HETATM    7  C   UNL     1      -9.031   9.320  69.665  1.00  0.00    -0.160 C  
BRANCH   7   8
HETATM    8  O   UNL     1      -9.456  10.524  69.028  1.00  0.00    -0.187 OA 
BRANCH   8   9
HETATM    9  C   UNL     1     -10.880  10.733  68.952  1.00  0.00    -0.227 C  
BRANCH   9  10
HETATM   10  C   UNL     1     -11.174  11.705  67.798  1.00  0.00    -0.333 A  
HETATM   11  C   UNL     1     -11.995  13.894  67.053  1.00  0.00    -0.459 A  
HETATM   12  C   UNL     1     -10.976  11.374  66.443  1.00  0.00    -0.260 A  
HETATM   13  C   UNL     1     -11.668  12.999  68.075  1.00  0.00    -0.397 A  
HETATM   14 CL   UNL     1     -10.239   9.890  65.946  1.00  0.00    -0.307 Cl 
HETATM   15 CL   UNL     1     -12.284  14.598  64.467  1.00  0.00    -0.497 Cl 
HETATM   16  C   UNL     1     -11.339  12.256  65.416  1.00  0.00    -0.389 A  
HETATM   17  C   UNL     1     -11.850  13.510  65.727  1.00  0.00    -0.372 A  
ENDBRANCH   9  10
BRANCH   9  18
HETATM   18  C   UNL     1     -11.446  11.193  70.319  1.00  0.00    -0.237 C  
BRANCH  18  19
HETATM   19  N   UNL     1     -12.142  10.163  71.060  1.00  0.00    -0.345 NA 
HETATM   20  N   UNL     1     -13.804   8.857  71.723  1.00  0.00    -0.411 NA 
HETATM   21  C   UNL     1     -11.580   9.223  71.875  1.00  0.00    -0.334 A  
HETATM   22  C   UNL     1     -12.627   8.429  72.278  1.00  0.00    -0.349 A  
HETATM   23  C   UNL     1     -13.482   9.895  70.988  1.00  0.00    -0.193 A  
ENDBRANCH  18  19
ENDBRANCH   9  18
ENDBRANCH   8   9
ENDBRANCH   7   8
ENDBRANCH   3   7
TORSDOF 6
ENDMDL
MODEL      108
REMARK 921   NORMALIZED FREE ENERGY PREDICTED BY IDOCK:   -4.60 KCAL/MOL
REMARK 922        TOTAL FREE ENERGY PREDICTED BY IDOCK:   -7.25 KCAL/MOL
REMARK 923 INTER-LIGAND FREE ENERGY PREDICTED BY IDOCK:   -6.36 KCAL/MOL
REMARK 924 INTRA-LIGAND FREE ENERGY PREDICTED BY IDOCK:   -0.89 KCAL/MOL
REMARK 927      BINDING AFFINITY PREDICTED BY RF-SCORE:    0.00 PKD
ROOT
HETATM    1 CL   UNL     1     -11.711  15.644  69.331  1.00  0.00    -0.373 Cl 
HETATM    2  C   UNL     1     -12.443  14.638  70.523  1.00  0.00    -0.347 A  
HETATM    3  C   UNL     1     -12.338  13.268  70.632  1.00  0.00    -0.416 A  
HETATM    4  C   UNL     1     -13.064  12.821  71.793  1.00  0.00    -0.455 A  
HETATM    5  S   UNL     1     -13.392  15.362  71.724  1.00  0.00    -0.504 SA 
HETATM    6  C   UNL     1     -13.685  13.851  72.468  1.00  0.00    -0.560 A  
ENDROOT
BRANCH   3   7
HETATM    7  C   UNL     1     -11.546  12.380  69.718  1.00  0.00    -0.232 C  
BRANCH   7   8
HETATM    8  O   UNL     1     -12.181  11.112  69.562  1.00  0.00    -0.323 OA 
BRANCH   8   9
HETATM    9  C   UNL     1     -11.499   9.985  70.148  1.00  0.00    -0.277 C  
BRANCH   9  10
HETATM   10  C   UNL     1     -10.503   9.424  69.121  1.00  0.00    -0.230 A  
HETATM   11  C   UNL     1     -10.027   8.736  66.814  1.00  0.00    -0.338 A  
HETATM   12  C   UNL     1      -9.194   9.025  69.457  1.00  0.00    -0.152 A  
HETATM   13  C   UNL     1     -10.886   9.289  67.769  1.00  0.00    -0.192 A  
HETATM   14 CL   UNL     1      -8.523   9.265  71.033  1.00  0.00    -0.214 Cl 
HETATM   15 CL   UNL     1      -7.722   7.581  66.028  1.00  0.00    -0.091 Cl 
HETATM   16  C   UNL     1      -8.345   8.437  68.509  1.00  0.00    -0.131 A  
HETATM   17  C   UNL     1      -8.768   8.293  67.193  1.00  0.00    -0.123 A  
ENDBRANCH   9  10
BRANCH   9  18
HETATM   18  C   UNL     1     -12.512   8.938  70.676  1.00  0.00     0.187 C  
BRANCH  18  19
HETATM   19  N   UNL     1     -11.918   7.844  71.414  1.00  0.00    -0.297 NA 
HETATM   20  N   UNL     1     -11.051   5.843  71.806  1.00  0.00    -0.270 NA 
HETATM   21  C   UNL     1     -11.425   7.890  72.686  1.00  0.00    -0.395 A  
HETATM   22  C   UNL     1     -10.898   6.640  72.909  1.00  0.00    -0.262 A  
HETATM   23  C   UNL     1     -11.659   6.595  70.918  1.00  0.00    -0.361 A  
ENDBRANCH  18  19
ENDBRANCH   9  18
ENDBRANCH   8   9
ENDBRANCH   7   8
ENDBRANCH   3   7
TORSDOF 6
ENDMDL
MODEL      109
REMARK 921   NORMALIZED FREE ENERGY PREDICTED BY IDOCK:   -4.59 KCAL/MOL
REMARK 922        TOTAL FREE ENERGY PREDICTED BY IDOCK:   -7.25 KCAL/MOL
REMARK 923 INTER-LIGAND FREE ENERGY PREDICTED BY IDOCK:   -6.93 KCAL/MOL
REMARK 924 INTRA-LIGAND FREE ENERGY PREDICTED BY IDOCK:   -0.32 KCAL/MOL
REMARK 927      BINDING AFFINITY PREDICTED BY RF-SCORE:    0.00 PKD
ROOT
HETATM    1 CL   UNL     1     -10.268  20.433  67.717  1.00  0.00    -0.459 Cl 
HETATM    2  C   UNL     1      -8.863  19.663  67.086  1.00  0.00    -0.312 A  
HETATM    3  C   UNL     1      -8.792  18.421  66.492  1.00  0.00    -0.289 A  
HETATM    4  C   UNL     1      -7.441  18.171  66.060  1.00  0.00    -0.264 A  
HETATM    5  S   UNL     1      -7.384  20.484  67.161  1.00  0.00    -0.327 SA 
HETATM    6  C   UNL     1      -6.579  19.202  66.366  1.00  0.00    -0.193 A  
ENDROOT
BRANCH   3   7
HETATM    7  C   UNL     1      -9.951  17.492  66.277  1.00  0.00    -0.308 C  
BRANCH   7   8
HETATM    8  O   UNL     1     -10.355  16.887  67.504  1.00  0.00    -0.301 OA 
BRANCH   8   9
HETATM    9  C   UNL     1     -10.664  15.480  67.447  1.00  0.00    -0.301 C  
BRANCH   9  10
HETATM   10  C   UNL     1     -11.423  15.090  68.726  1.00  0.00    -0.337 A  
HETATM   11  C   UNL     1     -12.283  15.725  70.934  1.00  0.00    -0.458 A  
HETATM   12  C   UNL     1     -11.927  13.795  68.957  1.00  0.00    -0.360 A  
HETATM   13  C   UNL     1     -11.642  16.052  69.736  1.00  0.00    -0.297 A  
HETATM   14 CL   UNL     1     -11.873  12.548  67.759  1.00  0.00    -0.408 Cl 
HETATM   15 CL   UNL     1     -13.465  14.010  72.644  1.00  0.00    -0.633 Cl 
HETATM   16  C   UNL     1     -12.536  13.456  70.173  1.00  0.00    -0.243 A  
HETATM   17  C   UNL     1     -12.707  14.423  71.156  1.00  0.00    -0.352 A  
ENDBRANCH   9  10
BRANCH   9  18
HETATM   18  C   UNL     1      -9.386  14.642  67.196  1.00  0.00    -0.223 C  
BRANCH  18  19
HETATM   19  N   UNL     1      -8.225  15.075  67.944  1.00  0.00    -0.135 NA 
HETATM   20  N   UNL     1      -6.978  15.629  69.689  1.00  0.00    -0.187 NA 
HETATM   21  C   UNL     1      -6.953  15.217  67.467  1.00  0.00    -0.196 A  
HETATM   22  C   UNL     1      -6.200  15.565  68.563  1.00  0.00    -0.098 A  
HETATM   23  C   UNL     1      -8.189  15.321  69.289  1.00  0.00    -0.244 A  
ENDBRANCH  18  19
ENDBRANCH   9  18
ENDBRANCH   8   9
ENDBRANCH   7   8
ENDBRANCH   3   7
TORSDOF 6
ENDMDL
MODEL      110
REMARK 921   NORMALIZED FREE ENERGY PREDICTED BY IDOCK:   -4.59 KCAL/MOL
REMARK 922        TOTAL FREE ENERGY PREDICTED BY IDOCK:   -7.24 KCAL/MOL
REMARK 923 INTER-LIGAND FREE ENERGY PREDICTED BY IDOCK:   -6.44 KCAL/MOL
REMARK 924 INTRA-LIGAND FREE ENERGY PREDICTED BY IDOCK:   -0.80 KCAL/MOL
REMARK 927      BINDING AFFINITY PREDICTED BY RF-SCORE:    0.00 PKD
ROOT
HETATM    1 CL   UNL     1      -9.625   4.948  65.822  1.00  0.00    -0.175 Cl 
HETATM    2  C   UNL     1      -9.797   4.948  67.536  1.00  0.00    -0.167 A  
HETATM    3  C   UNL     1     -10.368   5.931  68.313  1.00  0.00    -0.263 A  
HETATM    4  C   UNL     1     -10.355   5.522  69.694  1.00  0.00    -0.359 A  
HETATM    5  S   UNL     1      -9.234   3.610  68.407  1.00  0.00    -0.169 SA 
HETATM    6  C   UNL     1      -9.764   4.290  69.884  1.00  0.00    -0.221 A  
ENDROOT
BRANCH   3   7
HETATM    7  C   UNL     1     -10.965   7.210  67.801  1.00  0.00    -0.117 C  
BRANCH   7   8
HETATM    8  O   UNL     1     -10.123   8.322  68.102  1.00  0.00    -0.185 OA 
BRANCH   8   9
HETATM    9  C   UNL     1     -10.630   9.256  69.076  1.00  0.00    -0.205 C  
BRANCH   9  10
HETATM   10  C   UNL     1     -11.004  10.563  68.358  1.00  0.00    -0.310 A  
HETATM   11  C   UNL     1     -10.985  11.913  66.309  1.00  0.00    -0.345 A  
HETATM   12  C   UNL     1     -11.642  11.641  69.003  1.00  0.00    -0.316 A  
HETATM   13  C   UNL     1     -10.707  10.722  66.987  1.00  0.00    -0.320 A  
HETATM   14 CL   UNL     1     -12.205  11.546  70.636  1.00  0.00    -0.475 Cl 
HETATM   15 CL   UNL     1     -11.864  14.457  66.170  1.00  0.00    -0.396 Cl 
HETATM   16  C   UNL     1     -11.887  12.848  68.335  1.00  0.00    -0.357 A  
HETATM   17  C   UNL     1     -11.553  12.979  66.993  1.00  0.00    -0.360 A  
ENDBRANCH   9  10
BRANCH   9  18
HETATM   18  C   UNL     1      -9.623   9.445  70.238  1.00  0.00    -0.249 C  
BRANCH  18  19
HETATM   19  N   UNL     1     -10.005   8.800  71.476  1.00  0.00    -0.271 NA 
HETATM   20  N   UNL     1     -11.255   7.694  72.932  1.00  0.00    -0.380 NA 
HETATM   21  C   UNL     1      -9.188   8.513  72.532  1.00  0.00    -0.233 A  
HETATM   22  C   UNL     1      -9.985   7.833  73.423  1.00  0.00    -0.284 A  
HETATM   23  C   UNL     1     -11.237   8.276  71.756  1.00  0.00    -0.283 A  
ENDBRANCH  18  19
ENDBRANCH   9  18
ENDBRANCH   8   9
ENDBRANCH   7   8
ENDBRANCH   3   7
TORSDOF 6
ENDMDL
MODEL      111
REMARK 921   NORMALIZED FREE ENERGY PREDICTED BY IDOCK:   -4.58 KCAL/MOL
REMARK 922        TOTAL FREE ENERGY PREDICTED BY IDOCK:   -7.23 KCAL/MOL
REMARK 923 INTER-LIGAND FREE ENERGY PREDICTED BY IDOCK:   -6.33 KCAL/MOL
REMARK 924 INTRA-LIGAND FREE ENERGY PREDICTED BY IDOCK:   -0.90 KCAL/MOL
REMARK 927      BINDING AFFINITY PREDICTED BY RF-SCORE:    0.00 PKD
ROOT
HETATM    1 CL   UNL     1     -11.223   6.754  67.060  1.00  0.00    -0.394 Cl 
HETATM    2  C   UNL     1      -9.639   7.410  66.900  1.00  0.00    -0.187 A  
HETATM    3  C   UNL     1      -9.306   8.705  66.569  1.00  0.00    -0.257 A  
HETATM    4  C   UNL     1      -7.873   8.854  66.587  1.00  0.00    -0.100 A  
HETATM    5  S   UNL     1      -8.310   6.400  67.185  1.00  0.00    -0.112 SA 
HETATM    6  C   UNL     1      -7.216   7.683  66.899  1.00  0.00    -0.088 A  
ENDROOT
BRANCH   3   7
HETATM    7  C   UNL     1     -10.282   9.810  66.286  1.00  0.00    -0.212 C  
BRANCH   7   8
HETATM    8  O   UNL     1     -10.983  10.187  67.470  1.00  0.00    -0.298 OA 
BRANCH   8   9
HETATM    9  C   UNL     1     -10.233  10.951  68.436  1.00  0.00    -0.178 C  
BRANCH   9  10
HETATM   10  C   UNL     1     -10.178  10.161  69.753  1.00  0.00    -0.286 A  
HETATM   11  C   UNL     1      -8.881   8.816  71.344  1.00  0.00    -0.292 A  
HETATM   12  C   UNL     1     -11.299   9.974  70.586  1.00  0.00    -0.348 A  
HETATM   13  C   UNL     1      -8.962   9.584  70.178  1.00  0.00    -0.269 A  
HETATM   14 CL   UNL     1     -12.820  10.740  70.284  1.00  0.00    -0.305 Cl 
HETATM   15 CL   UNL     1      -9.931   7.624  73.521  1.00  0.00    -0.375 Cl 
HETATM   16  C   UNL     1     -11.228   9.174  71.734  1.00  0.00    -0.451 A  
HETATM   17  C   UNL     1     -10.020   8.597  72.105  1.00  0.00    -0.316 A  
ENDBRANCH   9  10
BRANCH   9  18
HETATM   18  C   UNL     1     -10.814  12.379  68.584  1.00  0.00    -0.240 C  
BRANCH  18  19
HETATM   19  N   UNL     1     -10.924  13.117  67.344  1.00  0.00    -0.259 NA 
HETATM   20  N   UNL     1     -11.868  14.216  65.668  1.00  0.00    -0.362 NA 
HETATM   21  C   UNL     1      -9.897  13.644  66.614  1.00  0.00    -0.284 A  
HETATM   22  C   UNL     1     -10.505  14.315  65.579  1.00  0.00    -0.346 A  
HETATM   23  C   UNL     1     -12.093  13.498  66.743  1.00  0.00    -0.375 A  
ENDBRANCH  18  19
ENDBRANCH   9  18
ENDBRANCH   8   9
ENDBRANCH   7   8
ENDBRANCH   3   7
TORSDOF 6
ENDMDL
MODEL      112
REMARK 921   NORMALIZED FREE ENERGY PREDICTED BY IDOCK:   -4.54 KCAL/MOL
REMARK 922        TOTAL FREE ENERGY PREDICTED BY IDOCK:   -7.18 KCAL/MOL
REMARK 923 INTER-LIGAND FREE ENERGY PREDICTED BY IDOCK:   -6.17 KCAL/MOL
REMARK 924 INTRA-LIGAND FREE ENERGY PREDICTED BY IDOCK:   -1.01 KCAL/MOL
REMARK 927      BINDING AFFINITY PREDICTED BY RF-SCORE:    0.00 PKD
ROOT
HETATM    1 CL   UNL     1     -10.424  11.165  63.265  1.00  0.00    -0.380 Cl 
HETATM    2  C   UNL     1     -11.218  12.085  64.486  1.00  0.00    -0.332 A  
HETATM    3  C   UNL     1     -11.176  11.870  65.847  1.00  0.00    -0.373 A  
HETATM    4  C   UNL     1     -11.938  12.891  66.519  1.00  0.00    -0.447 A  
HETATM    5  S   UNL     1     -12.152  13.418  64.020  1.00  0.00    -0.423 SA 
HETATM    6  C   UNL     1     -12.523  13.786  65.648  1.00  0.00    -0.503 A  
ENDROOT
BRANCH   3   7
HETATM    7  C   UNL     1     -10.410  10.777  66.532  1.00  0.00    -0.244 C  
BRANCH   7   8
HETATM    8  O   UNL     1      -9.990  11.186  67.833  1.00  0.00    -0.168 OA 
BRANCH   8   9
HETATM    9  C   UNL     1      -9.603  10.132  68.736  1.00  0.00    -0.170 C  
BRANCH   9  10
HETATM   10  C   UNL     1     -10.753   9.884  69.725  1.00  0.00    -0.298 A  
HETATM   11  C   UNL     1     -12.625  10.777  71.038  1.00  0.00    -0.520 A  
HETATM   12  C   UNL     1     -11.021   8.622  70.293  1.00  0.00    -0.236 A  
HETATM   13  C   UNL     1     -11.599  10.949  70.103  1.00  0.00    -0.425 A  
HETATM   14 CL   UNL     1     -10.175   7.190  69.821  1.00  0.00    -0.207 Cl 
HETATM   15 CL   UNL     1     -14.057   9.328  72.802  1.00  0.00    -0.291 Cl 
HETATM   16  C   UNL     1     -12.025   8.456  71.258  1.00  0.00    -0.323 A  
HETATM   17  C   UNL     1     -12.818   9.535  71.627  1.00  0.00    -0.393 A  
ENDBRANCH   9  10
BRANCH   9  18
HETATM   18  C   UNL     1      -8.249  10.455  69.417  1.00  0.00    -0.151 C  
BRANCH  18  19
HETATM   19  N   UNL     1      -7.412   9.302  69.670  1.00  0.00    -0.072 NA 
HETATM   20  N   UNL     1      -6.326   7.744  70.811  1.00  0.00    -0.037 NA 
HETATM   21  C   UNL     1      -6.948   8.411  68.744  1.00  0.00    -0.063 A  
HETATM   22  C   UNL     1      -6.276   7.459  69.472  1.00  0.00    -0.031 A  
HETATM   23  C   UNL     1      -7.023   8.852  70.902  1.00  0.00    -0.080 A  
ENDBRANCH  18  19
ENDBRANCH   9  18
ENDBRANCH   8   9
ENDBRANCH   7   8
ENDBRANCH   3   7
TORSDOF 6
ENDMDL
MODEL      113
REMARK 921   NORMALIZED FREE ENERGY PREDICTED BY IDOCK:   -4.54 KCAL/MOL
REMARK 922        TOTAL FREE ENERGY PREDICTED BY IDOCK:   -7.18 KCAL/MOL
REMARK 923 INTER-LIGAND FREE ENERGY PREDICTED BY IDOCK:   -6.14 KCAL/MOL
REMARK 924 INTRA-LIGAND FREE ENERGY PREDICTED BY IDOCK:   -1.04 KCAL/MOL
REMARK 927      BINDING AFFINITY PREDICTED BY RF-SCORE:    0.00 PKD
ROOT
HETATM    1 CL   UNL     1     -10.882   9.704  67.436  1.00  0.00    -0.307 Cl 
HETATM    2  C   UNL     1     -11.422  10.734  68.707  1.00  0.00    -0.295 A  
HETATM    3  C   UNL     1     -11.804  12.054  68.601  1.00  0.00    -0.366 A  
HETATM    4  C   UNL     1     -12.233  12.536  69.889  1.00  0.00    -0.233 A  
HETATM    5  S   UNL     1     -11.531  10.101  70.273  1.00  0.00    -0.323 SA 
HETATM    6  C   UNL     1     -12.129  11.583  70.881  1.00  0.00    -0.247 A  
ENDROOT
BRANCH   3   7
HETATM    7  C   UNL     1     -11.826  12.854  67.332  1.00  0.00    -0.360 C  
BRANCH   7   8
HETATM    8  O   UNL     1     -10.500  13.124  66.876  1.00  0.00    -0.253 OA 
BRANCH   8   9
HETATM    9  C   UNL     1      -9.706  13.990  67.711  1.00  0.00    -0.228 C  
BRANCH   9  10
HETATM   10  C   UNL     1      -9.980  15.449  67.309  1.00  0.00    -0.226 A  
HETATM   11  C   UNL     1      -9.939  17.196  65.587  1.00  0.00    -0.041 A  
HETATM   12  C   UNL     1     -10.459  16.419  68.212  1.00  0.00    -0.302 A  
HETATM   13  C   UNL     1      -9.751  15.868  65.981  1.00  0.00    -0.375 A  
HETATM   14 CL   UNL     1     -10.931  16.031  69.831  1.00  0.00    -0.326 Cl 
HETATM   15 CL   UNL     1     -10.548  19.782  66.046  1.00  0.00    -0.601 Cl 
HETATM   16  C   UNL     1     -10.613  17.758  67.829  1.00  0.00    -0.392 A  
HETATM   17  C   UNL     1     -10.349  18.140  66.519  1.00  0.00    -0.386 A  
ENDBRANCH   9  10
BRANCH   9  18
HETATM   18  C   UNL     1      -8.210  13.595  67.654  1.00  0.00    -0.178 C  
BRANCH  18  19
HETATM   19  N   UNL     1      -7.306  14.573  68.221  1.00  0.00    -0.109 NA 
HETATM   20  N   UNL     1      -5.870  16.259  68.304  1.00  0.00    -0.102 NA 
HETATM   21  C   UNL     1      -7.144  14.864  69.545  1.00  0.00    -0.184 A  
HETATM   22  C   UNL     1      -6.248  15.907  69.573  1.00  0.00    -0.163 A  
HETATM   23  C   UNL     1      -6.529  15.447  67.510  1.00  0.00    -0.144 A  
ENDBRANCH  18  19
ENDBRANCH   9  18
ENDBRANCH   8   9
ENDBRANCH   7   8
ENDBRANCH   3   7
TORSDOF 6
ENDMDL
MODEL      114
REMARK 921   NORMALIZED FREE ENERGY PREDICTED BY IDOCK:   -4.54 KCAL/MOL
REMARK 922        TOTAL FREE ENERGY PREDICTED BY IDOCK:   -7.17 KCAL/MOL
REMARK 923 INTER-LIGAND FREE ENERGY PREDICTED BY IDOCK:   -6.27 KCAL/MOL
REMARK 924 INTRA-LIGAND FREE ENERGY PREDICTED BY IDOCK:   -0.90 KCAL/MOL
REMARK 927      BINDING AFFINITY PREDICTED BY RF-SCORE:    0.00 PKD
ROOT
HETATM    1 CL   UNL     1     -10.812   5.984  68.758  1.00  0.00    -0.379 Cl 
HETATM    2  C   UNL     1      -9.746   6.604  67.556  1.00  0.00    -0.127 A  
HETATM    3  C   UNL     1      -9.154   7.848  67.533  1.00  0.00    -0.141 A  
HETATM    4  C   UNL     1      -8.297   7.952  66.380  1.00  0.00    -0.129 A  
HETATM    5  S   UNL     1      -9.334   5.612  66.247  1.00  0.00    -0.150 SA 
HETATM    6  C   UNL     1      -8.309   6.816  65.598  1.00  0.00    -0.147 A  
ENDROOT
BRANCH   3   7
HETATM    7  C   UNL     1      -9.327   8.914  68.575  1.00  0.00    -0.140 C  
BRANCH   7   8
HETATM    8  O   UNL     1     -10.619   9.512  68.484  1.00  0.00    -0.214 OA 
BRANCH   8   9
HETATM    9  C   UNL     1     -11.272   9.807  69.735  1.00  0.00    -0.202 C  
BRANCH   9  10
HETATM   10  C   UNL     1     -11.559  11.316  69.797  1.00  0.00    -0.408 A  
HETATM   11  C   UNL     1     -11.195  13.563  68.880  1.00  0.00    -0.316 A  
HETATM   12  C   UNL     1     -12.369  11.905  70.788  1.00  0.00    -0.320 A  
HETATM   13  C   UNL     1     -11.000  12.179  68.830  1.00  0.00    -0.269 A  
HETATM   14 CL   UNL     1     -13.246  10.971  71.950  1.00  0.00    -0.568 Cl 
HETATM   15 CL   UNL     1     -12.158  15.821  69.992  1.00  0.00    -0.368 Cl 
HETATM   16  C   UNL     1     -12.536  13.295  70.861  1.00  0.00    -0.424 A  
HETATM   17  C   UNL     1     -11.945  14.116  69.908  1.00  0.00    -0.338 A  
ENDBRANCH   9  10
BRANCH   9  18
HETATM   18  C   UNL     1     -10.442   9.278  70.931  1.00  0.00    -0.302 C  
BRANCH  18  19
HETATM   19  N   UNL     1     -10.982   8.092  71.562  1.00  0.00    -0.235 NA 
HETATM   20  N   UNL     1     -12.423   6.480  72.043  1.00  0.00    -0.292 NA 
HETATM   21  C   UNL     1     -10.303   7.201  72.343  1.00  0.00    -0.201 A  
HETATM   22  C   UNL     1     -11.216   6.215  72.632  1.00  0.00    -0.274 A  
HETATM   23  C   UNL     1     -12.252   7.610  71.398  1.00  0.00    -0.326 A  
ENDBRANCH  18  19
ENDBRANCH   9  18
ENDBRANCH   8   9
ENDBRANCH   7   8
ENDBRANCH   3   7
TORSDOF 6
ENDMDL
MODEL      115
REMARK 921   NORMALIZED FREE ENERGY PREDICTED BY IDOCK:   -4.53 KCAL/MOL
REMARK 922        TOTAL FREE ENERGY PREDICTED BY IDOCK:   -7.16 KCAL/MOL
REMARK 923 INTER-LIGAND FREE ENERGY PREDICTED BY IDOCK:   -6.77 KCAL/MOL
REMARK 924 INTRA-LIGAND FREE ENERGY PREDICTED BY IDOCK:   -0.39 KCAL/MOL
REMARK 927      BINDING AFFINITY PREDICTED BY RF-SCORE:    0.00 PKD
ROOT
HETATM    1 CL   UNL     1     -10.677  19.086  67.018  1.00  0.00    -0.531 Cl 
HETATM    2  C   UNL     1      -9.331  18.353  67.805  1.00  0.00    -0.274 A  
HETATM    3  C   UNL     1      -9.232  17.049  68.240  1.00  0.00    -0.255 A  
HETATM    4  C   UNL     1      -7.925  16.827  68.802  1.00  0.00    -0.250 A  
HETATM    5  S   UNL     1      -7.947  19.287  68.083  1.00  0.00    -0.319 SA 
HETATM    6  C   UNL     1      -7.134  17.957  68.786  1.00  0.00    -0.268 A  
ENDROOT
BRANCH   3   7
HETATM    7  C   UNL     1     -10.298  16.002  68.101  1.00  0.00    -0.260 C  
BRANCH   7   8
HETATM    8  O   UNL     1      -9.874  14.954  67.230  1.00  0.00    -0.226 OA 
BRANCH   8   9
HETATM    9  C   UNL     1     -10.290  13.622  67.591  1.00  0.00    -0.239 C  
BRANCH   9  10
HETATM   10  C   UNL     1     -10.223  12.730  66.340  1.00  0.00    -0.263 A  
HETATM   11  C   UNL     1      -9.312  10.745  65.222  1.00  0.00    -0.247 A  
HETATM   12  C   UNL     1     -10.917  13.022  65.149  1.00  0.00    -0.295 A  
HETATM   13  C   UNL     1      -9.439  11.556  66.353  1.00  0.00    -0.230 A  
HETATM   14 CL   UNL     1     -12.034  14.336  65.021  1.00  0.00    -0.391 Cl 
HETATM   15 CL   UNL     1      -9.774  10.122  62.641  1.00  0.00    -0.209 Cl 
HETATM   16  C   UNL     1     -10.761  12.230  64.003  1.00  0.00    -0.438 A  
HETATM   17  C   UNL     1      -9.956  11.099  64.045  1.00  0.00    -0.323 A  
ENDBRANCH   9  10
BRANCH   9  18
HETATM   18  C   UNL     1     -11.680  13.641  68.274  1.00  0.00    -0.363 C  
BRANCH  18  19
HETATM   19  N   UNL     1     -11.925  12.534  69.173  1.00  0.00    -0.270 NA 
HETATM   20  N   UNL     1     -12.147  10.441  69.864  1.00  0.00    -0.222 NA 
HETATM   21  C   UNL     1     -12.041  12.596  70.532  1.00  0.00    -0.275 A  
HETATM   22  C   UNL     1     -12.182  11.290  70.938  1.00  0.00    -0.356 A  
HETATM   23  C   UNL     1     -11.982  11.214  68.817  1.00  0.00    -0.268 A  
ENDBRANCH  18  19
ENDBRANCH   9  18
ENDBRANCH   8   9
ENDBRANCH   7   8
ENDBRANCH   3   7
TORSDOF 6
ENDMDL
MODEL      116
REMARK 921   NORMALIZED FREE ENERGY PREDICTED BY IDOCK:   -4.52 KCAL/MOL
REMARK 922        TOTAL FREE ENERGY PREDICTED BY IDOCK:   -7.15 KCAL/MOL
REMARK 923 INTER-LIGAND FREE ENERGY PREDICTED BY IDOCK:   -6.19 KCAL/MOL
REMARK 924 INTRA-LIGAND FREE ENERGY PREDICTED BY IDOCK:   -0.96 KCAL/MOL
REMARK 927      BINDING AFFINITY PREDICTED BY RF-SCORE:    0.00 PKD
ROOT
HETATM    1 CL   UNL     1     -10.694   4.729  65.809  1.00  0.00    -0.307 Cl 
HETATM    2  C   UNL     1      -9.897   4.534  67.324  1.00  0.00    -0.175 A  
HETATM    3  C   UNL     1     -10.087   5.282  68.465  1.00  0.00    -0.232 A  
HETATM    4  C   UNL     1      -9.259   4.764  69.524  1.00  0.00    -0.177 A  
HETATM    5  S   UNL     1      -8.758   3.292  67.487  1.00  0.00    -0.131 SA 
HETATM    6  C   UNL     1      -8.486   3.694  69.127  1.00  0.00    -0.069 A  
ENDROOT
BRANCH   3   7
HETATM    7  C   UNL     1     -11.049   6.426  68.606  1.00  0.00    -0.311 C  
BRANCH   7   8
HETATM    8  O   UNL     1     -10.409   7.561  69.189  1.00  0.00    -0.204 OA 
BRANCH   8   9
HETATM    9  C   UNL     1     -10.952   8.021  70.442  1.00  0.00    -0.248 C  
BRANCH   9  10
HETATM   10  C   UNL     1     -11.382   9.489  70.284  1.00  0.00    -0.284 A  
HETATM   11  C   UNL     1     -11.114  11.645  69.143  1.00  0.00    -0.302 A  
HETATM   12  C   UNL     1     -12.359  10.097  71.098  1.00  0.00    -0.385 A  
HETATM   13  C   UNL     1     -10.789  10.293  69.287  1.00  0.00    -0.275 A  
HETATM   14 CL   UNL     1     -13.283   9.212  72.261  1.00  0.00    -0.496 Cl 
HETATM   15 CL   UNL     1     -12.410  13.899  69.852  1.00  0.00    -0.381 Cl 
HETATM   16  C   UNL     1     -12.659  11.461  70.979  1.00  0.00    -0.487 A  
HETATM   17  C   UNL     1     -12.033  12.227  70.005  1.00  0.00    -0.304 A  
ENDBRANCH   9  10
BRANCH   9  18
HETATM   18  C   UNL     1      -9.951   7.782  71.600  1.00  0.00    -0.174 C  
BRANCH  18  19
HETATM   19  N   UNL     1     -10.361   6.770  72.551  1.00  0.00    -0.194 NA 
HETATM   20  N   UNL     1     -11.438   5.015  73.368  1.00  0.00    -0.281 NA 
HETATM   21  C   UNL     1      -9.778   6.499  73.756  1.00  0.00    -0.208 A  
HETATM   22  C   UNL     1     -10.464   5.412  74.245  1.00  0.00    -0.262 A  
HETATM   23  C   UNL     1     -11.347   5.843  72.354  1.00  0.00    -0.307 A  
ENDBRANCH  18  19
ENDBRANCH   9  18
ENDBRANCH   8   9
ENDBRANCH   7   8
ENDBRANCH   3   7
TORSDOF 6
ENDMDL
MODEL      117
REMARK 921   NORMALIZED FREE ENERGY PREDICTED BY IDOCK:   -4.52 KCAL/MOL
REMARK 922        TOTAL FREE ENERGY PREDICTED BY IDOCK:   -7.15 KCAL/MOL
REMARK 923 INTER-LIGAND FREE ENERGY PREDICTED BY IDOCK:   -6.30 KCAL/MOL
REMARK 924 INTRA-LIGAND FREE ENERGY PREDICTED BY IDOCK:   -0.85 KCAL/MOL
REMARK 927      BINDING AFFINITY PREDICTED BY RF-SCORE:    0.00 PKD
ROOT
HETATM    1 CL   UNL     1     -12.276  12.252  63.461  1.00  0.00    -0.641 Cl 
HETATM    2  C   UNL     1     -11.959  12.590  65.120  1.00  0.00    -0.434 A  
HETATM    3  C   UNL     1     -11.163  11.863  65.978  1.00  0.00    -0.377 A  
HETATM    4  C   UNL     1     -11.126  12.510  67.265  1.00  0.00    -0.319 A  
HETATM    5  S   UNL     1     -12.664  13.962  65.817  1.00  0.00    -0.364 SA 
HETATM    6  C   UNL     1     -11.900  13.651  67.315  1.00  0.00    -0.391 A  
ENDROOT
BRANCH   3   7
HETATM    7  C   UNL     1     -10.403  10.620  65.619  1.00  0.00    -0.216 C  
BRANCH   7   8
HETATM    8  O   UNL     1      -9.825  10.022  66.779  1.00  0.00    -0.180 OA 
BRANCH   8   9
HETATM    9  C   UNL     1      -9.668   8.589  66.743  1.00  0.00    -0.236 C  
BRANCH   9  10
HETATM   10  C   UNL     1     -10.287   7.994  68.017  1.00  0.00    -0.262 A  
HETATM   11  C   UNL     1     -10.918   8.268  70.373  1.00  0.00    -0.244 A  
HETATM   12  C   UNL     1     -10.755   6.667  68.098  1.00  0.00    -0.258 A  
HETATM   13  C   UNL     1     -10.407   8.786  69.179  1.00  0.00    -0.227 A  
HETATM   14 CL   UNL     1     -10.818   5.617  66.725  1.00  0.00    -0.344 Cl 
HETATM   15 CL   UNL     1     -11.905   6.287  71.911  1.00  0.00    -0.374 Cl 
HETATM   16  C   UNL     1     -11.233   6.135  69.303  1.00  0.00    -0.438 A  
HETATM   17  C   UNL     1     -11.308   6.938  70.435  1.00  0.00    -0.328 A  
ENDBRANCH   9  10
BRANCH   9  18
HETATM   18  C   UNL     1      -8.184   8.201  66.526  1.00  0.00    -0.107 C  
BRANCH  18  19
HETATM   19  N   UNL     1      -7.578   8.774  65.343  1.00  0.00    -0.085 NA 
HETATM   20  N   UNL     1      -7.202   9.166  63.195  1.00  0.00    -0.091 NA 
HETATM   21  C   UNL     1      -6.706   9.823  65.300  1.00  0.00    -0.099 A  
HETATM   22  C   UNL     1      -6.483  10.046  63.961  1.00  0.00    -0.132 A  
HETATM   23  C   UNL     1      -7.858   8.419  64.051  1.00  0.00    -0.146 A  
ENDBRANCH  18  19
ENDBRANCH   9  18
ENDBRANCH   8   9
ENDBRANCH   7   8
ENDBRANCH   3   7
TORSDOF 6
ENDMDL
MODEL      118
REMARK 921   NORMALIZED FREE ENERGY PREDICTED BY IDOCK:   -4.52 KCAL/MOL
REMARK 922        TOTAL FREE ENERGY PREDICTED BY IDOCK:   -7.15 KCAL/MOL
REMARK 923 INTER-LIGAND FREE ENERGY PREDICTED BY IDOCK:   -6.43 KCAL/MOL
REMARK 924 INTRA-LIGAND FREE ENERGY PREDICTED BY IDOCK:   -0.72 KCAL/MOL
REMARK 927      BINDING AFFINITY PREDICTED BY RF-SCORE:    0.00 PKD
ROOT
HETATM    1 CL   UNL     1     -11.446  13.589  68.814  1.00  0.00    -0.322 Cl 
HETATM    2  C   UNL     1     -12.280  13.097  70.238  1.00  0.00    -0.306 A  
HETATM    3  C   UNL     1     -12.435  11.810  70.707  1.00  0.00    -0.405 A  
HETATM    4  C   UNL     1     -13.157  11.836  71.954  1.00  0.00    -0.482 A  
HETATM    5  S   UNL     1     -12.991  14.284  71.213  1.00  0.00    -0.364 SA 
HETATM    6  C   UNL     1     -13.523  13.110  72.337  1.00  0.00    -0.543 A  
ENDROOT
BRANCH   3   7
HETATM    7  C   UNL     1     -11.890  10.574  70.054  1.00  0.00    -0.308 C  
BRANCH   7   8
HETATM    8  O   UNL     1     -10.467  10.630  69.963  1.00  0.00    -0.186 OA 
BRANCH   8   9
HETATM    9  C   UNL     1      -9.763   9.409  70.264  1.00  0.00    -0.246 C  
BRANCH   9  10
HETATM   10  C   UNL     1     -10.100   8.367  69.186  1.00  0.00    -0.206 A  
HETATM   11  C   UNL     1     -11.009   6.162  68.606  1.00  0.00    -0.415 A  
HETATM   12  C   UNL     1      -9.809   8.551  67.819  1.00  0.00    -0.175 A  
HETATM   13  C   UNL     1     -10.731   7.157  69.548  1.00  0.00    -0.255 A  
HETATM   14 CL   UNL     1      -9.178  10.036  67.195  1.00  0.00    -0.157 Cl 
HETATM   15 CL   UNL     1     -10.957   5.115  66.123  1.00  0.00    -0.197 Cl 
HETATM   16  C   UNL     1     -10.053   7.541  66.879  1.00  0.00    -0.336 A  
HETATM   17  C   UNL     1     -10.648   6.350  67.279  1.00  0.00    -0.314 A  
ENDBRANCH   9  10
BRANCH   9  18
HETATM   18  C   UNL     1     -10.066   8.937  71.708  1.00  0.00    -0.337 C  
BRANCH  18  19
HETATM   19  N   UNL     1      -8.904   8.512  72.459  1.00  0.00    -0.340 NA 
HETATM   20  N   UNL     1      -6.771   8.251  72.997  1.00  0.00    -0.098 NA 
HETATM   21  C   UNL     1      -8.896   7.971  73.713  1.00  0.00    -0.247 A  
HETATM   22  C   UNL     1      -7.566   7.814  74.023  1.00  0.00    -0.149 A  
HETATM   23  C   UNL     1      -7.602   8.674  72.073  1.00  0.00    -0.038 A  
ENDBRANCH  18  19
ENDBRANCH   9  18
ENDBRANCH   8   9
ENDBRANCH   7   8
ENDBRANCH   3   7
TORSDOF 6
ENDMDL
MODEL      119
REMARK 921   NORMALIZED FREE ENERGY PREDICTED BY IDOCK:   -4.51 KCAL/MOL
REMARK 922        TOTAL FREE ENERGY PREDICTED BY IDOCK:   -7.13 KCAL/MOL
REMARK 923 INTER-LIGAND FREE ENERGY PREDICTED BY IDOCK:   -6.45 KCAL/MOL
REMARK 924 INTRA-LIGAND FREE ENERGY PREDICTED BY IDOCK:   -0.68 KCAL/MOL
REMARK 927      BINDING AFFINITY PREDICTED BY RF-SCORE:    0.00 PKD
ROOT
HETATM    1 CL   UNL     1      -9.669  10.207  64.283  1.00  0.00    -0.367 Cl 
HETATM    2  C   UNL     1      -9.197   9.114  65.528  1.00  0.00    -0.224 A  
HETATM    3  C   UNL     1      -9.714   9.035  66.803  1.00  0.00    -0.279 A  
HETATM    4  C   UNL     1      -9.077   7.955  67.514  1.00  0.00    -0.141 A  
HETATM    5  S   UNL     1      -7.982   7.982  65.197  1.00  0.00    -0.133 SA 
HETATM    6  C   UNL     1      -8.117   7.310  66.763  1.00  0.00    -0.119 A  
ENDROOT
BRANCH   3   7
HETATM    7  C   UNL     1     -10.810   9.899  67.354  1.00  0.00    -0.227 C  
BRANCH   7   8
HETATM    8  O   UNL     1     -10.273  10.983  68.112  1.00  0.00    -0.172 OA 
BRANCH   8   9
HETATM    9  C   UNL     1     -10.426  12.296  67.538  1.00  0.00    -0.213 C  
BRANCH   9  10
HETATM   10  C   UNL     1     -10.775  13.286  68.661  1.00  0.00    -0.281 A  
HETATM   11  C   UNL     1     -12.402  14.116  70.299  1.00  0.00    -0.421 A  
HETATM   12  C   UNL     1      -9.897  14.300  69.093  1.00  0.00     0.017 A  
HETATM   13  C   UNL     1     -12.026  13.204  69.309  1.00  0.00    -0.344 A  
HETATM   14 CL   UNL     1      -8.276  14.440  68.507  1.00  0.00    -0.147 Cl 
HETATM   15 CL   UNL     1     -12.011  16.287  71.848  1.00  0.00    -0.554 Cl 
HETATM   16  C   UNL     1     -10.286  15.238  70.059  1.00  0.00    -0.240 A  
HETATM   17  C   UNL     1     -11.538  15.143  70.654  1.00  0.00    -0.309 A  
ENDBRANCH   9  10
BRANCH   9  18
HETATM   18  C   UNL     1     -11.452  12.277  66.377  1.00  0.00    -0.378 C  
BRANCH  18  19
HETATM   19  N   UNL     1     -11.460  13.472  65.561  1.00  0.00    -0.301 NA 
HETATM   20  N   UNL     1     -12.218  15.026  64.176  1.00  0.00    -0.603 NA 
HETATM   21  C   UNL     1     -10.518  14.461  65.552  1.00  0.00    -0.350 A  
HETATM   22  C   UNL     1     -11.006  15.409  64.685  1.00  0.00    -0.314 A  
HETATM   23  C   UNL     1     -12.472  13.862  64.727  1.00  0.00    -0.354 A  
ENDBRANCH  18  19
ENDBRANCH   9  18
ENDBRANCH   8   9
ENDBRANCH   7   8
ENDBRANCH   3   7
TORSDOF 6
ENDMDL
MODEL      120
REMARK 921   NORMALIZED FREE ENERGY PREDICTED BY IDOCK:   -4.50 KCAL/MOL
REMARK 922        TOTAL FREE ENERGY PREDICTED BY IDOCK:   -7.12 KCAL/MOL
REMARK 923 INTER-LIGAND FREE ENERGY PREDICTED BY IDOCK:   -6.50 KCAL/MOL
REMARK 924 INTRA-LIGAND FREE ENERGY PREDICTED BY IDOCK:   -0.62 KCAL/MOL
REMARK 927      BINDING AFFINITY PREDICTED BY RF-SCORE:    0.00 PKD
ROOT
HETATM    1 CL   UNL     1     -10.585   7.427  72.316  1.00  0.00    -0.251 Cl 
HETATM    2  C   UNL     1     -11.428   8.821  71.756  1.00  0.00    -0.342 A  
HETATM    3  C   UNL     1     -10.961   9.781  70.886  1.00  0.00    -0.411 A  
HETATM    4  C   UNL     1     -11.996  10.753  70.640  1.00  0.00    -0.466 A  
HETATM    5  S   UNL     1     -13.014   9.078  72.291  1.00  0.00    -0.417 SA 
HETATM    6  C   UNL     1     -13.153  10.494  71.343  1.00  0.00    -0.410 A  
ENDROOT
BRANCH   3   7
HETATM    7  C   UNL     1      -9.604   9.789  70.245  1.00  0.00    -0.208 C  
BRANCH   7   8
HETATM    8  O   UNL     1      -9.701  10.054  68.847  1.00  0.00    -0.165 OA 
BRANCH   8   9
HETATM    9  C   UNL     1      -9.456  11.416  68.441  1.00  0.00    -0.194 C  
BRANCH   9  10
HETATM   10  C   UNL     1     -10.268  11.704  67.168  1.00  0.00    -0.240 A  
HETATM   11  C   UNL     1     -10.625  11.316  64.771  1.00  0.00    -0.376 A  
HETATM   12  C   UNL     1     -11.345  12.611  67.130  1.00  0.00    -0.319 A  
HETATM   13  C   UNL     1      -9.944  11.045  65.962  1.00  0.00    -0.285 A  
HETATM   14 CL   UNL     1     -11.961  13.384  68.551  1.00  0.00    -0.390 Cl 
HETATM   15 CL   UNL     1     -12.454  12.625  63.286  1.00  0.00    -0.496 Cl 
HETATM   16  C   UNL     1     -12.004  12.911  65.930  1.00  0.00    -0.504 A  
HETATM   17  C   UNL     1     -11.638  12.264  64.757  1.00  0.00    -0.337 A  
ENDBRANCH   9  10
BRANCH   9  18
HETATM   18  C   UNL     1      -7.938  11.684  68.290  1.00  0.00    -0.143 C  
BRANCH  18  19
HETATM   19  N   UNL     1      -7.554  13.072  68.437  1.00  0.00    -0.128 NA 
HETATM   20  N   UNL     1      -7.450  15.244  68.015  1.00  0.00    -0.112 NA 
HETATM   21  C   UNL     1      -6.893  13.629  69.493  1.00  0.00     0.027 A  
HETATM   22  C   UNL     1      -6.836  14.973  69.209  1.00  0.00    -0.149 A  
HETATM   23  C   UNL     1      -7.881  14.085  67.577  1.00  0.00    -0.184 A  
ENDBRANCH  18  19
ENDBRANCH   9  18
ENDBRANCH   8   9
ENDBRANCH   7   8
ENDBRANCH   3   7
TORSDOF 6
ENDMDL
MODEL      121
REMARK 921   NORMALIZED FREE ENERGY PREDICTED BY IDOCK:   -4.49 KCAL/MOL
REMARK 922        TOTAL FREE ENERGY PREDICTED BY IDOCK:   -7.10 KCAL/MOL
REMARK 923 INTER-LIGAND FREE ENERGY PREDICTED BY IDOCK:   -6.77 KCAL/MOL
REMARK 924 INTRA-LIGAND FREE ENERGY PREDICTED BY IDOCK:   -0.33 KCAL/MOL
REMARK 927      BINDING AFFINITY PREDICTED BY RF-SCORE:    0.00 PKD
ROOT
HETATM    1 CL   UNL     1     -13.764   9.451  71.904  1.00  0.00    -0.443 Cl 
HETATM    2  C   UNL     1     -12.082   9.147  71.697  1.00  0.00    -0.362 A  
HETATM    3  C   UNL     1     -11.191   9.882  70.944  1.00  0.00    -0.433 A  
HETATM    4  C   UNL     1      -9.871   9.320  71.075  1.00  0.00    -0.355 A  
HETATM    5  S   UNL     1     -11.392   7.824  72.496  1.00  0.00    -0.388 SA 
HETATM    6  C   UNL     1      -9.842   8.200  71.879  1.00  0.00    -0.212 A  
ENDROOT
BRANCH   3   7
HETATM    7  C   UNL     1     -11.528  11.113  70.154  1.00  0.00    -0.272 C  
BRANCH   7   8
HETATM    8  O   UNL     1     -12.249  10.776  68.969  1.00  0.00    -0.421 OA 
BRANCH   8   9
HETATM    9  C   UNL     1     -11.619  11.128  67.721  1.00  0.00    -0.223 C  
BRANCH   9  10
HETATM   10  C   UNL     1     -10.425  10.188  67.490  1.00  0.00    -0.304 A  
HETATM   11  C   UNL     1      -9.585   7.995  66.779  1.00  0.00    -0.281 A  
HETATM   12  C   UNL     1      -9.094  10.546  67.786  1.00  0.00    -0.138 A  
HETATM   13  C   UNL     1     -10.637   8.898  66.958  1.00  0.00    -0.279 A  
HETATM   14 CL   UNL     1      -8.651  12.137  68.301  1.00  0.00    -0.178 Cl 
HETATM   15 CL   UNL     1      -7.005   7.236  66.958  1.00  0.00    -0.079 Cl 
HETATM   16  C   UNL     1      -8.044   9.629  67.643  1.00  0.00    -0.113 A  
HETATM   17  C   UNL     1      -8.296   8.358  67.144  1.00  0.00    -0.122 A  
ENDBRANCH   9  10
BRANCH   9  18
HETATM   18  C   UNL     1     -11.247  12.632  67.693  1.00  0.00    -0.283 C  
BRANCH  18  19
HETATM   19  N   UNL     1     -11.382  13.262  66.397  1.00  0.00    -0.303 NA 
HETATM   20  N   UNL     1     -10.843  13.923  64.353  1.00  0.00    -0.358 NA 
HETATM   21  C   UNL     1     -12.526  13.770  65.852  1.00  0.00    -0.468 A  
HETATM   22  C   UNL     1     -12.168  14.178  64.589  1.00  0.00    -0.445 A  
HETATM   23  C   UNL     1     -10.397  13.364  65.453  1.00  0.00    -0.312 A  
ENDBRANCH  18  19
ENDBRANCH   9  18
ENDBRANCH   8   9
ENDBRANCH   7   8
ENDBRANCH   3   7
TORSDOF 6
ENDMDL
MODEL      122
REMARK 921   NORMALIZED FREE ENERGY PREDICTED BY IDOCK:   -4.48 KCAL/MOL
REMARK 922        TOTAL FREE ENERGY PREDICTED BY IDOCK:   -7.10 KCAL/MOL
REMARK 923 INTER-LIGAND FREE ENERGY PREDICTED BY IDOCK:   -6.62 KCAL/MOL
REMARK 924 INTRA-LIGAND FREE ENERGY PREDICTED BY IDOCK:   -0.48 KCAL/MOL
REMARK 927      BINDING AFFINITY PREDICTED BY RF-SCORE:    0.00 PKD
ROOT
HETATM    1 CL   UNL     1     -11.731   7.797  70.534  1.00  0.00    -0.183 Cl 
HETATM    2  C   UNL     1     -12.160   9.439  70.832  1.00  0.00    -0.255 A  
HETATM    3  C   UNL     1     -11.820  10.537  70.071  1.00  0.00    -0.388 A  
HETATM    4  C   UNL     1     -12.416  11.719  70.639  1.00  0.00    -0.364 A  
HETATM    5  S   UNL     1     -13.115   9.796  72.183  1.00  0.00    -0.377 SA 
HETATM    6  C   UNL     1     -13.136  11.459  71.787  1.00  0.00    -0.418 A  
ENDROOT
BRANCH   3   7
HETATM    7  C   UNL     1     -11.002  10.506  68.814  1.00  0.00    -0.251 C  
BRANCH   7   8
HETATM    8  O   UNL     1     -10.316  11.742  68.620  1.00  0.00    -0.215 OA 
BRANCH   8   9
HETATM    9  C   UNL     1      -9.833  11.998  67.286  1.00  0.00    -0.192 C  
BRANCH   9  10
HETATM   10  C   UNL     1      -9.635  13.512  67.116  1.00  0.00    -0.241 A  
HETATM   11  C   UNL     1      -8.113  15.435  67.019  1.00  0.00    -0.265 A  
HETATM   12  C   UNL     1     -10.705  14.415  66.951  1.00  0.00    -0.292 A  
HETATM   13  C   UNL     1      -8.333  14.058  67.121  1.00  0.00    -0.174 A  
HETATM   14 CL   UNL     1     -12.344  13.892  66.773  1.00  0.00    -0.431 Cl 
HETATM   15 CL   UNL     1      -8.928  17.997  66.834  1.00  0.00    -0.258 Cl 
HETATM   16  C   UNL     1     -10.489  15.798  66.886  1.00  0.00    -0.315 A  
HETATM   17  C   UNL     1      -9.194  16.300  66.924  1.00  0.00    -0.218 A  
ENDBRANCH   9  10
BRANCH   9  18
HETATM   18  C   UNL     1     -10.770  11.364  66.227  1.00  0.00    -0.270 C  
BRANCH  18  19
HETATM   19  N   UNL     1     -10.130  11.053  64.967  1.00  0.00    -0.275 NA 
HETATM   20  N   UNL     1      -9.535  11.260  62.843  1.00  0.00    -0.364 NA 
HETATM   21  C   UNL     1      -9.177  10.100  64.748  1.00  0.00    -0.242 A  
HETATM   22  C   UNL     1      -8.827  10.244  63.426  1.00  0.00    -0.221 A  
HETATM   23  C   UNL     1     -10.304  11.736  63.794  1.00  0.00    -0.410 A  
ENDBRANCH  18  19
ENDBRANCH   9  18
ENDBRANCH   8   9
ENDBRANCH   7   8
ENDBRANCH   3   7
TORSDOF 6
ENDMDL
MODEL      123
REMARK 921   NORMALIZED FREE ENERGY PREDICTED BY IDOCK:   -4.48 KCAL/MOL
REMARK 922        TOTAL FREE ENERGY PREDICTED BY IDOCK:   -7.09 KCAL/MOL
REMARK 923 INTER-LIGAND FREE ENERGY PREDICTED BY IDOCK:   -6.29 KCAL/MOL
REMARK 924 INTRA-LIGAND FREE ENERGY PREDICTED BY IDOCK:   -0.80 KCAL/MOL
REMARK 927      BINDING AFFINITY PREDICTED BY RF-SCORE:    0.00 PKD
ROOT
HETATM    1 CL   UNL     1      -7.123  17.331  66.185  1.00  0.00    -0.313 Cl 
HETATM    2  C   UNL     1      -8.460  18.349  66.565  1.00  0.00    -0.270 A  
HETATM    3  C   UNL     1      -9.797  18.024  66.496  1.00  0.00    -0.353 A  
HETATM    4  C   UNL     1     -10.589  19.142  66.943  1.00  0.00    -0.540 A  
HETATM    5  S   UNL     1      -8.153  19.925  67.101  1.00  0.00    -0.318 SA 
HETATM    6  C   UNL     1      -9.824  20.235  67.292  1.00  0.00    -0.452 A  
ENDROOT
BRANCH   3   7
HETATM    7  C   UNL     1     -10.349  16.693  66.075  1.00  0.00    -0.340 C  
BRANCH   7   8
HETATM    8  O   UNL     1     -10.810  15.951  67.204  1.00  0.00    -0.319 OA 
BRANCH   8   9
HETATM    9  C   UNL     1     -10.449  14.556  67.236  1.00  0.00    -0.266 C  
BRANCH   9  10
HETATM   10  C   UNL     1     -11.206  13.878  68.389  1.00  0.00    -0.291 A  
HETATM   11  C   UNL     1     -12.049  13.974  70.692  1.00  0.00    -0.424 A  
HETATM   12  C   UNL     1     -11.723  12.570  68.307  1.00  0.00    -0.340 A  
HETATM   13  C   UNL     1     -11.410  14.572  69.602  1.00  0.00    -0.314 A  
HETATM   14 CL   UNL     1     -11.689  11.646  66.846  1.00  0.00    -0.244 Cl 
HETATM   15 CL   UNL     1     -13.242  11.910  71.950  1.00  0.00    -0.554 Cl 
HETATM   16  C   UNL     1     -12.331  11.956  69.411  1.00  0.00    -0.056 A  
HETATM   17  C   UNL     1     -12.487  12.660  70.599  1.00  0.00    -0.239 A  
ENDBRANCH   9  10
BRANCH   9  18
HETATM   18  C   UNL     1      -8.911  14.383  67.308  1.00  0.00    -0.212 C  
BRANCH  18  19
HETATM   19  N   UNL     1      -8.464  13.010  67.404  1.00  0.00    -0.190 NA 
HETATM   20  N   UNL     1      -7.861  10.981  66.750  1.00  0.00    -0.142 NA 
HETATM   21  C   UNL     1      -7.972  12.387  68.515  1.00  0.00    -0.110 A  
HETATM   22  C   UNL     1      -7.610  11.131  68.088  1.00  0.00    -0.103 A  
HETATM   23  C   UNL     1      -8.365  12.128  66.362  1.00  0.00     0.106 A  
ENDBRANCH  18  19
ENDBRANCH   9  18
ENDBRANCH   8   9
ENDBRANCH   7   8
ENDBRANCH   3   7
TORSDOF 6
ENDMDL
MODEL      124
REMARK 921   NORMALIZED FREE ENERGY PREDICTED BY IDOCK:   -4.46 KCAL/MOL
REMARK 922        TOTAL FREE ENERGY PREDICTED BY IDOCK:   -7.07 KCAL/MOL
REMARK 923 INTER-LIGAND FREE ENERGY PREDICTED BY IDOCK:   -6.15 KCAL/MOL
REMARK 924 INTRA-LIGAND FREE ENERGY PREDICTED BY IDOCK:   -0.92 KCAL/MOL
REMARK 927      BINDING AFFINITY PREDICTED BY RF-SCORE:    0.00 PKD
ROOT
HETATM    1 CL   UNL     1     -10.867  16.579  69.621  1.00  0.00    -0.339 Cl 
HETATM    2  C   UNL     1     -11.716  15.506  70.668  1.00  0.00    -0.357 A  
HETATM    3  C   UNL     1     -12.225  14.265  70.351  1.00  0.00    -0.411 A  
HETATM    4  C   UNL     1     -12.821  13.675  71.522  1.00  0.00    -0.445 A  
HETATM    5  S   UNL     1     -11.964  15.970  72.277  1.00  0.00    -0.563 SA 
HETATM    6  C   UNL     1     -12.754  14.495  72.629  1.00  0.00    -0.357 A  
ENDROOT
BRANCH   3   7
HETATM    7  C   UNL     1     -12.128  13.602  69.008  1.00  0.00    -0.309 C  
BRANCH   7   8
HETATM    8  O   UNL     1     -10.968  12.775  68.930  1.00  0.00    -0.245 OA 
BRANCH   8   9
HETATM    9  C   UNL     1     -10.058  13.060  67.849  1.00  0.00    -0.235 C  
BRANCH   9  10
HETATM   10  C   UNL     1      -9.727  11.745  67.124  1.00  0.00    -0.194 A  
HETATM   11  C   UNL     1      -8.956   9.418  67.242  1.00  0.00    -0.143 A  
HETATM   12  C   UNL     1      -9.814  11.593  65.726  1.00  0.00    -0.239 A  
HETATM   13  C   UNL     1      -9.314  10.617  67.866  1.00  0.00    -0.154 A  
HETATM   14 CL   UNL     1     -10.446  12.829  64.694  1.00  0.00    -0.349 Cl 
HETATM   15 CL   UNL     1      -8.517   7.863  65.085  1.00  0.00    -0.130 Cl 
HETATM   16  C   UNL     1      -9.420  10.405  65.096  1.00  0.00    -0.303 A  
HETATM   17  C   UNL     1      -8.990   9.325  65.857  1.00  0.00    -0.184 A  
ENDBRANCH   9  10
BRANCH   9  18
HETATM   18  C   UNL     1      -8.811  13.824  68.360  1.00  0.00    -0.165 C  
BRANCH  18  19
HETATM   19  N   UNL     1      -8.506  15.035  67.630  1.00  0.00    -0.151 NA 
HETATM   20  N   UNL     1      -7.432  16.883  67.046  1.00  0.00    -0.176 NA 
HETATM   21  C   UNL     1      -9.085  15.455  66.467  1.00  0.00    -0.300 A  
HETATM   22  C   UNL     1      -8.408  16.603  66.127  1.00  0.00    -0.270 A  
HETATM   23  C   UNL     1      -7.507  15.920  67.934  1.00  0.00    -0.131 A  
ENDBRANCH  18  19
ENDBRANCH   9  18
ENDBRANCH   8   9
ENDBRANCH   7   8
ENDBRANCH   3   7
TORSDOF 6
ENDMDL
MODEL      125
REMARK 921   NORMALIZED FREE ENERGY PREDICTED BY IDOCK:   -4.45 KCAL/MOL
REMARK 922        TOTAL FREE ENERGY PREDICTED BY IDOCK:   -7.06 KCAL/MOL
REMARK 923 INTER-LIGAND FREE ENERGY PREDICTED BY IDOCK:   -6.27 KCAL/MOL
REMARK 924 INTRA-LIGAND FREE ENERGY PREDICTED BY IDOCK:   -0.79 KCAL/MOL
REMARK 927      BINDING AFFINITY PREDICTED BY RF-SCORE:    0.00 PKD
ROOT
HETATM    1 CL   UNL     1     -10.969  13.261  68.633  1.00  0.00    -0.279 Cl 
HETATM    2  C   UNL     1     -11.954  12.989  70.020  1.00  0.00    -0.312 A  
HETATM    3  C   UNL     1     -12.285  11.773  70.578  1.00  0.00    -0.438 A  
HETATM    4  C   UNL     1     -13.089  11.986  71.754  1.00  0.00    -0.460 A  
HETATM    5  S   UNL     1     -12.599  14.327  70.832  1.00  0.00    -0.376 SA 
HETATM    6  C   UNL     1     -13.338  13.320  72.000  1.00  0.00    -0.489 A  
ENDROOT
BRANCH   3   7
HETATM    7  C   UNL     1     -11.834  10.433  70.075  1.00  0.00    -0.273 C  
BRANCH   7   8
HETATM    8  O   UNL     1     -12.299   9.386  70.926  1.00  0.00    -0.274 OA 
BRANCH   8   9
HETATM    9  C   UNL     1     -11.283   8.578  71.553  1.00  0.00    -0.279 C  
BRANCH   9  10
HETATM   10  C   UNL     1     -10.576   7.748  70.469  1.00  0.00    -0.226 A  
HETATM   11  C   UNL     1     -10.702   6.020  68.731  1.00  0.00    -0.375 A  
HETATM   12  C   UNL     1      -9.197   7.850  70.198  1.00  0.00    -0.153 A  
HETATM   13  C   UNL     1     -11.315   6.831  69.691  1.00  0.00    -0.326 A  
HETATM   14 CL   UNL     1      -8.185   9.030  70.956  1.00  0.00    -0.214 Cl 
HETATM   15 CL   UNL     1      -8.568   5.081  67.380  1.00  0.00    -0.105 Cl 
HETATM   16  C   UNL     1      -8.575   7.013  69.262  1.00  0.00    -0.136 A  
HETATM   17  C   UNL     1      -9.330   6.100  68.536  1.00  0.00    -0.117 A  
ENDBRANCH   9  10
BRANCH   9  18
HETATM   18  C   UNL     1     -11.880   7.730  72.703  1.00  0.00    -0.262 C  
BRANCH  18  19
HETATM   19  N   UNL     1     -11.027   6.656  73.165  1.00  0.00    -0.256 NA 
HETATM   20  N   UNL     1      -9.382   5.643  74.249  1.00  0.00    -0.131 NA 
HETATM   21  C   UNL     1     -11.243   5.317  73.009  1.00  0.00    -0.324 A  
HETATM   22  C   UNL     1     -10.210   4.710  73.684  1.00  0.00    -0.179 A  
HETATM   23  C   UNL     1      -9.902   6.805  73.929  1.00  0.00    -0.289 A  
ENDBRANCH  18  19
ENDBRANCH   9  18
ENDBRANCH   8   9
ENDBRANCH   7   8
ENDBRANCH   3   7
TORSDOF 6
ENDMDL
MODEL      126
REMARK 921   NORMALIZED FREE ENERGY PREDICTED BY IDOCK:   -4.44 KCAL/MOL
REMARK 922        TOTAL FREE ENERGY PREDICTED BY IDOCK:   -7.05 KCAL/MOL
REMARK 923 INTER-LIGAND FREE ENERGY PREDICTED BY IDOCK:   -5.95 KCAL/MOL
REMARK 924 INTRA-LIGAND FREE ENERGY PREDICTED BY IDOCK:   -1.09 KCAL/MOL
REMARK 927      BINDING AFFINITY PREDICTED BY RF-SCORE:    0.00 PKD
ROOT
HETATM    1 CL   UNL     1      -8.427   7.954  68.649  1.00  0.00    -0.128 Cl 
HETATM    2  C   UNL     1      -8.100   9.095  67.400  1.00  0.00    -0.107 A  
HETATM    3  C   UNL     1      -8.263  10.462  67.460  1.00  0.00    -0.114 A  
HETATM    4  C   UNL     1      -7.831  11.053  66.219  1.00  0.00    -0.141 A  
HETATM    5  S   UNL     1      -7.494   8.529  65.924  1.00  0.00    -0.078 SA 
HETATM    6  C   UNL     1      -7.399  10.119  65.301  1.00  0.00    -0.141 A  
ENDROOT
BRANCH   3   7
HETATM    7  C   UNL     1      -8.762  11.228  68.650  1.00  0.00    -0.136 C  
BRANCH   7   8
HETATM    8  O   UNL     1     -10.188  11.220  68.702  1.00  0.00    -0.191 OA 
BRANCH   8   9
HETATM    9  C   UNL     1     -10.849  12.372  68.142  1.00  0.00    -0.221 C  
BRANCH   9  10
HETATM   10  C   UNL     1     -11.580  13.117  69.270  1.00  0.00    -0.370 A  
HETATM   11  C   UNL     1     -12.812  13.031  71.391  1.00  0.00    -0.385 A  
HETATM   12  C   UNL     1     -11.770  14.514  69.273  1.00  0.00    -0.310 A  
HETATM   13  C   UNL     1     -12.097  12.398  70.369  1.00  0.00    -0.381 A  
HETATM   14 CL   UNL     1     -11.070  15.551  68.080  1.00  0.00    -0.311 Cl 
HETATM   15 CL   UNL     1     -13.946  15.176  72.565  1.00  0.00    -0.583 Cl 
HETATM   16  C   UNL     1     -12.518  15.145  70.277  1.00  0.00    -0.388 A  
HETATM   17  C   UNL     1     -13.038  14.399  71.328  1.00  0.00    -0.351 A  
ENDBRANCH   9  10
BRANCH   9  18
HETATM   18  C   UNL     1     -11.767  11.965  66.962  1.00  0.00    -0.227 C  
BRANCH  18  19
HETATM   19  N   UNL     1     -11.229  12.258  65.651  1.00  0.00    -0.320 NA 
HETATM   20  N   UNL     1     -10.145  13.351  64.057  1.00  0.00    -0.102 NA 
HETATM   21  C   UNL     1     -11.184  11.414  64.579  1.00  0.00    -0.180 A  
HETATM   22  C   UNL     1     -10.514  12.113  63.603  1.00  0.00    -0.460 A  
HETATM   23  C   UNL     1     -10.580  13.409  65.295  1.00  0.00    -0.325 A  
ENDBRANCH  18  19
ENDBRANCH   9  18
ENDBRANCH   8   9
ENDBRANCH   7   8
ENDBRANCH   3   7
TORSDOF 6
ENDMDL
MODEL      127
REMARK 921   NORMALIZED FREE ENERGY PREDICTED BY IDOCK:   -4.44 KCAL/MOL
REMARK 922        TOTAL FREE ENERGY PREDICTED BY IDOCK:   -7.04 KCAL/MOL
REMARK 923 INTER-LIGAND FREE ENERGY PREDICTED BY IDOCK:   -6.65 KCAL/MOL
REMARK 924 INTRA-LIGAND FREE ENERGY PREDICTED BY IDOCK:   -0.39 KCAL/MOL
REMARK 927      BINDING AFFINITY PREDICTED BY RF-SCORE:    0.00 PKD
ROOT
HETATM    1 CL   UNL     1     -10.848  16.672  70.206  1.00  0.00    -0.195 Cl 
HETATM    2  C   UNL     1     -11.895  15.732  71.200  1.00  0.00    -0.425 A  
HETATM    3  C   UNL     1     -12.575  14.588  70.841  1.00  0.00    -0.414 A  
HETATM    4  C   UNL     1     -13.304  14.086  71.978  1.00  0.00    -0.514 A  
HETATM    5  S   UNL     1     -12.138  16.213  72.805  1.00  0.00    -0.545 SA 
HETATM    6  C   UNL     1     -13.160  14.874  73.100  1.00  0.00    -0.507 A  
ENDROOT
BRANCH   3   7
HETATM    7  C   UNL     1     -12.524  13.931  69.493  1.00  0.00    -0.095 C  
BRANCH   7   8
HETATM    8  O   UNL     1     -11.418  13.035  69.404  1.00  0.00    -0.273 OA 
BRANCH   8   9
HETATM    9  C   UNL     1     -10.917  12.773  68.078  1.00  0.00    -0.239 C  
BRANCH   9  10
HETATM   10  C   UNL     1     -10.341  11.348  68.041  1.00  0.00    -0.204 A  
HETATM   11  C   UNL     1      -8.683   9.776  67.147  1.00  0.00    -0.137 A  
HETATM   12  C   UNL     1     -10.892  10.276  68.770  1.00  0.00    -0.230 A  
HETATM   13  C   UNL     1      -9.207  11.068  67.248  1.00  0.00    -0.156 A  
HETATM   14 CL   UNL     1     -12.185  10.486  69.899  1.00  0.00    -0.320 Cl 
HETATM   15 CL   UNL     1      -8.670   7.133  67.678  1.00  0.00    -0.121 Cl 
HETATM   16  C   UNL     1     -10.391   8.973  68.641  1.00  0.00    -0.233 A  
HETATM   17  C   UNL     1      -9.291   8.730  67.828  1.00  0.00    -0.141 A  
ENDBRANCH   9  10
BRANCH   9  18
HETATM   18  C   UNL     1      -9.913  13.867  67.639  1.00  0.00    -0.237 C  
BRANCH  18  19
HETATM   19  N   UNL     1     -10.366  14.697  66.543  1.00  0.00    -0.276 NA 
HETATM   20  N   UNL     1     -10.883  16.531  65.414  1.00  0.00    -0.391 NA 
HETATM   21  C   UNL     1     -10.611  14.293  65.261  1.00  0.00    -0.381 A  
HETATM   22  C   UNL     1     -10.934  15.444  64.582  1.00  0.00    -0.314 A  
HETATM   23  C   UNL     1     -10.530  16.054  66.584  1.00  0.00    -0.304 A  
ENDBRANCH  18  19
ENDBRANCH   9  18
ENDBRANCH   8   9
ENDBRANCH   7   8
ENDBRANCH   3   7
TORSDOF 6
ENDMDL
MODEL      128
REMARK 921   NORMALIZED FREE ENERGY PREDICTED BY IDOCK:   -4.44 KCAL/MOL
REMARK 922        TOTAL FREE ENERGY PREDICTED BY IDOCK:   -7.04 KCAL/MOL
REMARK 923 INTER-LIGAND FREE ENERGY PREDICTED BY IDOCK:   -6.40 KCAL/MOL
REMARK 924 INTRA-LIGAND FREE ENERGY PREDICTED BY IDOCK:   -0.64 KCAL/MOL
REMARK 927      BINDING AFFINITY PREDICTED BY RF-SCORE:    0.00 PKD
ROOT
HETATM    1 CL   UNL     1     -10.303  15.103  65.015  1.00  0.00    -0.407 Cl 
HETATM    2  C   UNL     1     -10.542  15.838  66.554  1.00  0.00    -0.306 A  
HETATM    3  C   UNL     1     -11.007  15.231  67.701  1.00  0.00    -0.311 A  
HETATM    4  C   UNL     1     -11.015  16.185  68.781  1.00  0.00    -0.330 A  
HETATM    5  S   UNL     1     -10.164  17.478  66.738  1.00  0.00    -0.321 SA 
HETATM    6  C   UNL     1     -10.590  17.438  68.394  1.00  0.00    -0.355 A  
ENDROOT
BRANCH   3   7
HETATM    7  C   UNL     1     -11.395  13.787  67.826  1.00  0.00    -0.303 C  
BRANCH   7   8
HETATM    8  O   UNL     1     -10.303  13.005  68.308  1.00  0.00    -0.239 OA 
BRANCH   8   9
HETATM    9  C   UNL     1     -10.243  11.643  67.842  1.00  0.00    -0.189 C  
BRANCH   9  10
HETATM   10  C   UNL     1     -10.080  10.714  69.056  1.00  0.00    -0.226 A  
HETATM   11  C   UNL     1      -8.646   9.245  70.400  1.00  0.00    -0.250 A  
HETATM   12  C   UNL     1     -11.140  10.397  69.930  1.00  0.00    -0.305 A  
HETATM   13  C   UNL     1      -8.824  10.134  69.336  1.00  0.00    -0.197 A  
HETATM   14 CL   UNL     1     -12.697  11.140  69.813  1.00  0.00    -0.126 Cl 
HETATM   15 CL   UNL     1      -9.519   7.783  72.489  1.00  0.00    -0.218 Cl 
HETATM   16  C   UNL     1     -10.972   9.477  70.974  1.00  0.00    -0.424 A  
HETATM   17  C   UNL     1      -9.727   8.903  71.201  1.00  0.00    -0.274 A  
ENDBRANCH   9  10
BRANCH   9  18
HETATM   18  C   UNL     1      -9.138  11.472  66.770  1.00  0.00    -0.181 C  
BRANCH  18  19
HETATM   19  N   UNL     1      -9.629  11.333  65.416  1.00  0.00    -0.223 NA 
HETATM   20  N   UNL     1      -9.806  10.553  63.350  1.00  0.00    -0.308 NA 
HETATM   21  C   UNL     1     -10.752  11.906  64.892  1.00  0.00    -0.301 A  
HETATM   22  C   UNL     1     -10.839  11.413  63.611  1.00  0.00    -0.384 A  
HETATM   23  C   UNL     1      -9.099  10.516  64.455  1.00  0.00    -0.225 A  
ENDBRANCH  18  19
ENDBRANCH   9  18
ENDBRANCH   8   9
ENDBRANCH   7   8
ENDBRANCH   3   7
TORSDOF 6
ENDMDL
MODEL      129
REMARK 921   NORMALIZED FREE ENERGY PREDICTED BY IDOCK:   -4.42 KCAL/MOL
REMARK 922        TOTAL FREE ENERGY PREDICTED BY IDOCK:   -7.01 KCAL/MOL
REMARK 923 INTER-LIGAND FREE ENERGY PREDICTED BY IDOCK:   -6.37 KCAL/MOL
REMARK 924 INTRA-LIGAND FREE ENERGY PREDICTED BY IDOCK:   -0.64 KCAL/MOL
REMARK 927      BINDING AFFINITY PREDICTED BY RF-SCORE:    0.00 PKD
ROOT
HETATM    1 CL   UNL     1      -9.230  11.072  65.193  1.00  0.00    -0.229 Cl 
HETATM    2  C   UNL     1      -8.942   9.826  66.347  1.00  0.00    -0.151 A  
HETATM    3  C   UNL     1      -9.722   9.507  67.437  1.00  0.00    -0.201 A  
HETATM    4  C   UNL     1      -9.156   8.371  68.119  1.00  0.00    -0.138 A  
HETATM    5  S   UNL     1      -7.575   8.846  66.158  1.00  0.00    -0.091 SA 
HETATM    6  C   UNL     1      -7.990   7.921  67.535  1.00  0.00    -0.123 A  
ENDROOT
BRANCH   3   7
HETATM    7  C   UNL     1     -10.997  10.196  67.827  1.00  0.00    -0.277 C  
BRANCH   7   8
HETATM    8  O   UNL     1     -10.753  11.204  68.807  1.00  0.00    -0.178 OA 
BRANCH   8   9
HETATM    9  C   UNL     1     -11.874  12.044  69.147  1.00  0.00    -0.311 C  
BRANCH   9  10
HETATM   10  C   UNL     1     -11.544  13.492  68.751  1.00  0.00    -0.362 A  
HETATM   11  C   UNL     1     -10.808  15.736  69.417  1.00  0.00    -0.269 A  
HETATM   12  C   UNL     1     -11.688  13.983  67.438  1.00  0.00    -0.388 A  
HETATM   13  C   UNL     1     -11.072  14.398  69.725  1.00  0.00    -0.202 A  
HETATM   14 CL   UNL     1     -12.110  12.964  66.105  1.00  0.00    -0.485 Cl 
HETATM   15 CL   UNL     1     -10.734  17.855  67.754  1.00  0.00    -0.391 Cl 
HETATM   16  C   UNL     1     -11.460  15.332  67.136  1.00  0.00    -0.202 A  
HETATM   17  C   UNL     1     -11.024  16.202  68.128  1.00  0.00    -0.341 A  
ENDBRANCH   9  10
BRANCH   9  18
HETATM   18  C   UNL     1     -12.261  11.874  70.638  1.00  0.00    -0.331 C  
BRANCH  18  19
HETATM   19  N   UNL     1     -12.368  10.500  71.079  1.00  0.00    -0.362 NA 
HETATM   20  N   UNL     1     -11.744   8.527  71.870  1.00  0.00    -0.316 NA 
HETATM   21  C   UNL     1     -13.520   9.800  71.298  1.00  0.00    -0.290 A  
HETATM   22  C   UNL     1     -13.109   8.581  71.783  1.00  0.00    -0.355 A  
HETATM   23  C   UNL     1     -11.324   9.697  71.450  1.00  0.00    -0.374 A  
ENDBRANCH  18  19
ENDBRANCH   9  18
ENDBRANCH   8   9
ENDBRANCH   7   8
ENDBRANCH   3   7
TORSDOF 6
ENDMDL
MODEL      130
REMARK 921   NORMALIZED FREE ENERGY PREDICTED BY IDOCK:   -4.41 KCAL/MOL
REMARK 922        TOTAL FREE ENERGY PREDICTED BY IDOCK:   -7.00 KCAL/MOL
REMARK 923 INTER-LIGAND FREE ENERGY PREDICTED BY IDOCK:   -5.84 KCAL/MOL
REMARK 924 INTRA-LIGAND FREE ENERGY PREDICTED BY IDOCK:   -1.15 KCAL/MOL
REMARK 927      BINDING AFFINITY PREDICTED BY RF-SCORE:    0.00 PKD
ROOT
HETATM    1 CL   UNL     1     -10.845   9.823  67.386  1.00  0.00    -0.318 Cl 
HETATM    2  C   UNL     1     -11.365  10.789  68.714  1.00  0.00    -0.288 A  
HETATM    3  C   UNL     1     -11.620  12.143  68.707  1.00  0.00    -0.380 A  
HETATM    4  C   UNL     1     -12.078  12.554  70.009  1.00  0.00    -0.337 A  
HETATM    5  S   UNL     1     -11.621  10.040  70.211  1.00  0.00    -0.271 SA 
HETATM    6  C   UNL     1     -12.118  11.516  70.917  1.00  0.00    -0.247 A  
ENDROOT
BRANCH   3   7
HETATM    7  C   UNL     1     -11.495  13.046  67.514  1.00  0.00    -0.328 C  
BRANCH   7   8
HETATM    8  O   UNL     1     -10.136  13.150  67.093  1.00  0.00    -0.237 OA 
BRANCH   8   9
HETATM    9  C   UNL     1      -9.268  13.931  67.938  1.00  0.00    -0.198 C  
BRANCH   9  10
HETATM   10  C   UNL     1      -9.544  15.421  67.685  1.00  0.00    -0.210 A  
HETATM   11  C   UNL     1      -9.404  17.359  66.185  1.00  0.00    -0.176 A  
HETATM   12  C   UNL     1     -10.121  16.272  68.649  1.00  0.00    -0.233 A  
HETATM   13  C   UNL     1      -9.216  15.997  66.438  1.00  0.00    -0.339 A  
HETATM   14 CL   UNL     1     -10.715  15.691  70.166  1.00  0.00    -0.333 Cl 
HETATM   15 CL   UNL     1     -10.114  19.863  66.884  1.00  0.00    -0.541 Cl 
HETATM   16  C   UNL     1     -10.276  17.645  68.410  1.00  0.00    -0.381 A  
HETATM   17  C   UNL     1      -9.913  18.180  67.181  1.00  0.00    -0.336 A  
ENDBRANCH   9  10
BRANCH   9  18
HETATM   18  C   UNL     1      -7.786  13.524  67.736  1.00  0.00    -0.167 C  
BRANCH  18  19
HETATM   19  N   UNL     1      -7.537  12.101  67.811  1.00  0.00    -0.119 NA 
HETATM   20  N   UNL     1      -7.303  10.086  68.702  1.00  0.00    -0.079 NA 
HETATM   21  C   UNL     1      -7.423  11.236  66.761  1.00  0.00    -0.146 A  
HETATM   22  C   UNL     1      -7.275   9.996  67.336  1.00  0.00    -0.085 A  
HETATM   23  C   UNL     1      -7.471  11.362  68.960  1.00  0.00    -0.093 A  
ENDBRANCH  18  19
ENDBRANCH   9  18
ENDBRANCH   8   9
ENDBRANCH   7   8
ENDBRANCH   3   7
TORSDOF 6
ENDMDL
MODEL      131
REMARK 921   NORMALIZED FREE ENERGY PREDICTED BY IDOCK:   -4.39 KCAL/MOL
REMARK 922        TOTAL FREE ENERGY PREDICTED BY IDOCK:   -6.97 KCAL/MOL
REMARK 923 INTER-LIGAND FREE ENERGY PREDICTED BY IDOCK:   -6.26 KCAL/MOL
REMARK 924 INTRA-LIGAND FREE ENERGY PREDICTED BY IDOCK:   -0.72 KCAL/MOL
REMARK 927      BINDING AFFINITY PREDICTED BY RF-SCORE:    0.00 PKD
ROOT
HETATM    1 CL   UNL     1      -8.520  10.727  65.032  1.00  0.00    -0.130 Cl 
HETATM    2  C   UNL     1      -9.965  11.663  65.076  1.00  0.00    -0.259 A  
HETATM    3  C   UNL     1     -10.443  12.403  66.135  1.00  0.00    -0.274 A  
HETATM    4  C   UNL     1     -11.658  13.073  65.745  1.00  0.00    -0.396 A  
HETATM    5  S   UNL     1     -10.932  11.727  63.688  1.00  0.00    -0.447 SA 
HETATM    6  C   UNL     1     -12.036  12.788  64.450  1.00  0.00    -0.416 A  
ENDROOT
BRANCH   3   7
HETATM    7  C   UNL     1      -9.777  12.540  67.473  1.00  0.00    -0.196 C  
BRANCH   7   8
HETATM    8  O   UNL     1      -9.329  11.272  67.952  1.00  0.00    -0.153 OA 
BRANCH   8   9
HETATM    9  C   UNL     1     -10.179  10.622  68.917  1.00  0.00    -0.201 C  
BRANCH   9  10
HETATM   10  C   UNL     1     -10.155   9.107  68.653  1.00  0.00    -0.212 A  
HETATM   11  C   UNL     1     -10.537   7.237  67.112  1.00  0.00    -0.416 A  
HETATM   12  C   UNL     1      -9.801   8.161  69.636  1.00  0.00    -0.184 A  
HETATM   13  C   UNL     1     -10.498   8.609  67.378  1.00  0.00    -0.351 A  
HETATM   14 CL   UNL     1      -9.213   8.616  71.197  1.00  0.00    -0.241 Cl 
HETATM   15 CL   UNL     1     -10.327   4.641  67.807  1.00  0.00    -0.032 Cl 
HETATM   16  C   UNL     1      -9.875   6.785  69.381  1.00  0.00    -0.162 A  
HETATM   17  C   UNL     1     -10.246   6.330  68.122  1.00  0.00    -0.169 A  
ENDBRANCH   9  10
BRANCH   9  18
HETATM   18  C   UNL     1     -11.601  11.237  68.906  1.00  0.00    -0.319 C  
BRANCH  18  19
HETATM   19  N   UNL     1     -12.263  11.248  70.193  1.00  0.00    -0.328 NA 
HETATM   20  N   UNL     1     -13.245  12.056  72.007  1.00  0.00    -0.465 NA 
HETATM   21  C   UNL     1     -12.762  10.168  70.863  1.00  0.00    -0.357 A  
HETATM   22  C   UNL     1     -13.361  10.692  71.984  1.00  0.00    -0.304 A  
HETATM   23  C   UNL     1     -12.588  12.365  70.913  1.00  0.00    -0.246 A  
ENDBRANCH  18  19
ENDBRANCH   9  18
ENDBRANCH   8   9
ENDBRANCH   7   8
ENDBRANCH   3   7
TORSDOF 6
ENDMDL
MODEL      132
REMARK 921   NORMALIZED FREE ENERGY PREDICTED BY IDOCK:   -4.39 KCAL/MOL
REMARK 922        TOTAL FREE ENERGY PREDICTED BY IDOCK:   -6.97 KCAL/MOL
REMARK 923 INTER-LIGAND FREE ENERGY PREDICTED BY IDOCK:   -6.27 KCAL/MOL
REMARK 924 INTRA-LIGAND FREE ENERGY PREDICTED BY IDOCK:   -0.70 KCAL/MOL
REMARK 927      BINDING AFFINITY PREDICTED BY RF-SCORE:    0.00 PKD
ROOT
HETATM    1 CL   UNL     1      -8.463   7.779  74.293  1.00  0.00    -0.286 Cl 
HETATM    2  C   UNL     1      -9.466   6.419  73.958  1.00  0.00    -0.182 A  
HETATM    3  C   UNL     1     -10.693   6.427  73.332  1.00  0.00    -0.286 A  
HETATM    4  C   UNL     1     -11.177   5.076  73.205  1.00  0.00    -0.408 A  
HETATM    5  S   UNL     1      -8.924   4.881  74.410  1.00  0.00    -0.111 SA 
HETATM    6  C   UNL     1     -10.320   4.145  73.753  1.00  0.00    -0.177 A  
ENDROOT
BRANCH   3   7
HETATM    7  C   UNL     1     -11.397   7.645  72.811  1.00  0.00    -0.367 C  
BRANCH   7   8
HETATM    8  O   UNL     1     -10.495   8.491  72.099  1.00  0.00    -0.297 OA 
BRANCH   8   9
HETATM    9  C   UNL     1     -10.535   8.397  70.662  1.00  0.00    -0.200 C  
BRANCH   9  10
HETATM   10  C   UNL     1     -10.848   9.787  70.085  1.00  0.00    -0.340 A  
HETATM   11  C   UNL     1     -12.053  11.916  70.273  1.00  0.00    -0.409 A  
HETATM   12  C   UNL     1     -10.319  10.250  68.864  1.00  0.00    -0.204 A  
HETATM   13  C   UNL     1     -11.703  10.664  70.787  1.00  0.00    -0.435 A  
HETATM   14 CL   UNL     1      -9.144   9.359  67.961  1.00  0.00    -0.128 Cl 
HETATM   15 CL   UNL     1     -12.022  13.839  68.384  1.00  0.00    -0.403 Cl 
HETATM   16  C   UNL     1     -10.699  11.489  68.329  1.00  0.00    -0.247 A  
HETATM   17  C   UNL     1     -11.566  12.314  69.036  1.00  0.00    -0.316 A  
ENDBRANCH   9  10
BRANCH   9  18
HETATM   18  C   UNL     1     -11.521   7.292  70.207  1.00  0.00    -0.210 C  
BRANCH  18  19
HETATM   19  N   UNL     1     -10.937   6.274  69.360  1.00  0.00    -0.338 NA 
HETATM   20  N   UNL     1     -10.327   5.226  67.506  1.00  0.00    -0.184 NA 
HETATM   21  C   UNL     1     -10.129   5.248  69.756  1.00  0.00    -0.264 A  
HETATM   22  C   UNL     1      -9.767   4.610  68.593  1.00  0.00    -0.149 A  
HETATM   23  C   UNL     1     -11.018   6.229  67.995  1.00  0.00    -0.327 A  
ENDBRANCH  18  19
ENDBRANCH   9  18
ENDBRANCH   8   9
ENDBRANCH   7   8
ENDBRANCH   3   7
TORSDOF 6
ENDMDL
MODEL      133
REMARK 921   NORMALIZED FREE ENERGY PREDICTED BY IDOCK:   -4.36 KCAL/MOL
REMARK 922        TOTAL FREE ENERGY PREDICTED BY IDOCK:   -6.93 KCAL/MOL
REMARK 923 INTER-LIGAND FREE ENERGY PREDICTED BY IDOCK:   -6.49 KCAL/MOL
REMARK 924 INTRA-LIGAND FREE ENERGY PREDICTED BY IDOCK:   -0.44 KCAL/MOL
REMARK 927      BINDING AFFINITY PREDICTED BY RF-SCORE:    0.00 PKD
ROOT
HETATM    1 CL   UNL     1      -6.042  11.460  66.583  1.00  0.00    -0.143 Cl 
HETATM    2  C   UNL     1      -7.560  11.220  67.363  1.00  0.00    -0.120 A  
HETATM    3  C   UNL     1      -8.547  12.160  67.566  1.00  0.00    -0.171 A  
HETATM    4  C   UNL     1      -9.675  11.540  68.213  1.00  0.00    -0.198 A  
HETATM    5  S   UNL     1      -7.937   9.676  67.946  1.00  0.00    -0.097 SA 
HETATM    6  C   UNL     1      -9.473  10.203  68.481  1.00  0.00    -0.158 A  
ENDROOT
BRANCH   3   7
HETATM    7  C   UNL     1      -8.484  13.595  67.133  1.00  0.00    -0.174 C  
BRANCH   7   8
HETATM    8  O   UNL     1      -9.694  13.986  66.485  1.00  0.00    -0.276 OA 
BRANCH   8   9
HETATM    9  C   UNL     1      -9.643  15.213  65.732  1.00  0.00    -0.309 C  
BRANCH   9  10
HETATM   10  C   UNL     1      -9.756  16.395  66.708  1.00  0.00    -0.263 A  
HETATM   11  C   UNL     1      -9.013  18.631  67.394  1.00  0.00    -0.284 A  
HETATM   12  C   UNL     1     -10.612  16.390  67.827  1.00  0.00    -0.321 A  
HETATM   13  C   UNL     1      -8.978  17.555  66.502  1.00  0.00    -0.284 A  
HETATM   14 CL   UNL     1     -11.736  15.112  68.133  1.00  0.00    -0.356 Cl 
HETATM   15 CL   UNL     1      -9.839  19.873  69.640  1.00  0.00    -0.139 Cl 
HETATM   16  C   UNL     1     -10.621  17.452  68.742  1.00  0.00    -0.283 A  
HETATM   17  C   UNL     1      -9.819  18.565  68.522  1.00  0.00    -0.381 A  
ENDBRANCH   9  10
BRANCH   9  18
HETATM   18  C   UNL     1     -10.714  15.221  64.612  1.00  0.00    -0.200 C  
BRANCH  18  19
HETATM   19  N   UNL     1     -11.401  13.961  64.427  1.00  0.00    -0.364 NA 
HETATM   20  N   UNL     1     -13.013  12.447  64.552  1.00  0.00    -0.810 NA 
HETATM   21  C   UNL     1     -11.011  12.928  63.623  1.00  0.00    -0.279 A  
HETATM   22  C   UNL     1     -12.021  12.001  63.720  1.00  0.00    -0.490 A  
HETATM   23  C   UNL     1     -12.619  13.631  64.956  1.00  0.00    -0.390 A  
ENDBRANCH  18  19
ENDBRANCH   9  18
ENDBRANCH   8   9
ENDBRANCH   7   8
ENDBRANCH   3   7
TORSDOF 6
ENDMDL
MODEL      134
REMARK 921   NORMALIZED FREE ENERGY PREDICTED BY IDOCK:   -4.34 KCAL/MOL
REMARK 922        TOTAL FREE ENERGY PREDICTED BY IDOCK:   -6.90 KCAL/MOL
REMARK 923 INTER-LIGAND FREE ENERGY PREDICTED BY IDOCK:   -6.21 KCAL/MOL
REMARK 924 INTRA-LIGAND FREE ENERGY PREDICTED BY IDOCK:   -0.69 KCAL/MOL
REMARK 927      BINDING AFFINITY PREDICTED BY RF-SCORE:    0.00 PKD
ROOT
HETATM    1 CL   UNL     1      -9.753   4.124  69.416  1.00  0.00    -0.263 Cl 
HETATM    2  C   UNL     1      -9.657   4.134  67.696  1.00  0.00    -0.163 A  
HETATM    3  C   UNL     1     -10.191   5.072  66.839  1.00  0.00    -0.270 A  
HETATM    4  C   UNL     1      -9.845   4.737  65.481  1.00  0.00    -0.163 A  
HETATM    5  S   UNL     1      -8.813   2.886  66.923  1.00  0.00    -0.152 SA 
HETATM    6  C   UNL     1      -9.108   3.575  65.386  1.00  0.00    -0.145 A  
ENDROOT
BRANCH   3   7
HETATM    7  C   UNL     1     -10.966   6.288  67.254  1.00  0.00    -0.366 C  
BRANCH   7   8
HETATM    8  O   UNL     1     -10.117   7.433  67.331  1.00  0.00    -0.172 OA 
BRANCH   8   9
HETATM    9  C   UNL     1     -10.615   8.542  68.106  1.00  0.00    -0.124 C  
BRANCH   9  10
HETATM   10  C   UNL     1     -10.566   9.810  67.238  1.00  0.00    -0.320 A  
HETATM   11  C   UNL     1      -9.888  10.900  65.147  1.00  0.00    -0.329 A  
HETATM   12  C   UNL     1     -11.069  11.055  67.666  1.00  0.00    -0.300 A  
HETATM   13  C   UNL     1      -9.997   9.759  65.947  1.00  0.00    -0.345 A  
HETATM   14 CL   UNL     1     -11.929  11.249  69.154  1.00  0.00    -0.404 Cl 
HETATM   15 CL   UNL     1     -10.171  13.535  64.658  1.00  0.00    -0.387 Cl 
HETATM   16  C   UNL     1     -10.928  12.207  66.880  1.00  0.00    -0.317 A  
HETATM   17  C   UNL     1     -10.335  12.123  65.626  1.00  0.00    -0.257 A  
ENDBRANCH   9  10
BRANCH   9  18
HETATM   18  C   UNL     1      -9.848   8.669  69.446  1.00  0.00    -0.184 C  
BRANCH  18  19
HETATM   19  N   UNL     1     -10.602   8.261  70.612  1.00  0.00    -0.211 NA 
HETATM   20  N   UNL     1     -11.817   6.972  71.941  1.00  0.00    -0.292 NA 
HETATM   21  C   UNL     1     -10.672   8.915  71.809  1.00  0.00    -0.362 A  
HETATM   22  C   UNL     1     -11.433   8.101  72.614  1.00  0.00    -0.387 A  
HETATM   23  C   UNL     1     -11.296   7.089  70.743  1.00  0.00    -0.298 A  
ENDBRANCH  18  19
ENDBRANCH   9  18
ENDBRANCH   8   9
ENDBRANCH   7   8
ENDBRANCH   3   7
TORSDOF 6
ENDMDL
MODEL      135
REMARK 921   NORMALIZED FREE ENERGY PREDICTED BY IDOCK:   -4.33 KCAL/MOL
REMARK 922        TOTAL FREE ENERGY PREDICTED BY IDOCK:   -6.89 KCAL/MOL
REMARK 923 INTER-LIGAND FREE ENERGY PREDICTED BY IDOCK:   -5.73 KCAL/MOL
REMARK 924 INTRA-LIGAND FREE ENERGY PREDICTED BY IDOCK:   -1.16 KCAL/MOL
REMARK 927      BINDING AFFINITY PREDICTED BY RF-SCORE:    0.00 PKD
ROOT
HETATM    1 CL   UNL     1      -8.265   6.324  68.284  1.00  0.00    -0.115 Cl 
HETATM    2  C   UNL     1      -7.465   7.711  67.648  1.00  0.00    -0.104 A  
HETATM    3  C   UNL     1      -7.348   8.948  68.243  1.00  0.00    -0.083 A  
HETATM    4  C   UNL     1      -6.563   9.815  67.401  1.00  0.00    -0.070 A  
HETATM    5  S   UNL     1      -6.708   7.589  66.139  1.00  0.00    -0.054 SA 
HETATM    6  C   UNL     1      -6.161   9.207  66.231  1.00  0.00    -0.064 A  
ENDROOT
BRANCH   3   7
HETATM    7  C   UNL     1      -7.903   9.325  69.586  1.00  0.00    -0.090 C  
BRANCH   7   8
HETATM    8  O   UNL     1      -8.774  10.450  69.481  1.00  0.00    -0.157 OA 
BRANCH   8   9
HETATM    9  C   UNL     1     -10.167  10.156  69.256  1.00  0.00    -0.223 C  
BRANCH   9  10
HETATM   10  C   UNL     1     -10.733  11.181  68.261  1.00  0.00    -0.234 A  
HETATM   11  C   UNL     1     -11.800  13.355  67.862  1.00  0.00    -0.392 A  
HETATM   12  C   UNL     1     -10.787  10.956  66.871  1.00  0.00    -0.249 A  
HETATM   13  C   UNL     1     -11.231  12.417  68.728  1.00  0.00    -0.318 A  
HETATM   14 CL   UNL     1     -10.083   9.562  66.126  1.00  0.00    -0.351 Cl 
HETATM   15 CL   UNL     1     -12.627  14.209  65.443  1.00  0.00    -0.500 Cl 
HETATM   16  C   UNL     1     -11.390  11.879  66.006  1.00  0.00    -0.375 A  
HETATM   17  C   UNL     1     -11.896  13.072  66.507  1.00  0.00    -0.403 A  
ENDBRANCH   9  10
BRANCH   9  18
HETATM   18  C   UNL     1     -10.942  10.090  70.596  1.00  0.00    -0.322 C  
BRANCH  18  19
HETATM   19  N   UNL     1     -11.580   8.818  70.860  1.00  0.00    -0.282 NA 
HETATM   20  N   UNL     1     -11.891   6.625  70.882  1.00  0.00    -0.377 NA 
HETATM   21  C   UNL     1     -12.661   8.599  71.666  1.00  0.00    -0.338 A  
HETATM   22  C   UNL     1     -12.837   7.235  71.661  1.00  0.00    -0.375 A  
HETATM   23  C   UNL     1     -11.142   7.599  70.420  1.00  0.00    -0.258 A  
ENDBRANCH  18  19
ENDBRANCH   9  18
ENDBRANCH   8   9
ENDBRANCH   7   8
ENDBRANCH   3   7
TORSDOF 6
ENDMDL
MODEL      136
REMARK 921   NORMALIZED FREE ENERGY PREDICTED BY IDOCK:   -4.33 KCAL/MOL
REMARK 922        TOTAL FREE ENERGY PREDICTED BY IDOCK:   -6.89 KCAL/MOL
REMARK 923 INTER-LIGAND FREE ENERGY PREDICTED BY IDOCK:   -6.51 KCAL/MOL
REMARK 924 INTRA-LIGAND FREE ENERGY PREDICTED BY IDOCK:   -0.38 KCAL/MOL
REMARK 927      BINDING AFFINITY PREDICTED BY RF-SCORE:    0.00 PKD
ROOT
HETATM    1 CL   UNL     1     -10.495  19.444  68.523  1.00  0.00    -0.380 Cl 
HETATM    2  C   UNL     1      -9.122  18.868  67.657  1.00  0.00    -0.283 A  
HETATM    3  C   UNL     1      -9.066  17.773  66.823  1.00  0.00    -0.273 A  
HETATM    4  C   UNL     1      -7.744  17.664  66.259  1.00  0.00    -0.324 A  
HETATM    5  S   UNL     1      -7.661  19.712  67.797  1.00  0.00    -0.290 SA 
HETATM    6  C   UNL     1      -6.886  18.645  66.709  1.00  0.00    -0.194 A  
ENDROOT
BRANCH   3   7
HETATM    7  C   UNL     1     -10.215  16.862  66.503  1.00  0.00    -0.318 C  
BRANCH   7   8
HETATM    8  O   UNL     1     -10.294  15.791  67.442  1.00  0.00    -0.269 OA 
BRANCH   8   9
HETATM    9  C   UNL     1     -11.617  15.291  67.725  1.00  0.00    -0.265 C  
BRANCH   9  10
HETATM   10  C   UNL     1     -11.845  15.336  69.244  1.00  0.00    -0.353 A  
HETATM   11  C   UNL     1     -13.411  15.322  71.134  1.00  0.00    -0.568 A  
HETATM   12  C   UNL     1     -10.798  15.476  70.177  1.00  0.00    -0.331 A  
HETATM   13  C   UNL     1     -13.155  15.236  69.763  1.00  0.00     0.342 A  
HETATM   14 CL   UNL     1      -9.132  15.461  69.714  1.00  0.00    -0.181 Cl 
HETATM   15 CL   UNL     1     -12.676  15.668  73.704  1.00  0.00    -0.656 Cl 
HETATM   16  C   UNL     1     -11.056  15.600  71.549  1.00  0.00    -0.252 A  
HETATM   17  C   UNL     1     -12.361  15.526  72.019  1.00  0.00    -0.399 A  
ENDBRANCH   9  10
BRANCH   9  18
HETATM   18  C   UNL     1     -11.824  13.889  67.101  1.00  0.00    -0.412 C  
BRANCH  18  19
HETATM   19  N   UNL     1     -10.693  12.996  67.236  1.00  0.00    -0.248 NA 
HETATM   20  N   UNL     1      -9.346  11.487  68.139  1.00  0.00    -0.179 NA 
HETATM   21  C   UNL     1      -9.795  12.663  66.263  1.00  0.00    -0.262 A  
HETATM   22  C   UNL     1      -8.968  11.732  66.845  1.00  0.00    -0.195 A  
HETATM   23  C   UNL     1     -10.391  12.254  68.345  1.00  0.00    -0.224 A  
ENDBRANCH  18  19
ENDBRANCH   9  18
ENDBRANCH   8   9
ENDBRANCH   7   8
ENDBRANCH   3   7
TORSDOF 6
ENDMDL
MODEL      137
REMARK 921   NORMALIZED FREE ENERGY PREDICTED BY IDOCK:   -4.33 KCAL/MOL
REMARK 922        TOTAL FREE ENERGY PREDICTED BY IDOCK:   -6.89 KCAL/MOL
REMARK 923 INTER-LIGAND FREE ENERGY PREDICTED BY IDOCK:   -5.77 KCAL/MOL
REMARK 924 INTRA-LIGAND FREE ENERGY PREDICTED BY IDOCK:   -1.12 KCAL/MOL
REMARK 927      BINDING AFFINITY PREDICTED BY RF-SCORE:    0.00 PKD
ROOT
HETATM    1 CL   UNL     1     -12.160  14.506  69.137  1.00  0.00    -0.329 Cl 
HETATM    2  C   UNL     1     -11.776  13.260  68.011  1.00  0.00    -0.359 A  
HETATM    3  C   UNL     1     -11.414  11.962  68.300  1.00  0.00    -0.372 A  
HETATM    4  C   UNL     1     -11.224  11.231  67.073  1.00  0.00    -0.324 A  
HETATM    5  S   UNL     1     -11.853  13.610  66.356  1.00  0.00    -0.422 SA 
HETATM    6  C   UNL     1     -11.424  12.006  65.950  1.00  0.00    -0.333 A  
ENDROOT
BRANCH   3   7
HETATM    7  C   UNL     1     -11.289  11.379  69.677  1.00  0.00    -0.275 C  
BRANCH   7   8
HETATM    8  O   UNL     1     -11.894  10.088  69.741  1.00  0.00    -0.150 OA 
BRANCH   8   9
HETATM    9  C   UNL     1     -11.177   9.088  70.491  1.00  0.00    -0.260 C  
BRANCH   9  10
HETATM   10  C   UNL     1     -10.218   8.353  69.540  1.00  0.00    -0.207 A  
HETATM   11  C   UNL     1      -9.886   7.035  67.497  1.00  0.00    -0.186 A  
HETATM   12  C   UNL     1      -8.834   8.238  69.781  1.00  0.00    -0.142 A  
HETATM   13  C   UNL     1     -10.715   7.755  68.362  1.00  0.00    -0.088 A  
HETATM   14 CL   UNL     1      -8.048   9.040  71.096  1.00  0.00    -0.198 Cl 
HETATM   15 CL   UNL     1      -7.523   5.971  66.756  1.00  0.00    -0.086 Cl 
HETATM   16  C   UNL     1      -8.008   7.485  68.935  1.00  0.00    -0.126 A  
HETATM   17  C   UNL     1      -8.539   6.885  67.800  1.00  0.00    -0.122 A  
ENDBRANCH   9  10
BRANCH   9  18
HETATM   18  C   UNL     1     -12.156   8.150  71.241  1.00  0.00    -0.288 C  
BRANCH  18  19
HETATM   19  N   UNL     1     -11.526   7.254  72.187  1.00  0.00    -0.264 NA 
HETATM   20  N   UNL     1     -10.382   6.595  73.966  1.00  0.00    -0.359 NA 
HETATM   21  C   UNL     1     -11.670   5.897  72.246  1.00  0.00    -0.252 A  
HETATM   22  C   UNL     1     -10.950   5.511  73.351  1.00  0.00    -0.275 A  
HETATM   23  C   UNL     1     -10.752   7.631  73.250  1.00  0.00    -0.350 A  
ENDBRANCH  18  19
ENDBRANCH   9  18
ENDBRANCH   8   9
ENDBRANCH   7   8
ENDBRANCH   3   7
TORSDOF 6
ENDMDL
MODEL      138
REMARK 921   NORMALIZED FREE ENERGY PREDICTED BY IDOCK:   -4.33 KCAL/MOL
REMARK 922        TOTAL FREE ENERGY PREDICTED BY IDOCK:   -6.89 KCAL/MOL
REMARK 923 INTER-LIGAND FREE ENERGY PREDICTED BY IDOCK:   -5.83 KCAL/MOL
REMARK 924 INTRA-LIGAND FREE ENERGY PREDICTED BY IDOCK:   -1.06 KCAL/MOL
REMARK 927      BINDING AFFINITY PREDICTED BY RF-SCORE:    0.00 PKD
ROOT
HETATM    1 CL   UNL     1     -13.779   9.302  72.252  1.00  0.00    -0.519 Cl 
HETATM    2  C   UNL     1     -12.113   8.969  71.971  1.00  0.00    -0.370 A  
HETATM    3  C   UNL     1     -11.274   9.615  71.088  1.00  0.00    -0.454 A  
HETATM    4  C   UNL     1      -9.947   9.063  71.192  1.00  0.00    -0.365 A  
HETATM    5  S   UNL     1     -11.370   7.735  72.860  1.00  0.00    -0.248 SA 
HETATM    6  C   UNL     1      -9.864   8.036  72.109  1.00  0.00    -0.223 A  
ENDROOT
BRANCH   3   7
HETATM    7  C   UNL     1     -11.663  10.756  70.194  1.00  0.00    -0.339 C  
BRANCH   7   8
HETATM    8  O   UNL     1     -11.593  10.375  68.821  1.00  0.00    -0.218 OA 
BRANCH   8   9
HETATM    9  C   UNL     1     -10.668  11.117  68.002  1.00  0.00    -0.211 C  
BRANCH   9  10
HETATM   10  C   UNL     1      -9.315  10.388  68.002  1.00  0.00    -0.145 A  
HETATM   11  C   UNL     1      -6.917  10.409  68.523  1.00  0.00    -0.062 A  
HETATM   12  C   UNL     1      -9.138   9.093  67.474  1.00  0.00    -0.124 A  
HETATM   13  C   UNL     1      -8.176  11.017  68.549  1.00  0.00    -0.146 A  
HETATM   14 CL   UNL     1     -10.459   8.132  66.906  1.00  0.00    -0.404 Cl 
HETATM   15 CL   UNL     1      -5.214   8.424  67.871  1.00  0.00    -0.033 Cl 
HETATM   16  C   UNL     1      -7.871   8.498  67.414  1.00  0.00    -0.098 A  
HETATM   17  C   UNL     1      -6.767   9.160  67.936  1.00  0.00    -0.068 A  
ENDBRANCH   9  10
BRANCH   9  18
HETATM   18  C   UNL     1     -10.584  12.594  68.462  1.00  0.00    -0.243 C  
BRANCH  18  19
HETATM   19  N   UNL     1     -10.764  13.566  67.404  1.00  0.00    -0.261 NA 
HETATM   20  N   UNL     1     -11.727  14.634  65.719  1.00  0.00    -0.335 NA 
HETATM   21  C   UNL     1      -9.996  14.670  67.171  1.00  0.00    -0.240 A  
HETATM   22  C   UNL     1     -10.608  15.314  66.121  1.00  0.00    -0.313 A  
HETATM   23  C   UNL     1     -11.802  13.592  66.514  1.00  0.00    -0.404 A  
ENDBRANCH  18  19
ENDBRANCH   9  18
ENDBRANCH   8   9
ENDBRANCH   7   8
ENDBRANCH   3   7
TORSDOF 6
ENDMDL
MODEL      139
REMARK 921   NORMALIZED FREE ENERGY PREDICTED BY IDOCK:   -4.30 KCAL/MOL
REMARK 922        TOTAL FREE ENERGY PREDICTED BY IDOCK:   -6.85 KCAL/MOL
REMARK 923 INTER-LIGAND FREE ENERGY PREDICTED BY IDOCK:   -6.05 KCAL/MOL
REMARK 924 INTRA-LIGAND FREE ENERGY PREDICTED BY IDOCK:   -0.80 KCAL/MOL
REMARK 927      BINDING AFFINITY PREDICTED BY RF-SCORE:    0.00 PKD
ROOT
HETATM    1 CL   UNL     1      -8.540   8.275  72.228  1.00  0.00    -0.237 Cl 
HETATM    2  C   UNL     1     -10.065   7.663  71.711  1.00  0.00    -0.173 A  
HETATM    3  C   UNL     1     -10.382   7.169  70.464  1.00  0.00    -0.215 A  
HETATM    4  C   UNL     1     -11.749   6.716  70.459  1.00  0.00    -0.453 A  
HETATM    5  S   UNL     1     -11.343   7.627  72.820  1.00  0.00    -0.336 SA 
HETATM    6  C   UNL     1     -12.384   6.912  71.667  1.00  0.00    -0.371 A  
ENDROOT
BRANCH   3   7
HETATM    7  C   UNL     1      -9.436   7.065  69.303  1.00  0.00    -0.147 C  
BRANCH   7   8
HETATM    8  O   UNL     1      -9.269   8.331  68.666  1.00  0.00    -0.143 OA 
BRANCH   8   9
HETATM    9  C   UNL     1      -9.567   8.377  67.257  1.00  0.00    -0.165 C  
BRANCH   9  10
HETATM   10  C   UNL     1     -10.209   9.735  66.934  1.00  0.00    -0.310 A  
HETATM   11  C   UNL     1     -11.595  11.629  67.654  1.00  0.00    -0.349 A  
HETATM   12  C   UNL     1     -10.099  10.359  65.675  1.00  0.00    -0.269 A  
HETATM   13  C   UNL     1     -10.953  10.416  67.922  1.00  0.00    -0.354 A  
HETATM   14 CL   UNL     1      -9.102   9.730  64.409  1.00  0.00    -0.283 Cl 
HETATM   15 CL   UNL     1     -12.336  13.656  66.040  1.00  0.00    -0.487 Cl 
HETATM   16  C   UNL     1     -10.772  11.556  65.393  1.00  0.00    -0.335 A  
HETATM   17  C   UNL     1     -11.519  12.182  66.383  1.00  0.00    -0.370 A  
ENDBRANCH   9  10
BRANCH   9  18
HETATM   18  C   UNL     1     -10.427   7.160  66.833  1.00  0.00    -0.294 C  
BRANCH  18  19
HETATM   19  N   UNL     1      -9.675   6.057  66.273  1.00  0.00    -0.122 NA 
HETATM   20  N   UNL     1      -9.181   3.980  65.682  1.00  0.00    -0.141 NA 
HETATM   21  C   UNL     1      -8.552   6.143  65.501  1.00  0.00    -0.130 A  
HETATM   22  C   UNL     1      -8.262   4.846  65.150  1.00  0.00    -0.124 A  
HETATM   23  C   UNL     1     -10.024   4.736  66.344  1.00  0.00    -0.241 A  
ENDBRANCH  18  19
ENDBRANCH   9  18
ENDBRANCH   8   9
ENDBRANCH   7   8
ENDBRANCH   3   7
TORSDOF 6
ENDMDL
MODEL      140
REMARK 921   NORMALIZED FREE ENERGY PREDICTED BY IDOCK:   -4.28 KCAL/MOL
REMARK 922        TOTAL FREE ENERGY PREDICTED BY IDOCK:   -6.83 KCAL/MOL
REMARK 923 INTER-LIGAND FREE ENERGY PREDICTED BY IDOCK:   -6.22 KCAL/MOL
REMARK 924 INTRA-LIGAND FREE ENERGY PREDICTED BY IDOCK:   -0.61 KCAL/MOL
REMARK 927      BINDING AFFINITY PREDICTED BY RF-SCORE:    0.00 PKD
ROOT
HETATM    1 CL   UNL     1     -10.962  16.541  65.133  1.00  0.00    -0.287 Cl 
HETATM    2  C   UNL     1     -10.149  16.906  66.607  1.00  0.00    -0.304 A  
HETATM    3  C   UNL     1     -10.355  16.318  67.837  1.00  0.00    -0.285 A  
HETATM    4  C   UNL     1      -9.438  16.877  68.797  1.00  0.00    -0.264 A  
HETATM    5  S   UNL     1      -8.946  18.097  66.597  1.00  0.00    -0.279 SA 
HETATM    6  C   UNL     1      -8.626  17.853  68.259  1.00  0.00    -0.275 A  
ENDROOT
BRANCH   3   7
HETATM    7  C   UNL     1     -11.341  15.224  68.125  1.00  0.00    -0.338 C  
BRANCH   7   8
HETATM    8  O   UNL     1     -10.686  14.073  68.655  1.00  0.00    -0.246 OA 
BRANCH   8   9
HETATM    9  C   UNL     1     -10.533  12.959  67.753  1.00  0.00    -0.220 C  
BRANCH   9  10
HETATM   10  C   UNL     1      -9.661  11.891  68.433  1.00  0.00    -0.201 A  
HETATM   11  C   UNL     1      -7.425  11.038  68.976  1.00  0.00    -0.129 A  
HETATM   12  C   UNL     1     -10.196  10.766  69.094  1.00  0.00    -0.211 A  
HETATM   13  C   UNL     1      -8.255  12.012  68.413  1.00  0.00    -0.151 A  
HETATM   14 CL   UNL     1     -11.895  10.551  69.336  1.00  0.00    -0.303 Cl 
HETATM   15 CL   UNL     1      -6.966   8.693  70.222  1.00  0.00    -0.039 Cl 
HETATM   16  C   UNL     1      -9.365   9.771  69.625  1.00  0.00    -0.237 A  
HETATM   17  C   UNL     1      -7.984   9.910  69.560  1.00  0.00    -0.148 A  
ENDBRANCH   9  10
BRANCH   9  18
HETATM   18  C   UNL     1      -9.992  13.428  66.379  1.00  0.00    -0.293 C  
BRANCH  18  19
HETATM   19  N   UNL     1     -10.782  13.003  65.244  1.00  0.00    -0.292 NA 
HETATM   20  N   UNL     1     -11.245  12.243  63.215  1.00  0.00    -0.393 NA 
HETATM   21  C   UNL     1     -12.129  12.781  65.223  1.00  0.00    -0.457 A  
HETATM   22  C   UNL     1     -12.394  12.316  63.957  1.00  0.00    -0.475 A  
HETATM   23  C   UNL     1     -10.290  12.653  64.016  1.00  0.00    -0.389 A  
ENDBRANCH  18  19
ENDBRANCH   9  18
ENDBRANCH   8   9
ENDBRANCH   7   8
ENDBRANCH   3   7
TORSDOF 6
ENDMDL
MODEL      141
REMARK 921   NORMALIZED FREE ENERGY PREDICTED BY IDOCK:   -4.28 KCAL/MOL
REMARK 922        TOTAL FREE ENERGY PREDICTED BY IDOCK:   -6.83 KCAL/MOL
REMARK 923 INTER-LIGAND FREE ENERGY PREDICTED BY IDOCK:   -5.96 KCAL/MOL
REMARK 924 INTRA-LIGAND FREE ENERGY PREDICTED BY IDOCK:   -0.87 KCAL/MOL
REMARK 927      BINDING AFFINITY PREDICTED BY RF-SCORE:    0.00 PKD
ROOT
HETATM    1 CL   UNL     1     -10.932   6.611  68.955  1.00  0.00    -0.315 Cl 
HETATM    2  C   UNL     1      -9.901   6.514  67.578  1.00  0.00    -0.124 A  
HETATM    3  C   UNL     1      -8.914   7.405  67.215  1.00  0.00    -0.128 A  
HETATM    4  C   UNL     1      -8.254   6.934  66.024  1.00  0.00    -0.125 A  
HETATM    5  S   UNL     1     -10.066   5.193  66.532  1.00  0.00    -0.265 SA 
HETATM    6  C   UNL     1      -8.784   5.753  65.548  1.00  0.00    -0.138 A  
ENDROOT
BRANCH   3   7
HETATM    7  C   UNL     1      -8.542   8.647  67.971  1.00  0.00    -0.137 C  
BRANCH   7   8
HETATM    8  O   UNL     1      -9.592   9.612  67.916  1.00  0.00    -0.137 OA 
BRANCH   8   9
HETATM    9  C   UNL     1      -9.633  10.567  68.995  1.00  0.00    -0.202 C  
BRANCH   9  10
HETATM   10  C   UNL     1     -10.740  10.154  69.977  1.00  0.00    -0.356 A  
HETATM   11  C   UNL     1     -13.084  10.308  70.686  1.00  0.00    -0.292 A  
HETATM   12  C   UNL     1     -10.511   9.317  71.087  1.00  0.00    -0.331 A  
HETATM   13  C   UNL     1     -12.060  10.619  69.788  1.00  0.00    -0.343 A  
HETATM   14 CL   UNL     1      -8.990   8.546  71.373  1.00  0.00    -0.234 Cl 
HETATM   15 CL   UNL     1     -14.060   9.179  72.931  1.00  0.00    -0.201 Cl 
HETATM   16  C   UNL     1     -11.529   9.034  72.009  1.00  0.00    -0.408 A  
HETATM   17  C   UNL     1     -12.809   9.534  71.805  1.00  0.00    -0.406 A  
ENDBRANCH   9  10
BRANCH   9  18
HETATM   18  C   UNL     1      -9.783  12.010  68.451  1.00  0.00    -0.199 C  
BRANCH  18  19
HETATM   19  N   UNL     1     -10.378  12.098  67.134  1.00  0.00    -0.213 NA 
HETATM   20  N   UNL     1     -11.938  12.356  65.583  1.00  0.00    -0.530 NA 
HETATM   21  C   UNL     1      -9.716  12.166  65.942  1.00  0.00    -0.239 A  
HETATM   22  C   UNL     1     -10.701  12.321  64.996  1.00  0.00    -0.298 A  
HETATM   23  C   UNL     1     -11.714  12.230  66.870  1.00  0.00    -0.334 A  
ENDBRANCH  18  19
ENDBRANCH   9  18
ENDBRANCH   8   9
ENDBRANCH   7   8
ENDBRANCH   3   7
TORSDOF 6
ENDMDL
MODEL      142
REMARK 921   NORMALIZED FREE ENERGY PREDICTED BY IDOCK:   -4.27 KCAL/MOL
REMARK 922        TOTAL FREE ENERGY PREDICTED BY IDOCK:   -6.81 KCAL/MOL
REMARK 923 INTER-LIGAND FREE ENERGY PREDICTED BY IDOCK:   -6.04 KCAL/MOL
REMARK 924 INTRA-LIGAND FREE ENERGY PREDICTED BY IDOCK:   -0.77 KCAL/MOL
REMARK 927      BINDING AFFINITY PREDICTED BY RF-SCORE:    0.00 PKD
ROOT
HETATM    1 CL   UNL     1     -11.794  11.869  63.574  1.00  0.00    -0.581 Cl 
HETATM    2  C   UNL     1     -11.811  12.498  65.177  1.00  0.00    -0.405 A  
HETATM    3  C   UNL     1     -11.264  11.920  66.302  1.00  0.00    -0.392 A  
HETATM    4  C   UNL     1     -11.455  12.792  67.433  1.00  0.00    -0.396 A  
HETATM    5  S   UNL     1     -12.552  13.995  65.453  1.00  0.00    -0.454 SA 
HETATM    6  C   UNL     1     -12.143  13.944  67.113  1.00  0.00    -0.387 A  
ENDROOT
BRANCH   3   7
HETATM    7  C   UNL     1     -10.533  10.610  66.340  1.00  0.00    -0.213 C  
BRANCH   7   8
HETATM    8  O   UNL     1      -9.754  10.494  67.530  1.00  0.00    -0.162 OA 
BRANCH   8   9
HETATM    9  C   UNL     1      -9.124   9.218  67.755  1.00  0.00    -0.126 C  
BRANCH   9  10
HETATM   10  C   UNL     1      -9.890   8.479  68.865  1.00  0.00    -0.181 A  
HETATM   11  C   UNL     1     -10.522   8.316  71.230  1.00  0.00    -0.262 A  
HETATM   12  C   UNL     1     -10.620   7.295  68.639  1.00  0.00    -0.168 A  
HETATM   13  C   UNL     1      -9.881   8.984  70.183  1.00  0.00    -0.213 A  
HETATM   14 CL   UNL     1     -10.854   6.633  67.059  1.00  0.00    -0.447 Cl 
HETATM   15 CL   UNL     1     -11.936   6.274  72.277  1.00  0.00    -0.338 Cl 
HETATM   16  C   UNL     1     -11.232   6.604  69.694  1.00  0.00    -0.397 A  
HETATM   17  C   UNL     1     -11.176   7.117  70.984  1.00  0.00    -0.269 A  
ENDBRANCH   9  10
BRANCH   9  18
HETATM   18  C   UNL     1      -7.612   9.390  68.044  1.00  0.00    -0.083 C  
BRANCH  18  19
HETATM   19  N   UNL     1      -7.165  10.764  68.116  1.00  0.00    -0.081 NA 
HETATM   20  N   UNL     1      -6.497  12.678  69.010  1.00  0.00    -0.091 NA 
HETATM   21  C   UNL     1      -6.763  11.547  67.072  1.00  0.00    -0.143 A  
HETATM   22  C   UNL     1      -6.359  12.728  67.649  1.00  0.00    -0.153 A  
HETATM   23  C   UNL     1      -6.976  11.483  69.265  1.00  0.00    -0.098 A  
ENDBRANCH  18  19
ENDBRANCH   9  18
ENDBRANCH   8   9
ENDBRANCH   7   8
ENDBRANCH   3   7
TORSDOF 6
ENDMDL
MODEL      143
REMARK 921   NORMALIZED FREE ENERGY PREDICTED BY IDOCK:   -4.25 KCAL/MOL
REMARK 922        TOTAL FREE ENERGY PREDICTED BY IDOCK:   -6.78 KCAL/MOL
REMARK 923 INTER-LIGAND FREE ENERGY PREDICTED BY IDOCK:   -5.89 KCAL/MOL
REMARK 924 INTRA-LIGAND FREE ENERGY PREDICTED BY IDOCK:   -0.90 KCAL/MOL
REMARK 927      BINDING AFFINITY PREDICTED BY RF-SCORE:    0.00 PKD
ROOT
HETATM    1 CL   UNL     1      -9.720  10.232  64.263  1.00  0.00    -0.379 Cl 
HETATM    2  C   UNL     1     -10.732  11.551  64.715  1.00  0.00    -0.306 A  
HETATM    3  C   UNL     1     -11.018  11.978  65.994  1.00  0.00    -0.346 A  
HETATM    4  C   UNL     1     -11.866  13.142  65.935  1.00  0.00    -0.453 A  
HETATM    5  S   UNL     1     -11.466  12.466  63.495  1.00  0.00    -0.476 SA 
HETATM    6  C   UNL     1     -12.188  13.506  64.644  1.00  0.00    -0.406 A  
ENDROOT
BRANCH   3   7
HETATM    7  C   UNL     1     -10.486  11.365  67.256  1.00  0.00    -0.206 C  
BRANCH   7   8
HETATM    8  O   UNL     1     -10.958  10.027  67.411  1.00  0.00    -0.283 OA 
BRANCH   8   9
HETATM    9  C   UNL     1      -9.960   9.034  67.719  1.00  0.00    -0.187 C  
BRANCH   9  10
HETATM   10  C   UNL     1     -10.460   8.182  68.897  1.00  0.00    -0.202 A  
HETATM   11  C   UNL     1     -11.014   8.014  71.282  1.00  0.00    -0.269 A  
HETATM   12  C   UNL     1     -10.785   6.816  68.776  1.00  0.00    -0.239 A  
HETATM   13  C   UNL     1     -10.611   8.765  70.174  1.00  0.00    -0.237 A  
HETATM   14 CL   UNL     1     -10.797   5.994  67.254  1.00  0.00    -0.392 Cl 
HETATM   15 CL   UNL     1     -11.725   5.721  72.508  1.00  0.00    -0.337 Cl 
HETATM   16  C   UNL     1     -11.153   6.053  69.893  1.00  0.00    -0.469 A  
HETATM   17  C   UNL     1     -11.262   6.656  71.140  1.00  0.00    -0.292 A  
ENDBRANCH   9  10
BRANCH   9  18
HETATM   18  C   UNL     1      -8.579   9.693  67.963  1.00  0.00    -0.119 C  
BRANCH  18  19
HETATM   19  N   UNL     1      -7.447   8.818  67.744  1.00  0.00    -0.092 NA 
HETATM   20  N   UNL     1      -5.800   7.797  66.672  1.00  0.00    -0.039 NA 
HETATM   21  C   UNL     1      -6.725   8.164  68.700  1.00  0.00    -0.058 A  
HETATM   22  C   UNL     1      -5.713   7.535  68.013  1.00  0.00    -0.027 A  
HETATM   23  C   UNL     1      -6.846   8.578  66.539  1.00  0.00    -0.071 A  
ENDBRANCH  18  19
ENDBRANCH   9  18
ENDBRANCH   8   9
ENDBRANCH   7   8
ENDBRANCH   3   7
TORSDOF 6
ENDMDL
MODEL      144
REMARK 921   NORMALIZED FREE ENERGY PREDICTED BY IDOCK:   -4.24 KCAL/MOL
REMARK 922        TOTAL FREE ENERGY PREDICTED BY IDOCK:   -6.77 KCAL/MOL
REMARK 923 INTER-LIGAND FREE ENERGY PREDICTED BY IDOCK:   -5.70 KCAL/MOL
REMARK 924 INTRA-LIGAND FREE ENERGY PREDICTED BY IDOCK:   -1.06 KCAL/MOL
REMARK 927      BINDING AFFINITY PREDICTED BY RF-SCORE:    0.00 PKD
ROOT
HETATM    1 CL   UNL     1     -12.020  14.603  68.930  1.00  0.00    -0.332 Cl 
HETATM    2  C   UNL     1     -12.269  13.111  69.753  1.00  0.00    -0.202 A  
HETATM    3  C   UNL     1     -12.104  11.842  69.240  1.00  0.00    -0.270 A  
HETATM    4  C   UNL     1     -12.369  10.869  70.269  1.00  0.00    -0.412 A  
HETATM    5  S   UNL     1     -12.754  13.150  71.374  1.00  0.00    -0.217 SA 
HETATM    6  C   UNL     1     -12.738  11.442  71.468  1.00  0.00    -0.357 A  
ENDROOT
BRANCH   3   7
HETATM    7  C   UNL     1     -11.661  11.518  67.843  1.00  0.00    -0.247 C  
BRANCH   7   8
HETATM    8  O   UNL     1     -10.240  11.413  67.770  1.00  0.00    -0.176 OA 
BRANCH   8   9
HETATM    9  C   UNL     1      -9.642  11.775  66.509  1.00  0.00    -0.210 C  
BRANCH   9  10
HETATM   10  C   UNL     1      -9.909  13.265  66.247  1.00  0.00    -0.288 A  
HETATM   11  C   UNL     1     -11.114  14.994  64.989  1.00  0.00    -0.421 A  
HETATM   12  C   UNL     1      -9.228  14.300  66.918  1.00  0.00    -0.254 A  
HETATM   13  C   UNL     1     -10.877  13.650  65.293  1.00  0.00    -0.324 A  
HETATM   14 CL   UNL     1      -8.125  13.998  68.217  1.00  0.00    -0.140 Cl 
HETATM   15 CL   UNL     1     -10.643  17.637  65.225  1.00  0.00    -0.030 Cl 
HETATM   16  C   UNL     1      -9.438  15.646  66.588  1.00  0.00    -0.282 A  
HETATM   17  C   UNL     1     -10.378  15.985  65.622  1.00  0.00    -0.392 A  
ENDBRANCH   9  10
BRANCH   9  18
HETATM   18  C   UNL     1     -10.132  10.840  65.375  1.00  0.00    -0.285 C  
BRANCH  18  19
HETATM   19  N   UNL     1      -9.087  10.361  64.496  1.00  0.00    -0.210 NA 
HETATM   20  N   UNL     1      -7.151   9.484  63.870  1.00  0.00    -0.104 NA 
HETATM   21  C   UNL     1      -9.179  10.169  63.147  1.00  0.00    -0.289 A  
HETATM   22  C   UNL     1      -7.968   9.630  62.781  1.00  0.00    -0.125 A  
HETATM   23  C   UNL     1      -7.852   9.923  64.889  1.00  0.00    -0.136 A  
ENDBRANCH  18  19
ENDBRANCH   9  18
ENDBRANCH   8   9
ENDBRANCH   7   8
ENDBRANCH   3   7
TORSDOF 6
ENDMDL
MODEL      145
REMARK 921   NORMALIZED FREE ENERGY PREDICTED BY IDOCK:   -4.23 KCAL/MOL
REMARK 922        TOTAL FREE ENERGY PREDICTED BY IDOCK:   -6.75 KCAL/MOL
REMARK 923 INTER-LIGAND FREE ENERGY PREDICTED BY IDOCK:   -6.06 KCAL/MOL
REMARK 924 INTRA-LIGAND FREE ENERGY PREDICTED BY IDOCK:   -0.69 KCAL/MOL
REMARK 927      BINDING AFFINITY PREDICTED BY RF-SCORE:    0.00 PKD
ROOT
HETATM    1 CL   UNL     1      -9.662  13.703  66.554  1.00  0.00    -0.287 Cl 
HETATM    2  C   UNL     1     -10.639  13.209  65.224  1.00  0.00    -0.313 A  
HETATM    3  C   UNL     1     -10.670  11.964  64.634  1.00  0.00    -0.356 A  
HETATM    4  C   UNL     1     -11.657  11.954  63.584  1.00  0.00    -0.559 A  
HETATM    5  S   UNL     1     -11.706  14.331  64.540  1.00  0.00    -0.405 SA 
HETATM    6  C   UNL     1     -12.284  13.172  63.424  1.00  0.00    -0.444 A  
ENDROOT
BRANCH   3   7
HETATM    7  C   UNL     1      -9.847  10.781  65.053  1.00  0.00    -0.288 C  
BRANCH   7   8
HETATM    8  O   UNL     1     -10.155  10.393  66.391  1.00  0.00    -0.212 OA 
BRANCH   8   9
HETATM    9  C   UNL     1      -9.049   9.917  67.184  1.00  0.00    -0.138 C  
BRANCH   9  10
HETATM   10  C   UNL     1      -9.192   8.397  67.365  1.00  0.00    -0.163 A  
HETATM   11  C   UNL     1     -10.647   6.428  67.524  1.00  0.00    -0.350 A  
HETATM   12  C   UNL     1      -8.094   7.542  67.584  1.00  0.00    -0.118 A  
HETATM   13  C   UNL     1     -10.469   7.798  67.315  1.00  0.00    -0.392 A  
HETATM   14 CL   UNL     1      -6.456   8.095  67.524  1.00  0.00    -0.056 Cl 
HETATM   15 CL   UNL     1      -9.769   3.945  68.096  1.00  0.00    -0.173 Cl 
HETATM   16  C   UNL     1      -8.273   6.174  67.832  1.00  0.00    -0.117 A  
HETATM   17  C   UNL     1      -9.550   5.625  67.804  1.00  0.00    -0.119 A  
ENDBRANCH   9  10
BRANCH   9  18
HETATM   18  C   UNL     1      -8.946  10.700  68.517  1.00  0.00    -0.156 C  
BRANCH  18  19
HETATM   19  N   UNL     1      -9.767  10.177  69.588  1.00  0.00    -0.234 NA 
HETATM   20  N   UNL     1     -11.588   9.726  70.766  1.00  0.00    -0.314 NA 
HETATM   21  C   UNL     1      -9.376   9.311  70.568  1.00  0.00    -0.264 A  
HETATM   22  C   UNL     1     -10.518   9.050  71.288  1.00  0.00    -0.311 A  
HETATM   23  C   UNL     1     -11.110  10.389  69.739  1.00  0.00    -0.295 A  
ENDBRANCH  18  19
ENDBRANCH   9  18
ENDBRANCH   8   9
ENDBRANCH   7   8
ENDBRANCH   3   7
TORSDOF 6
ENDMDL
MODEL      146
REMARK 921   NORMALIZED FREE ENERGY PREDICTED BY IDOCK:   -4.22 KCAL/MOL
REMARK 922        TOTAL FREE ENERGY PREDICTED BY IDOCK:   -6.75 KCAL/MOL
REMARK 923 INTER-LIGAND FREE ENERGY PREDICTED BY IDOCK:   -5.78 KCAL/MOL
REMARK 924 INTRA-LIGAND FREE ENERGY PREDICTED BY IDOCK:   -0.97 KCAL/MOL
REMARK 927      BINDING AFFINITY PREDICTED BY RF-SCORE:    0.00 PKD
ROOT
HETATM    1 CL   UNL     1      -6.652  14.946  70.065  1.00  0.00    -0.170 Cl 
HETATM    2  C   UNL     1      -7.628  15.390  68.716  1.00  0.00    -0.143 A  
HETATM    3  C   UNL     1      -8.458  14.568  67.985  1.00  0.00    -0.161 A  
HETATM    4  C   UNL     1      -9.130  15.341  66.972  1.00  0.00    -0.245 A  
HETATM    5  S   UNL     1      -7.615  17.003  68.202  1.00  0.00    -0.202 SA 
HETATM    6  C   UNL     1      -8.759  16.670  66.976  1.00  0.00    -0.200 A  
ENDROOT
BRANCH   3   7
HETATM    7  C   UNL     1      -8.675  13.105  68.236  1.00  0.00    -0.165 C  
BRANCH   7   8
HETATM    8  O   UNL     1      -9.892  12.885  68.949  1.00  0.00    -0.031 OA 
BRANCH   8   9
HETATM    9  C   UNL     1     -10.725  11.813  68.466  1.00  0.00    -0.220 C  
BRANCH   9  10
HETATM   10  C   UNL     1     -11.164  12.140  67.029  1.00  0.00    -0.370 A  
HETATM   11  C   UNL     1     -12.444  13.567  65.497  1.00  0.00    -0.538 A  
HETATM   12  C   UNL     1     -10.789  11.365  65.914  1.00  0.00    -0.234 A  
HETATM   13  C   UNL     1     -11.982  13.264  66.781  1.00  0.00    -0.438 A  
HETATM   14 CL   UNL     1      -9.673  10.049  66.029  1.00  0.00    -0.279 Cl 
HETATM   15 CL   UNL     1     -12.705  13.094  62.857  1.00  0.00     0.266 Cl 
HETATM   16  C   UNL     1     -11.282  11.646  64.632  1.00  0.00    -0.320 A  
HETATM   17  C   UNL     1     -12.109  12.743  64.432  1.00  0.00    -0.416 A  
ENDBRANCH   9  10
BRANCH   9  18
HETATM   18  C   UNL     1     -11.904  11.547  69.436  1.00  0.00    -0.350 C  
BRANCH  18  19
HETATM   19  N   UNL     1     -11.723  10.402  70.303  1.00  0.00    -0.296 NA 
HETATM   20  N   UNL     1     -12.044   9.034  72.015  1.00  0.00    -0.370 NA 
HETATM   21  C   UNL     1     -10.970   9.293  70.044  1.00  0.00    -0.229 A  
HETATM   22  C   UNL     1     -11.181   8.462  71.119  1.00  0.00    -0.263 A  
HETATM   23  C   UNL     1     -12.362  10.196  71.495  1.00  0.00    -0.408 A  
ENDBRANCH  18  19
ENDBRANCH   9  18
ENDBRANCH   8   9
ENDBRANCH   7   8
ENDBRANCH   3   7
TORSDOF 6
ENDMDL
MODEL      147
REMARK 921   NORMALIZED FREE ENERGY PREDICTED BY IDOCK:   -4.21 KCAL/MOL
REMARK 922        TOTAL FREE ENERGY PREDICTED BY IDOCK:   -6.74 KCAL/MOL
REMARK 923 INTER-LIGAND FREE ENERGY PREDICTED BY IDOCK:   -6.18 KCAL/MOL
REMARK 924 INTRA-LIGAND FREE ENERGY PREDICTED BY IDOCK:   -0.56 KCAL/MOL
REMARK 927      BINDING AFFINITY PREDICTED BY RF-SCORE:    0.00 PKD
ROOT
HETATM    1 CL   UNL     1     -10.785   6.131  68.413  1.00  0.00    -0.319 Cl 
HETATM    2  C   UNL     1     -10.775   7.344  69.636  1.00  0.00    -0.235 A  
HETATM    3  C   UNL     1     -10.547   8.692  69.467  1.00  0.00    -0.218 A  
HETATM    4  C   UNL     1     -10.673   9.365  70.734  1.00  0.00    -0.373 A  
HETATM    5  S   UNL     1     -11.089   6.886  71.235  1.00  0.00    -0.269 SA 
HETATM    6  C   UNL     1     -10.957   8.504  71.773  1.00  0.00    -0.306 A  
ENDROOT
BRANCH   3   7
HETATM    7  C   UNL     1     -10.265   9.370  68.157  1.00  0.00    -0.200 C  
BRANCH   7   8
HETATM    8  O   UNL     1      -9.870  10.726  68.359  1.00  0.00    -0.157 OA 
BRANCH   8   9
HETATM    9  C   UNL     1      -9.984  11.598  67.217  1.00  0.00    -0.191 C  
BRANCH   9  10
HETATM   10  C   UNL     1     -10.163  13.041  67.714  1.00  0.00    -0.228 A  
HETATM   11  C   UNL     1      -9.522  15.406  67.575  1.00  0.00    -0.205 A  
HETATM   12  C   UNL     1     -11.044  13.392  68.757  1.00  0.00    -0.262 A  
HETATM   13  C   UNL     1      -9.426  14.088  67.119  1.00  0.00    -0.241 A  
HETATM   14 CL   UNL     1     -12.124  12.255  69.485  1.00  0.00    -0.301 Cl 
HETATM   15 CL   UNL     1     -10.444  17.319  69.234  1.00  0.00    -0.305 Cl 
HETATM   16  C   UNL     1     -11.114  14.706  69.239  1.00  0.00    -0.290 A  
HETATM   17  C   UNL     1     -10.350  15.705  68.648  1.00  0.00    -0.216 A  
ENDBRANCH   9  10
BRANCH   9  18
HETATM   18  C   UNL     1     -11.108  11.118  66.265  1.00  0.00    -0.111 C  
BRANCH  18  19
HETATM   19  N   UNL     1     -11.457  12.060  65.223  1.00  0.00    -0.328 NA 
HETATM   20  N   UNL     1     -12.595  13.628  64.149  1.00  0.00    -0.674 NA 
HETATM   21  C   UNL     1     -10.680  12.430  64.163  1.00  0.00    -0.379 A  
HETATM   22  C   UNL     1     -11.406  13.398  63.510  1.00  0.00     0.072 A  
HETATM   23  C   UNL     1     -12.596  12.817  65.181  1.00  0.00    -0.444 A  
ENDBRANCH  18  19
ENDBRANCH   9  18
ENDBRANCH   8   9
ENDBRANCH   7   8
ENDBRANCH   3   7
TORSDOF 6
ENDMDL
MODEL      148
REMARK 921   NORMALIZED FREE ENERGY PREDICTED BY IDOCK:   -4.20 KCAL/MOL
REMARK 922        TOTAL FREE ENERGY PREDICTED BY IDOCK:   -6.72 KCAL/MOL
REMARK 923 INTER-LIGAND FREE ENERGY PREDICTED BY IDOCK:   -5.81 KCAL/MOL
REMARK 924 INTRA-LIGAND FREE ENERGY PREDICTED BY IDOCK:   -0.91 KCAL/MOL
REMARK 927      BINDING AFFINITY PREDICTED BY RF-SCORE:    0.00 PKD
ROOT
HETATM    1 CL   UNL     1      -8.247   7.934  64.654  1.00  0.00    -0.127 Cl 
HETATM    2  C   UNL     1      -7.683   9.257  65.601  1.00  0.00    -0.095 A  
HETATM    3  C   UNL     1      -8.346   9.880  66.637  1.00  0.00    -0.125 A  
HETATM    4  C   UNL     1      -7.507  10.910  67.195  1.00  0.00    -0.109 A  
HETATM    5  S   UNL     1      -6.146   9.889  65.278  1.00  0.00    -0.099 SA 
HETATM    6  C   UNL     1      -6.295  11.024  66.548  1.00  0.00    -0.132 A  
ENDROOT
BRANCH   3   7
HETATM    7  C   UNL     1      -9.708   9.510  67.146  1.00  0.00    -0.171 C  
BRANCH   7   8
HETATM    8  O   UNL     1     -10.670  10.505  66.799  1.00  0.00    -0.240 OA 
BRANCH   8   9
HETATM    9  C   UNL     1     -11.166  11.314  67.883  1.00  0.00    -0.290 C  
BRANCH   9  10
HETATM   10  C   UNL     1     -10.963  12.795  67.526  1.00  0.00    -0.280 A  
HETATM   11  C   UNL     1      -9.933  14.960  68.049  1.00  0.00    -0.220 A  
HETATM   12  C   UNL     1     -11.600  13.418  66.434  1.00  0.00    -0.346 A  
HETATM   13  C   UNL     1     -10.106  13.598  68.309  1.00  0.00    -0.240 A  
HETATM   14 CL   UNL     1     -12.560  12.541  65.293  1.00  0.00    -0.415 Cl 
HETATM   15 CL   UNL     1     -10.444  17.239  66.703  1.00  0.00    -0.293 Cl 
HETATM   16  C   UNL     1     -11.457  14.791  66.194  1.00  0.00    -0.311 A  
HETATM   17  C   UNL     1     -10.627  15.555  67.005  1.00  0.00    -0.311 A  
ENDBRANCH   9  10
BRANCH   9  18
HETATM   18  C   UNL     1     -10.516  10.898  69.227  1.00  0.00    -0.202 C  
BRANCH  18  19
HETATM   19  N   UNL     1     -11.456  10.500  70.253  1.00  0.00    -0.311 NA 
HETATM   20  N   UNL     1     -13.135  10.650  71.690  1.00  0.00    -0.447 NA 
HETATM   21  C   UNL     1     -11.656   9.237  70.731  1.00  0.00    -0.285 A  
HETATM   22  C   UNL     1     -12.696   9.355  71.622  1.00  0.00    -0.374 A  
HETATM   23  C   UNL     1     -12.378  11.316  70.850  1.00  0.00    -0.388 A  
ENDBRANCH  18  19
ENDBRANCH   9  18
ENDBRANCH   8   9
ENDBRANCH   7   8
ENDBRANCH   3   7
TORSDOF 6
ENDMDL
MODEL      149
REMARK 921   NORMALIZED FREE ENERGY PREDICTED BY IDOCK:   -4.20 KCAL/MOL
REMARK 922        TOTAL FREE ENERGY PREDICTED BY IDOCK:   -6.71 KCAL/MOL
REMARK 923 INTER-LIGAND FREE ENERGY PREDICTED BY IDOCK:   -5.94 KCAL/MOL
REMARK 924 INTRA-LIGAND FREE ENERGY PREDICTED BY IDOCK:   -0.77 KCAL/MOL
REMARK 927      BINDING AFFINITY PREDICTED BY RF-SCORE:    0.00 PKD
ROOT
HETATM    1 CL   UNL     1     -12.031  13.723  69.880  1.00  0.00    -0.390 Cl 
HETATM    2  C   UNL     1     -12.220  12.152  70.561  1.00  0.00    -0.304 A  
HETATM    3  C   UNL     1     -11.624  10.985  70.134  1.00  0.00    -0.421 A  
HETATM    4  C   UNL     1     -12.009   9.902  71.003  1.00  0.00    -0.456 A  
HETATM    5  S   UNL     1     -13.223  11.968  71.912  1.00  0.00    -0.217 SA 
HETATM    6  C   UNL     1     -12.876  10.296  72.000  1.00  0.00    -0.359 A  
ENDROOT
BRANCH   3   7
HETATM    7  C   UNL     1     -10.676  10.864  68.977  1.00  0.00    -0.224 C  
BRANCH   7   8
HETATM    8  O   UNL     1     -10.853   9.621  68.300  1.00  0.00    -0.231 OA 
BRANCH   8   9
HETATM    9  C   UNL     1     -10.361   9.559  66.946  1.00  0.00    -0.237 C  
BRANCH   9  10
HETATM   10  C   UNL     1      -9.314   8.437  66.854  1.00  0.00    -0.221 A  
HETATM   11  C   UNL     1      -6.961   7.771  66.642  1.00  0.00    -0.071 A  
HETATM   12  C   UNL     1      -9.651   7.069  66.840  1.00  0.00    -0.168 A  
HETATM   13  C   UNL     1      -7.941   8.759  66.778  1.00  0.00    -0.097 A  
HETATM   14 CL   UNL     1     -11.269   6.507  67.077  1.00  0.00    -0.419 Cl 
HETATM   15 CL   UNL     1      -6.134   5.221  66.363  1.00  0.00    -0.029 Cl 
HETATM   16  C   UNL     1      -8.673   6.079  66.667  1.00  0.00    -0.123 A  
HETATM   17  C   UNL     1      -7.335   6.436  66.565  1.00  0.00    -0.078 A  
ENDBRANCH   9  10
BRANCH   9  18
HETATM   18  C   UNL     1      -9.839  10.942  66.483  1.00  0.00    -0.204 C  
BRANCH  18  19
HETATM   19  N   UNL     1     -10.499  11.472  65.309  1.00  0.00    -0.273 NA 
HETATM   20  N   UNL     1     -10.973  11.784  63.167  1.00  0.00    -0.266 NA 
HETATM   21  C   UNL     1     -11.638  12.224  65.282  1.00  0.00    -0.355 A  
HETATM   22  C   UNL     1     -11.910  12.409  63.947  1.00  0.00    -0.466 A  
HETATM   23  C   UNL     1     -10.142  11.221  64.012  1.00  0.00    -0.329 A  
ENDBRANCH  18  19
ENDBRANCH   9  18
ENDBRANCH   8   9
ENDBRANCH   7   8
ENDBRANCH   3   7
TORSDOF 6
ENDMDL
MODEL      150
REMARK 921   NORMALIZED FREE ENERGY PREDICTED BY IDOCK:   -4.19 KCAL/MOL
REMARK 922        TOTAL FREE ENERGY PREDICTED BY IDOCK:   -6.70 KCAL/MOL
REMARK 923 INTER-LIGAND FREE ENERGY PREDICTED BY IDOCK:   -5.90 KCAL/MOL
REMARK 924 INTRA-LIGAND FREE ENERGY PREDICTED BY IDOCK:   -0.80 KCAL/MOL
REMARK 927      BINDING AFFINITY PREDICTED BY RF-SCORE:    0.00 PKD
ROOT
HETATM    1 CL   UNL     1     -11.482  16.716  71.185  1.00  0.00    -0.115 Cl 
HETATM    2  C   UNL     1     -12.405  15.299  71.513  1.00  0.00    -0.352 A  
HETATM    3  C   UNL     1     -12.617  14.232  70.667  1.00  0.00    -0.424 A  
HETATM    4  C   UNL     1     -13.405  13.232  71.342  1.00  0.00    -0.241 A  
HETATM    5  S   UNL     1     -13.139  15.141  73.030  1.00  0.00    -0.528 SA 
HETATM    6  C   UNL     1     -13.760  13.601  72.622  1.00  0.00    -0.439 A  
ENDROOT
BRANCH   3   7
HETATM    7  C   UNL     1     -12.067  14.100  69.277  1.00  0.00    -0.324 C  
BRANCH   7   8
HETATM    8  O   UNL     1     -10.680  13.767  69.306  1.00  0.00    -0.177 OA 
BRANCH   8   9
HETATM    9  C   UNL     1      -9.926  14.082  68.118  1.00  0.00    -0.242 C  
BRANCH   9  10
HETATM   10  C   UNL     1      -9.020  12.887  67.779  1.00  0.00    -0.191 A  
HETATM   11  C   UNL     1      -6.757  11.963  67.563  1.00  0.00    -0.111 A  
HETATM   12  C   UNL     1      -9.516  11.646  67.334  1.00  0.00    -0.167 A  
HETATM   13  C   UNL     1      -7.619  13.008  67.909  1.00  0.00    -0.144 A  
HETATM   14 CL   UNL     1     -11.207  11.290  67.267  1.00  0.00    -0.366 Cl 
HETATM   15 CL   UNL     1      -6.218   9.501  66.606  1.00  0.00    -0.064 Cl 
HETATM   16  C   UNL     1      -8.652  10.611  66.952  1.00  0.00    -0.126 A  
HETATM   17  C   UNL     1      -7.277  10.776  67.065  1.00  0.00    -0.109 A  
ENDBRANCH   9  10
BRANCH   9  18
HETATM   18  C   UNL     1      -9.164  15.420  68.284  1.00  0.00    -0.188 C  
BRANCH  18  19
HETATM   19  N   UNL     1      -9.778  16.549  67.618  1.00  0.00    -0.236 NA 
HETATM   20  N   UNL     1     -10.537  18.608  67.314  1.00  0.00    -0.427 NA 
HETATM   21  C   UNL     1     -10.108  16.637  66.296  1.00  0.00    -0.328 A  
HETATM   22  C   UNL     1     -10.579  17.918  66.132  1.00  0.00    -0.242 A  
HETATM   23  C   UNL     1     -10.043  17.764  68.189  1.00  0.00    -0.362 A  
ENDBRANCH  18  19
ENDBRANCH   9  18
ENDBRANCH   8   9
ENDBRANCH   7   8
ENDBRANCH   3   7
TORSDOF 6
ENDMDL
MODEL      151
REMARK 921   NORMALIZED FREE ENERGY PREDICTED BY IDOCK:   -4.18 KCAL/MOL
REMARK 922        TOTAL FREE ENERGY PREDICTED BY IDOCK:   -6.68 KCAL/MOL
REMARK 923 INTER-LIGAND FREE ENERGY PREDICTED BY IDOCK:   -5.43 KCAL/MOL
REMARK 924 INTRA-LIGAND FREE ENERGY PREDICTED BY IDOCK:   -1.25 KCAL/MOL
REMARK 927      BINDING AFFINITY PREDICTED BY RF-SCORE:    0.00 PKD
ROOT
HETATM    1 CL   UNL     1     -11.007   5.913  69.842  1.00  0.00    -0.440 Cl 
HETATM    2  C   UNL     1     -10.120   5.759  68.373  1.00  0.00    -0.170 A  
HETATM    3  C   UNL     1     -10.097   6.648  67.320  1.00  0.00    -0.222 A  
HETATM    4  C   UNL     1      -9.194   6.168  66.305  1.00  0.00    -0.163 A  
HETATM    5  S   UNL     1      -9.141   4.395  68.155  1.00  0.00    -0.136 SA 
HETATM    6  C   UNL     1      -8.616   4.958  66.628  1.00  0.00    -0.109 A  
ENDROOT
BRANCH   3   7
HETATM    7  C   UNL     1     -10.852   7.943  67.257  1.00  0.00    -0.119 C  
BRANCH   7   8
HETATM    8  O   UNL     1      -9.957   9.050  67.150  1.00  0.00    -0.188 OA 
BRANCH   8   9
HETATM    9  C   UNL     1     -10.043  10.039  68.195  1.00  0.00    -0.159 C  
BRANCH   9  10
HETATM   10  C   UNL     1      -9.602   9.396  69.520  1.00  0.00    -0.188 A  
HETATM   11  C   UNL     1     -10.110   8.834  71.854  1.00  0.00    -0.409 A  
HETATM   12  C   UNL     1      -8.329   8.821  69.710  1.00  0.00    -0.127 A  
HETATM   13  C   UNL     1     -10.490   9.364  70.617  1.00  0.00    -0.354 A  
HETATM   14 CL   UNL     1      -7.186   8.647  68.425  1.00  0.00    -0.083 Cl 
HETATM   15 CL   UNL     1      -8.344   7.715  73.555  1.00  0.00    -0.196 Cl 
HETATM   16  C   UNL     1      -7.934   8.324  70.959  1.00  0.00    -0.105 A  
HETATM   17  C   UNL     1      -8.826   8.336  72.025  1.00  0.00    -0.193 A  
ENDBRANCH   9  10
BRANCH   9  18
HETATM   18  C   UNL     1     -11.457  10.670  68.245  1.00  0.00    -0.245 C  
BRANCH  18  19
HETATM   19  N   UNL     1     -11.620  11.850  67.423  1.00  0.00    -0.490 NA 
HETATM   20  N   UNL     1     -11.952  13.077  65.609  1.00  0.00    -0.405 NA 
HETATM   21  C   UNL     1     -11.772  13.135  67.861  1.00  0.00    -0.357 A  
HETATM   22  C   UNL     1     -11.972  13.877  66.721  1.00  0.00    -0.438 A  
HETATM   23  C   UNL     1     -11.748  11.862  66.061  1.00  0.00    -0.135 A  
ENDBRANCH  18  19
ENDBRANCH   9  18
ENDBRANCH   8   9
ENDBRANCH   7   8
ENDBRANCH   3   7
TORSDOF 6
ENDMDL
MODEL      152
REMARK 921   NORMALIZED FREE ENERGY PREDICTED BY IDOCK:   -4.18 KCAL/MOL
REMARK 922        TOTAL FREE ENERGY PREDICTED BY IDOCK:   -6.68 KCAL/MOL
REMARK 923 INTER-LIGAND FREE ENERGY PREDICTED BY IDOCK:   -5.71 KCAL/MOL
REMARK 924 INTRA-LIGAND FREE ENERGY PREDICTED BY IDOCK:   -0.97 KCAL/MOL
REMARK 927      BINDING AFFINITY PREDICTED BY RF-SCORE:    0.00 PKD
ROOT
HETATM    1 CL   UNL     1      -6.080  14.296  71.112  1.00  0.00    -0.165 Cl 
HETATM    2  C   UNL     1      -6.422  14.872  69.525  1.00  0.00    -0.143 A  
HETATM    3  C   UNL     1      -7.617  14.776  68.846  1.00  0.00    -0.144 A  
HETATM    4  C   UNL     1      -7.497  15.424  67.565  1.00  0.00    -0.215 A  
HETATM    5  S   UNL     1      -5.196  15.664  68.667  1.00  0.00    -0.096 SA 
HETATM    6  C   UNL     1      -6.238  15.940  67.340  1.00  0.00    -0.137 A  
ENDROOT
BRANCH   3   7
HETATM    7  C   UNL     1      -8.871  14.144  69.376  1.00  0.00     0.518 C  
BRANCH   7   8
HETATM    8  O   UNL     1      -9.959  14.331  68.472  1.00  0.00    -0.226 OA 
BRANCH   8   9
HETATM    9  C   UNL     1     -10.926  15.334  68.840  1.00  0.00    -0.261 C  
BRANCH   9  10
HETATM   10  C   UNL     1     -10.625  16.620  68.055  1.00  0.00    -0.338 A  
HETATM   11  C   UNL     1     -10.008  18.996  68.070  1.00  0.00    -0.436 A  
HETATM   12  C   UNL     1     -10.711  16.703  66.651  1.00  0.00    -0.124 A  
HETATM   13  C   UNL     1     -10.241  17.792  68.743  1.00  0.00    -0.373 A  
HETATM   14 CL   UNL     1     -11.019  15.323  65.655  1.00  0.00    -0.343 Cl 
HETATM   15 CL   UNL     1      -9.914  20.545  65.867  1.00  0.00    -0.207 Cl 
HETATM   16  C   UNL     1     -10.513  17.917  65.979  1.00  0.00    -0.293 A  
HETATM   17  C   UNL     1     -10.167  19.057  66.693  1.00  0.00    -0.407 A  
ENDBRANCH   9  10
BRANCH   9  18
HETATM   18  C   UNL     1     -10.961  15.531  70.377  1.00  0.00    -0.339 C  
BRANCH  18  19
HETATM   19  N   UNL     1     -12.102  14.932  71.035  1.00  0.00    -0.299 NA 
HETATM   20  N   UNL     1     -13.385  13.363  71.930  1.00  0.00    -0.434 NA 
HETATM   21  C   UNL     1     -13.131  15.590  71.644  1.00  0.00    -0.481 A  
HETATM   22  C   UNL     1     -13.915  14.599  72.187  1.00  0.00    -0.492 A  
HETATM   23  C   UNL     1     -12.290  13.592  71.243  1.00  0.00    -0.271 A  
ENDBRANCH  18  19
ENDBRANCH   9  18
ENDBRANCH   8   9
ENDBRANCH   7   8
ENDBRANCH   3   7
TORSDOF 6
ENDMDL
MODEL      153
REMARK 921   NORMALIZED FREE ENERGY PREDICTED BY IDOCK:   -4.17 KCAL/MOL
REMARK 922        TOTAL FREE ENERGY PREDICTED BY IDOCK:   -6.67 KCAL/MOL
REMARK 923 INTER-LIGAND FREE ENERGY PREDICTED BY IDOCK:   -6.36 KCAL/MOL
REMARK 924 INTRA-LIGAND FREE ENERGY PREDICTED BY IDOCK:   -0.31 KCAL/MOL
REMARK 927      BINDING AFFINITY PREDICTED BY RF-SCORE:    0.00 PKD
ROOT
HETATM    1 CL   UNL     1      -7.881  18.117  68.083  1.00  0.00    -0.274 Cl 
HETATM    2  C   UNL     1      -7.228  16.528  68.196  1.00  0.00    -0.152 A  
HETATM    3  C   UNL     1      -7.873  15.395  68.643  1.00  0.00    -0.142 A  
HETATM    4  C   UNL     1      -6.989  14.262  68.534  1.00  0.00    -0.102 A  
HETATM    5  S   UNL     1      -5.629  16.270  67.703  1.00  0.00    -0.149 SA 
HETATM    6  C   UNL     1      -5.743  14.599  68.047  1.00  0.00    -0.138 A  
ENDROOT
BRANCH   3   7
HETATM    7  C   UNL     1      -9.296  15.332  69.117  1.00  0.00    -0.236 C  
BRANCH   7   8
HETATM    8  O   UNL     1      -9.972  14.208  68.556  1.00  0.00    -0.229 OA 
BRANCH   8   9
HETATM    9  C   UNL     1     -11.360  14.058  68.915  1.00  0.00    -0.280 C  
BRANCH   9  10
HETATM   10  C   UNL     1     -11.552  12.684  69.577  1.00  0.00    -0.348 A  
HETATM   11  C   UNL     1     -12.693  11.299  71.250  1.00  0.00    -0.510 A  
HETATM   12  C   UNL     1     -10.797  11.547  69.224  1.00  0.00    -0.167 A  
HETATM   13  C   UNL     1     -12.522  12.518  70.589  1.00  0.00    -0.323 A  
HETATM   14 CL   UNL     1      -9.678  11.547  67.904  1.00  0.00    -0.178 Cl 
HETATM   15 CL   UNL     1     -12.071   8.726  71.758  1.00  0.00    -0.388 Cl 
HETATM   16  C   UNL     1     -10.941  10.334  69.911  1.00  0.00    -0.358 A  
HETATM   17  C   UNL     1     -11.886  10.218  70.922  1.00  0.00    -0.377 A  
ENDBRANCH   9  10
BRANCH   9  18
HETATM   18  C   UNL     1     -12.278  14.299  67.691  1.00  0.00    -0.179 C  
BRANCH  18  19
HETATM   19  N   UNL     1     -11.740  13.827  66.433  1.00  0.00    -0.359 NA 
HETATM   20  N   UNL     1     -11.474  12.539  64.651  1.00  0.00    -0.314 NA 
HETATM   21  C   UNL     1     -10.891  14.502  65.604  1.00  0.00    -0.326 A  
HETATM   22  C   UNL     1     -10.737  13.684  64.510  1.00  0.00    -0.407 A  
HETATM   23  C   UNL     1     -12.075  12.655  65.812  1.00  0.00    -0.423 A  
ENDBRANCH  18  19
ENDBRANCH   9  18
ENDBRANCH   8   9
ENDBRANCH   7   8
ENDBRANCH   3   7
TORSDOF 6
ENDMDL
MODEL      154
REMARK 921   NORMALIZED FREE ENERGY PREDICTED BY IDOCK:   -4.16 KCAL/MOL
REMARK 922        TOTAL FREE ENERGY PREDICTED BY IDOCK:   -6.66 KCAL/MOL
REMARK 923 INTER-LIGAND FREE ENERGY PREDICTED BY IDOCK:   -5.92 KCAL/MOL
REMARK 924 INTRA-LIGAND FREE ENERGY PREDICTED BY IDOCK:   -0.74 KCAL/MOL
REMARK 927      BINDING AFFINITY PREDICTED BY RF-SCORE:    0.00 PKD
ROOT
HETATM    1 CL   UNL     1      -5.929  14.044  70.310  1.00  0.00    -0.145 Cl 
HETATM    2  C   UNL     1      -6.126  15.179  69.029  1.00  0.00    -0.098 A  
HETATM    3  C   UNL     1      -6.991  15.084  67.961  1.00  0.00    -0.147 A  
HETATM    4  C   UNL     1      -6.878  16.265  67.143  1.00  0.00    -0.243 A  
HETATM    5  S   UNL     1      -5.190  16.590  69.045  1.00  0.00    -0.120 SA 
HETATM    6  C   UNL     1      -5.935  17.155  67.613  1.00  0.00    -0.131 A  
ENDROOT
BRANCH   3   7
HETATM    7  C   UNL     1      -7.947  13.954  67.712  1.00  0.00    -0.172 C  
BRANCH   7   8
HETATM    8  O   UNL     1      -9.186  14.438  67.196  1.00  0.00    -0.203 OA 
BRANCH   8   9
HETATM    9  C   UNL     1     -10.100  14.997  68.161  1.00  0.00    -0.220 C  
BRANCH   9  10
HETATM   10  C   UNL     1     -10.821  13.845  68.881  1.00  0.00    -0.278 A  
HETATM   11  C   UNL     1     -11.563  11.506  68.883  1.00  0.00    -0.384 A  
HETATM   12  C   UNL     1     -11.449  13.994  70.133  1.00  0.00    -0.133 A  
HETATM   13  C   UNL     1     -10.874  12.566  68.285  1.00  0.00    -0.258 A  
HETATM   14 CL   UNL     1     -11.345  15.451  71.060  1.00  0.00    -0.378 Cl 
HETATM   15 CL   UNL     1     -13.103  10.413  70.805  1.00  0.00    -0.429 Cl 
HETATM   16  C   UNL     1     -12.171  12.943  70.715  1.00  0.00    -0.348 A  
HETATM   17  C   UNL     1     -12.226  11.706  70.085  1.00  0.00    -0.288 A  
ENDBRANCH   9  10
BRANCH   9  18
HETATM   18  C   UNL     1     -11.057  16.015  67.492  1.00  0.00    -0.207 C  
BRANCH  18  19
HETATM   19  N   UNL     1     -10.558  17.373  67.451  1.00  0.00    -0.337 NA 
HETATM   20  N   UNL     1      -9.854  19.341  68.186  1.00  0.00    -0.354 NA 
HETATM   21  C   UNL     1     -10.077  18.033  66.357  1.00  0.00    -0.384 A  
HETATM   22  C   UNL     1      -9.652  19.250  66.835  1.00  0.00    -0.331 A  
HETATM   23  C   UNL     1     -10.392  18.195  68.532  1.00  0.00    -0.336 A  
ENDBRANCH  18  19
ENDBRANCH   9  18
ENDBRANCH   8   9
ENDBRANCH   7   8
ENDBRANCH   3   7
TORSDOF 6
ENDMDL
MODEL      155
REMARK 921   NORMALIZED FREE ENERGY PREDICTED BY IDOCK:   -4.14 KCAL/MOL
REMARK 922        TOTAL FREE ENERGY PREDICTED BY IDOCK:   -6.63 KCAL/MOL
REMARK 923 INTER-LIGAND FREE ENERGY PREDICTED BY IDOCK:   -6.64 KCAL/MOL
REMARK 924 INTRA-LIGAND FREE ENERGY PREDICTED BY IDOCK:    0.00 KCAL/MOL
REMARK 927      BINDING AFFINITY PREDICTED BY RF-SCORE:    0.00 PKD
ROOT
HETATM    1 CL   UNL     1     -12.198  11.419  70.661  1.00  0.00    -0.473 Cl 
HETATM    2  C   UNL     1     -12.531  13.069  71.024  1.00  0.00    -0.296 A  
HETATM    3  C   UNL     1     -12.057  14.178  70.358  1.00  0.00    -0.417 A  
HETATM    4  C   UNL     1     -12.611  15.369  70.950  1.00  0.00    -0.496 A  
HETATM    5  S   UNL     1     -13.560  13.423  72.321  1.00  0.00    -0.597 SA 
HETATM    6  C   UNL     1     -13.433  15.102  72.024  1.00  0.00    -0.421 A  
ENDROOT
BRANCH   3   7
HETATM    7  C   UNL     1     -11.149  14.154  69.163  1.00  0.00    -0.262 C  
BRANCH   7   8
HETATM    8  O   UNL     1     -10.453  12.911  69.077  1.00  0.00    -0.134 OA 
BRANCH   8   9
HETATM    9  C   UNL     1      -9.716  12.680  67.860  1.00  0.00    -0.216 C  
BRANCH   9  10
HETATM   10  C   UNL     1      -9.118  14.014  67.385  1.00  0.00    -0.209 A  
HETATM   11  C   UNL     1      -9.269  15.983  65.928  1.00  0.00    -0.321 A  
HETATM   12  C   UNL     1      -7.895  14.524  67.863  1.00  0.00    -0.147 A  
HETATM   13  C   UNL     1      -9.803  14.789  66.424  1.00  0.00    -0.297 A  
HETATM   14 CL   UNL     1      -7.012  13.772  69.147  1.00  0.00    -0.106 Cl 
HETATM   15 CL   UNL     1      -7.356  17.872  65.740  1.00  0.00    -0.235 Cl 
HETATM   16  C   UNL     1      -7.341  15.700  67.341  1.00  0.00    -0.235 A  
HETATM   17  C   UNL     1      -8.030  16.421  66.373  1.00  0.00    -0.294 A  
ENDBRANCH   9  10
BRANCH   9  18
HETATM   18  C   UNL     1     -10.601  11.977  66.801  1.00  0.00    -0.227 C  
BRANCH  18  19
HETATM   19  N   UNL     1     -10.419  10.543  66.719  1.00  0.00    -0.247 NA 
HETATM   20  N   UNL     1      -9.672   8.592  65.982  1.00  0.00    -0.217 NA 
HETATM   21  C   UNL     1     -10.820   9.615  67.637  1.00  0.00    -0.212 A  
HETATM   22  C   UNL     1     -10.351   8.415  67.158  1.00  0.00    -0.311 A  
HETATM   23  C   UNL     1      -9.720   9.883  65.746  1.00  0.00    -0.266 A  
ENDBRANCH  18  19
ENDBRANCH   9  18
ENDBRANCH   8   9
ENDBRANCH   7   8
ENDBRANCH   3   7
TORSDOF 6
ENDMDL
MODEL      156
REMARK 921   NORMALIZED FREE ENERGY PREDICTED BY IDOCK:   -4.13 KCAL/MOL
REMARK 922        TOTAL FREE ENERGY PREDICTED BY IDOCK:   -6.62 KCAL/MOL
REMARK 923 INTER-LIGAND FREE ENERGY PREDICTED BY IDOCK:   -5.86 KCAL/MOL
REMARK 924 INTRA-LIGAND FREE ENERGY PREDICTED BY IDOCK:   -0.76 KCAL/MOL
REMARK 927      BINDING AFFINITY PREDICTED BY RF-SCORE:    0.00 PKD
ROOT
HETATM    1 CL   UNL     1     -11.210   6.247  68.886  1.00  0.00    -0.440 Cl 
HETATM    2  C   UNL     1     -11.161   7.409  70.156  1.00  0.00    -0.246 A  
HETATM    3  C   UNL     1     -10.907   8.759  70.037  1.00  0.00    -0.231 A  
HETATM    4  C   UNL     1     -11.005   9.383  71.332  1.00  0.00    -0.443 A  
HETATM    5  S   UNL     1     -11.467   6.895  71.740  1.00  0.00    -0.291 SA 
HETATM    6  C   UNL     1     -11.296   8.487  72.340  1.00  0.00    -0.342 A  
ENDROOT
BRANCH   3   7
HETATM    7  C   UNL     1     -10.626   9.482  68.753  1.00  0.00    -0.214 C  
BRANCH   7   8
HETATM    8  O   UNL     1     -10.155  10.805  69.005  1.00  0.00    -0.200 OA 
BRANCH   8   9
HETATM    9  C   UNL     1      -9.790  11.581  67.846  1.00  0.00    -0.185 C  
BRANCH   9  10
HETATM   10  C   UNL     1      -9.869  13.073  68.206  1.00  0.00    -0.225 A  
HETATM   11  C   UNL     1     -11.220  14.992  68.924  1.00  0.00    -0.288 A  
HETATM   12  C   UNL     1      -8.763  13.943  68.131  1.00  0.00    -0.182 A  
HETATM   13  C   UNL     1     -11.093  13.629  68.636  1.00  0.00    -0.299 A  
HETATM   14 CL   UNL     1      -7.166  13.388  67.768  1.00  0.00    -0.138 Cl 
HETATM   15 CL   UNL     1     -10.287  17.514  69.097  1.00  0.00    -0.319 Cl 
HETATM   16  C   UNL     1      -8.897  15.315  68.384  1.00  0.00    -0.179 A  
HETATM   17  C   UNL     1     -10.126  15.832  68.776  1.00  0.00    -0.215 A  
ENDBRANCH   9  10
BRANCH   9  18
HETATM   18  C   UNL     1     -10.651  11.185  66.621  1.00  0.00    -0.264 C  
BRANCH  18  19
HETATM   19  N   UNL     1      -9.895  10.896  65.421  1.00  0.00    -0.239 NA 
HETATM   20  N   UNL     1      -9.340  10.894  63.276  1.00  0.00    -0.275 NA 
HETATM   21  C   UNL     1      -8.648  10.343  65.355  1.00  0.00    -0.174 A  
HETATM   22  C   UNL     1      -8.328  10.347  64.018  1.00  0.00    -0.139 A  
HETATM   23  C   UNL     1     -10.266  11.224  64.145  1.00  0.00    -0.335 A  
ENDBRANCH  18  19
ENDBRANCH   9  18
ENDBRANCH   8   9
ENDBRANCH   7   8
ENDBRANCH   3   7
TORSDOF 6
ENDMDL
MODEL      157
REMARK 921   NORMALIZED FREE ENERGY PREDICTED BY IDOCK:   -4.12 KCAL/MOL
REMARK 922        TOTAL FREE ENERGY PREDICTED BY IDOCK:   -6.61 KCAL/MOL
REMARK 923 INTER-LIGAND FREE ENERGY PREDICTED BY IDOCK:   -5.60 KCAL/MOL
REMARK 924 INTRA-LIGAND FREE ENERGY PREDICTED BY IDOCK:   -1.01 KCAL/MOL
REMARK 927      BINDING AFFINITY PREDICTED BY RF-SCORE:    0.00 PKD
ROOT
HETATM    1 CL   UNL     1     -10.644  11.580  63.056  1.00  0.00    -0.275 Cl 
HETATM    2  C   UNL     1     -11.496  12.466  64.263  1.00  0.00    -0.363 A  
HETATM    3  C   UNL     1     -11.669  12.116  65.584  1.00  0.00    -0.385 A  
HETATM    4  C   UNL     1     -12.401  13.152  66.266  1.00  0.00    -0.346 A  
HETATM    5  S   UNL     1     -12.202  13.945  63.836  1.00  0.00    -0.198 SA 
HETATM    6  C   UNL     1     -12.756  14.194  65.435  1.00  0.00    -0.431 A  
ENDROOT
BRANCH   3   7
HETATM    7  C   UNL     1     -11.132  10.873  66.232  1.00  0.00     0.033 C  
BRANCH   7   8
HETATM    8  O   UNL     1     -11.041  11.034  67.648  1.00  0.00    -0.260 OA 
BRANCH   8   9
HETATM    9  C   UNL     1      -9.855  10.504  68.272  1.00  0.00    -0.149 C  
BRANCH   9  10
HETATM   10  C   UNL     1     -10.275   9.453  69.313  1.00  0.00    -0.209 A  
HETATM   11  C   UNL     1     -10.751   8.886  71.652  1.00  0.00    -0.418 A  
HETATM   12  C   UNL     1     -10.529   8.106  68.986  1.00  0.00    -0.198 A  
HETATM   13  C   UNL     1     -10.420   9.822  70.667  1.00  0.00    -0.358 A  
HETATM   14 CL   UNL     1     -10.540   7.530  67.355  1.00  0.00    -0.361 Cl 
HETATM   15 CL   UNL     1     -11.301   6.394  72.519  1.00  0.00    -0.305 Cl 
HETATM   16  C   UNL     1     -10.823   7.159  69.977  1.00  0.00    -0.276 A  
HETATM   17  C   UNL     1     -10.929   7.554  71.305  1.00  0.00    -0.242 A  
ENDBRANCH   9  10
BRANCH   9  18
HETATM   18  C   UNL     1      -8.978  11.643  68.850  1.00  0.00     0.085 C  
BRANCH  18  19
HETATM   19  N   UNL     1      -9.095  12.906  68.153  1.00  0.00    -0.205 NA 
HETATM   20  N   UNL     1      -9.658  15.015  67.775  1.00  0.00    -0.202 NA 
HETATM   21  C   UNL     1      -8.451  13.267  67.004  1.00  0.00    -0.128 A  
HETATM   22  C   UNL     1      -8.818  14.574  66.787  1.00  0.00    -0.220 A  
HETATM   23  C   UNL     1      -9.800  13.995  68.588  1.00  0.00    -0.191 A  
ENDBRANCH  18  19
ENDBRANCH   9  18
ENDBRANCH   8   9
ENDBRANCH   7   8
ENDBRANCH   3   7
TORSDOF 6
ENDMDL
MODEL      158
REMARK 921   NORMALIZED FREE ENERGY PREDICTED BY IDOCK:   -4.12 KCAL/MOL
REMARK 922        TOTAL FREE ENERGY PREDICTED BY IDOCK:   -6.61 KCAL/MOL
REMARK 923 INTER-LIGAND FREE ENERGY PREDICTED BY IDOCK:   -5.66 KCAL/MOL
REMARK 924 INTRA-LIGAND FREE ENERGY PREDICTED BY IDOCK:   -0.95 KCAL/MOL
REMARK 927      BINDING AFFINITY PREDICTED BY RF-SCORE:    0.00 PKD
ROOT
HETATM    1 CL   UNL     1     -11.844  15.158  69.722  1.00  0.00    -0.337 Cl 
HETATM    2  C   UNL     1     -12.403  13.744  70.531  1.00  0.00    -0.359 A  
HETATM    3  C   UNL     1     -12.236  12.437  70.129  1.00  0.00    -0.303 A  
HETATM    4  C   UNL     1     -12.813  11.554  71.111  1.00  0.00    -0.414 A  
HETATM    5  S   UNL     1     -13.239  13.922  71.992  1.00  0.00    -0.446 SA 
HETATM    6  C   UNL     1     -13.393  12.228  72.164  1.00  0.00    -0.368 A  
ENDROOT
BRANCH   3   7
HETATM    7  C   UNL     1     -11.517  11.992  68.889  1.00  0.00    -0.301 C  
BRANCH   7   8
HETATM    8  O   UNL     1     -10.112  11.895  69.120  1.00  0.00    -0.015 OA 
BRANCH   8   9
HETATM    9  C   UNL     1      -9.469  10.702  68.630  1.00  0.00    -0.176 C  
BRANCH   9  10
HETATM   10  C   UNL     1      -9.963   9.502  69.454  1.00  0.00    -0.199 A  
HETATM   11  C   UNL     1     -10.363   8.483  71.650  1.00  0.00    -0.333 A  
HETATM   12  C   UNL     1     -10.422   8.304  68.870  1.00  0.00    -0.191 A  
HETATM   13  C   UNL     1      -9.970   9.570  70.864  1.00  0.00    -0.308 A  
HETATM   14 CL   UNL     1     -10.618   8.117  67.162  1.00  0.00    -0.394 Cl 
HETATM   15 CL   UNL     1     -11.199   5.946  72.007  1.00  0.00    -0.327 Cl 
HETATM   16  C   UNL     1     -10.782   7.202  69.657  1.00  0.00    -0.256 A  
HETATM   17  C   UNL     1     -10.747   7.296  71.042  1.00  0.00    -0.231 A  
ENDBRANCH   9  10
BRANCH   9  18
HETATM   18  C   UNL     1      -7.929  10.866  68.623  1.00  0.00    -0.140 C  
BRANCH  18  19
HETATM   19  N   UNL     1      -7.307  10.668  67.331  1.00  0.00    -0.091 NA 
HETATM   20  N   UNL     1      -7.137  10.339  65.147  1.00  0.00    -0.136 NA 
HETATM   21  C   UNL     1      -5.984  10.814  67.031  1.00  0.00    -0.063 A  
HETATM   22  C   UNL     1      -5.901  10.602  65.675  1.00  0.00    -0.133 A  
HETATM   23  C   UNL     1      -7.966  10.394  66.163  1.00  0.00    -0.138 A  
ENDBRANCH  18  19
ENDBRANCH   9  18
ENDBRANCH   8   9
ENDBRANCH   7   8
ENDBRANCH   3   7
TORSDOF 6
ENDMDL
MODEL      159
REMARK 921   NORMALIZED FREE ENERGY PREDICTED BY IDOCK:   -4.12 KCAL/MOL
REMARK 922        TOTAL FREE ENERGY PREDICTED BY IDOCK:   -6.60 KCAL/MOL
REMARK 923 INTER-LIGAND FREE ENERGY PREDICTED BY IDOCK:   -5.29 KCAL/MOL
REMARK 924 INTRA-LIGAND FREE ENERGY PREDICTED BY IDOCK:   -1.32 KCAL/MOL
REMARK 927      BINDING AFFINITY PREDICTED BY RF-SCORE:    0.00 PKD
ROOT
HETATM    1 CL   UNL     1     -11.966   6.471  70.324  1.00  0.00    -0.388 Cl 
HETATM    2  C   UNL     1     -11.161   6.606  71.840  1.00  0.00    -0.253 A  
HETATM    3  C   UNL     1     -10.542   7.725  72.356  1.00  0.00    -0.336 A  
HETATM    4  C   UNL     1     -10.032   7.430  73.671  1.00  0.00    -0.379 A  
HETATM    5  S   UNL     1     -11.108   5.252  72.855  1.00  0.00    -0.312 SA 
HETATM    6  C   UNL     1     -10.265   6.127  74.057  1.00  0.00    -0.300 A  
ENDROOT
BRANCH   3   7
HETATM    7  C   UNL     1     -10.458   9.062  71.680  1.00  0.00    -0.355 C  
BRANCH   7   8
HETATM    8  O   UNL     1      -9.114   9.361  71.305  1.00  0.00    -0.277 OA 
BRANCH   8   9
HETATM    9  C   UNL     1      -8.913   9.778  69.940  1.00  0.00    -0.229 C  
BRANCH   9  10
HETATM   10  C   UNL     1      -9.309   8.621  69.009  1.00  0.00    -0.146 A  
HETATM   11  C   UNL     1      -8.943   6.316  68.250  1.00  0.00    -0.115 A  
HETATM   12  C   UNL     1     -10.319   8.730  68.032  1.00  0.00    -0.220 A  
HETATM   13  C   UNL     1      -8.648   7.377  69.111  1.00  0.00    -0.136 A  
HETATM   14 CL   UNL     1     -11.320  10.132  67.881  1.00  0.00    -0.240 Cl 
HETATM   15 CL   UNL     1     -10.238   5.188  66.172  1.00  0.00    -0.249 Cl 
HETATM   16  C   UNL     1     -10.589   7.680  67.144  1.00  0.00    -0.410 A  
HETATM   17  C   UNL     1      -9.898   6.480  67.256  1.00  0.00    -0.140 A  
ENDBRANCH   9  10
BRANCH   9  18
HETATM   18  C   UNL     1      -7.467  10.290  69.725  1.00  0.00    -0.165 C  
BRANCH  18  19
HETATM   19  N   UNL     1      -7.376  11.578  69.071  1.00  0.00    -0.113 NA 
HETATM   20  N   UNL     1      -7.966  13.311  67.823  1.00  0.00    -0.151 NA 
HETATM   21  C   UNL     1      -6.430  12.538  69.289  1.00  0.00    -0.104 A  
HETATM   22  C   UNL     1      -6.812  13.599  68.503  1.00  0.00    -0.098 A  
HETATM   23  C   UNL     1      -8.288  12.093  68.191  1.00  0.00    -0.170 A  
ENDBRANCH  18  19
ENDBRANCH   9  18
ENDBRANCH   8   9
ENDBRANCH   7   8
ENDBRANCH   3   7
TORSDOF 6
ENDMDL
MODEL      160
REMARK 921   NORMALIZED FREE ENERGY PREDICTED BY IDOCK:   -4.11 KCAL/MOL
REMARK 922        TOTAL FREE ENERGY PREDICTED BY IDOCK:   -6.60 KCAL/MOL
REMARK 923 INTER-LIGAND FREE ENERGY PREDICTED BY IDOCK:   -6.13 KCAL/MOL
REMARK 924 INTRA-LIGAND FREE ENERGY PREDICTED BY IDOCK:   -0.47 KCAL/MOL
REMARK 927      BINDING AFFINITY PREDICTED BY RF-SCORE:    0.00 PKD
ROOT
HETATM    1 CL   UNL     1     -12.122  11.836  63.552  1.00  0.00    -0.563 Cl 
HETATM    2  C   UNL     1     -11.948  12.528  65.120  1.00  0.00    -0.434 A  
HETATM    3  C   UNL     1     -11.302  11.976  66.204  1.00  0.00    -0.407 A  
HETATM    4  C   UNL     1     -11.344  12.898  67.311  1.00  0.00    -0.356 A  
HETATM    5  S   UNL     1     -12.612  14.059  65.409  1.00  0.00    -0.454 SA 
HETATM    6  C   UNL     1     -12.028  14.059  67.016  1.00  0.00    -0.438 A  
ENDROOT
BRANCH   3   7
HETATM    7  C   UNL     1     -10.609  10.645  66.220  1.00  0.00    -0.161 C  
BRANCH   7   8
HETATM    8  O   UNL     1     -10.449  10.169  67.556  1.00  0.00    -0.217 OA 
BRANCH   8   9
HETATM    9  C   UNL     1     -10.491   8.739  67.729  1.00  0.00    -0.229 C  
BRANCH   9  10
HETATM   10  C   UNL     1     -10.418   8.422  69.232  1.00  0.00    -0.223 A  
HETATM   11  C   UNL     1     -11.265   7.156  71.155  1.00  0.00    -0.291 A  
HETATM   12  C   UNL     1      -9.533   9.074  70.114  1.00  0.00    -0.195 A  
HETATM   13  C   UNL     1     -11.264   7.438  69.786  1.00  0.00    -0.110 A  
HETATM   14 CL   UNL     1      -8.331  10.192  69.568  1.00  0.00    -0.173 Cl 
HETATM   15 CL   UNL     1     -10.450   7.543  73.695  1.00  0.00    -0.368 Cl 
HETATM   16  C   UNL     1      -9.558   8.818  71.491  1.00  0.00    -0.354 A  
HETATM   17  C   UNL     1     -10.427   7.863  72.005  1.00  0.00    -0.231 A  
ENDBRANCH   9  10
BRANCH   9  18
HETATM   18  C   UNL     1      -9.388   8.047  66.888  1.00  0.00    -0.164 C  
BRANCH  18  19
HETATM   19  N   UNL     1      -9.348   6.606  67.018  1.00  0.00    -0.136 NA 
HETATM   20  N   UNL     1      -8.698   4.611  67.728  1.00  0.00    -0.103 NA 
HETATM   21  C   UNL     1     -10.260   5.716  66.526  1.00  0.00    -0.211 A  
HETATM   22  C   UNL     1      -9.835   4.488  66.974  1.00  0.00    -0.202 A  
HETATM   23  C   UNL     1      -8.432   5.896  67.745  1.00  0.00    -0.107 A  
ENDBRANCH  18  19
ENDBRANCH   9  18
ENDBRANCH   8   9
ENDBRANCH   7   8
ENDBRANCH   3   7
TORSDOF 6
ENDMDL
MODEL      161
REMARK 921   NORMALIZED FREE ENERGY PREDICTED BY IDOCK:   -4.09 KCAL/MOL
REMARK 922        TOTAL FREE ENERGY PREDICTED BY IDOCK:   -6.57 KCAL/MOL
REMARK 923 INTER-LIGAND FREE ENERGY PREDICTED BY IDOCK:   -5.89 KCAL/MOL
REMARK 924 INTRA-LIGAND FREE ENERGY PREDICTED BY IDOCK:   -0.68 KCAL/MOL
REMARK 927      BINDING AFFINITY PREDICTED BY RF-SCORE:    0.00 PKD
ROOT
HETATM    1 CL   UNL     1      -7.491  11.757  68.946  1.00  0.00    -0.108 Cl 
HETATM    2  C   UNL     1      -8.985  10.904  69.010  1.00  0.00    -0.094 A  
HETATM    3  C   UNL     1     -10.252  11.439  68.925  1.00  0.00    -0.184 A  
HETATM    4  C   UNL     1     -11.227  10.380  68.974  1.00  0.00    -0.289 A  
HETATM    5  S   UNL     1      -8.951   9.219  69.179  1.00  0.00    -0.149 SA 
HETATM    6  C   UNL     1     -10.658   9.132  69.118  1.00  0.00    -0.208 A  
ENDROOT
BRANCH   3   7
HETATM    7  C   UNL     1     -10.572  12.895  68.750  1.00  0.00    -0.190 C  
BRANCH   7   8
HETATM    8  O   UNL     1     -11.331  13.112  67.562  1.00  0.00    -0.270 OA 
BRANCH   8   9
HETATM    9  C   UNL     1     -10.624  13.710  66.457  1.00  0.00    -0.282 C  
BRANCH   9  10
HETATM   10  C   UNL     1     -10.298  12.614  65.430  1.00  0.00    -0.311 A  
HETATM   11  C   UNL     1      -8.913  10.700  64.769  1.00  0.00    -0.218 A  
HETATM   12  C   UNL     1     -10.979  12.482  64.203  1.00  0.00    -0.381 A  
HETATM   13  C   UNL     1      -9.274  11.680  65.698  1.00  0.00    -0.150 A  
HETATM   14 CL   UNL     1     -12.352  13.450  63.792  1.00  0.00    -0.457 Cl 
HETATM   15 CL   UNL     1      -9.094   9.458  62.384  1.00  0.00    -0.260 Cl 
HETATM   16  C   UNL     1     -10.593  11.524  63.255  1.00  0.00    -0.405 A  
HETATM   17  C   UNL     1      -9.560  10.641  63.542  1.00  0.00    -0.323 A  
ENDBRANCH   9  10
BRANCH   9  18
HETATM   18  C   UNL     1      -9.383  14.494  66.953  1.00  0.00    -0.245 C  
BRANCH  18  19
HETATM   19  N   UNL     1      -9.653  15.859  67.352  1.00  0.00    -0.220 NA 
HETATM   20  N   UNL     1     -10.263  17.554  68.641  1.00  0.00    -0.356 NA 
HETATM   21  C   UNL     1      -9.313  16.991  66.670  1.00  0.00    -0.255 A  
HETATM   22  C   UNL     1      -9.704  18.028  67.484  1.00  0.00    -0.289 A  
HETATM   23  C   UNL     1     -10.212  16.247  68.540  1.00  0.00    -0.247 A  
ENDBRANCH  18  19
ENDBRANCH   9  18
ENDBRANCH   8   9
ENDBRANCH   7   8
ENDBRANCH   3   7
TORSDOF 6
ENDMDL
MODEL      162
REMARK 921   NORMALIZED FREE ENERGY PREDICTED BY IDOCK:   -4.08 KCAL/MOL
REMARK 922        TOTAL FREE ENERGY PREDICTED BY IDOCK:   -6.55 KCAL/MOL
REMARK 923 INTER-LIGAND FREE ENERGY PREDICTED BY IDOCK:   -6.10 KCAL/MOL
REMARK 924 INTRA-LIGAND FREE ENERGY PREDICTED BY IDOCK:   -0.45 KCAL/MOL
REMARK 927      BINDING AFFINITY PREDICTED BY RF-SCORE:    0.00 PKD
ROOT
HETATM    1 CL   UNL     1      -8.824   6.580  74.508  1.00  0.00    -0.173 Cl 
HETATM    2  C   UNL     1      -9.129   5.204  73.518  1.00  0.00    -0.124 A  
HETATM    3  C   UNL     1     -10.227   4.987  72.713  1.00  0.00    -0.226 A  
HETATM    4  C   UNL     1     -10.073   3.735  72.016  1.00  0.00    -0.209 A  
HETATM    5  S   UNL     1      -7.981   3.961  73.480  1.00  0.00    -0.089 SA 
HETATM    6  C   UNL     1      -8.906   3.077  72.345  1.00  0.00    -0.083 A  
ENDROOT
BRANCH   3   7
HETATM    7  C   UNL     1     -11.381   5.931  72.542  1.00  0.00    -0.304 C  
BRANCH   7   8
HETATM    8  O   UNL     1     -10.922   7.248  72.240  1.00  0.00    -0.229 OA 
BRANCH   8   9
HETATM    9  C   UNL     1     -10.847   7.589  70.842  1.00  0.00    -0.240 C  
BRANCH   9  10
HETATM   10  C   UNL     1     -11.300   9.048  70.665  1.00  0.00    -0.311 A  
HETATM   11  C   UNL     1     -10.928  11.256  69.662  1.00  0.00    -0.214 A  
HETATM   12  C   UNL     1     -12.421   9.591  71.324  1.00  0.00    -0.346 A  
HETATM   13  C   UNL     1     -10.580   9.910  69.810  1.00  0.00    -0.296 A  
HETATM   14 CL   UNL     1     -13.492   8.630  72.284  1.00  0.00    -0.402 Cl 
HETATM   15 CL   UNL     1     -12.409  13.437  70.223  1.00  0.00    -0.382 Cl 
HETATM   16  C   UNL     1     -12.749  10.948  71.205  1.00  0.00    -0.542 A  
HETATM   17  C   UNL     1     -11.999  11.774  70.377  1.00  0.00    -0.332 A  
ENDBRANCH   9  10
BRANCH   9  18
HETATM   18  C   UNL     1     -11.644   6.577  69.981  1.00  0.00    -0.390 C  
BRANCH  18  19
HETATM   19  N   UNL     1     -10.959   6.130  68.787  1.00  0.00    -0.340 NA 
HETATM   20  N   UNL     1      -9.661   4.890  67.489  1.00  0.00    -0.143 NA 
HETATM   21  C   UNL     1     -11.160   6.580  67.514  1.00  0.00    -0.308 A  
HETATM   22  C   UNL     1     -10.343   5.802  66.728  1.00  0.00    -0.256 A  
HETATM   23  C   UNL     1     -10.057   5.104  68.722  1.00  0.00    -0.161 A  
ENDBRANCH  18  19
ENDBRANCH   9  18
ENDBRANCH   8   9
ENDBRANCH   7   8
ENDBRANCH   3   7
TORSDOF 6
ENDMDL
MODEL      163
REMARK 921   NORMALIZED FREE ENERGY PREDICTED BY IDOCK:   -4.08 KCAL/MOL
REMARK 922        TOTAL FREE ENERGY PREDICTED BY IDOCK:   -6.55 KCAL/MOL
REMARK 923 INTER-LIGAND FREE ENERGY PREDICTED BY IDOCK:   -5.71 KCAL/MOL
REMARK 924 INTRA-LIGAND FREE ENERGY PREDICTED BY IDOCK:   -0.84 KCAL/MOL
REMARK 927      BINDING AFFINITY PREDICTED BY RF-SCORE:    0.00 PKD
ROOT
HETATM    1 CL   UNL     1     -12.082  12.042  63.834  1.00  0.00    -0.549 Cl 
HETATM    2  C   UNL     1     -12.008  12.744  65.406  1.00  0.00    -0.436 A  
HETATM    3  C   UNL     1     -11.519  12.160  66.554  1.00  0.00    -0.430 A  
HETATM    4  C   UNL     1     -11.595  13.100  67.643  1.00  0.00    -0.392 A  
HETATM    5  S   UNL     1     -12.571  14.327  65.615  1.00  0.00    -0.328 SA 
HETATM    6  C   UNL     1     -12.151  14.307  67.272  1.00  0.00    -0.355 A  
ENDROOT
BRANCH   3   7
HETATM    7  C   UNL     1     -10.941  10.778  66.649  1.00  0.00    -0.106 C  
BRANCH   7   8
HETATM    8  O   UNL     1     -11.214  10.198  67.924  1.00  0.00    -0.282 OA 
BRANCH   8   9
HETATM    9  C   UNL     1     -10.133   9.462  68.531  1.00  0.00    -0.187 C  
BRANCH   9  10
HETATM   10  C   UNL     1      -9.960   8.132  67.779  1.00  0.00    -0.230 A  
HETATM   11  C   UNL     1     -10.872   5.946  67.141  1.00  0.00    -0.373 A  
HETATM   12  C   UNL     1      -8.785   7.791  67.080  1.00  0.00    -0.125 A  
HETATM   13  C   UNL     1     -11.008   7.187  67.769  1.00  0.00    -0.187 A  
HETATM   14 CL   UNL     1      -7.472   8.897  66.871  1.00  0.00    -0.083 Cl 
HETATM   15 CL   UNL     1      -9.494   4.076  65.773  1.00  0.00    -0.166 Cl 
HETATM   16  C   UNL     1      -8.633   6.533  66.481  1.00  0.00    -0.123 A  
HETATM   17  C   UNL     1      -9.677   5.616  66.518  1.00  0.00    -0.160 A  
ENDBRANCH   9  10
BRANCH   9  18
HETATM   18  C   UNL     1     -10.363   9.296  70.054  1.00  0.00    -0.217 C  
BRANCH  18  19
HETATM   19  N   UNL     1      -9.166   9.009  70.816  1.00  0.00    -0.224 NA 
HETATM   20  N   UNL     1      -7.051   9.122  71.464  1.00  0.00    -0.297 NA 
HETATM   21  C   UNL     1      -9.088   8.285  71.971  1.00  0.00    -0.202 A  
HETATM   22  C   UNL     1      -7.769   8.365  72.351  1.00  0.00    -0.094 A  
HETATM   23  C   UNL     1      -7.918   9.504  70.556  1.00  0.00    -0.159 A  
ENDBRANCH  18  19
ENDBRANCH   9  18
ENDBRANCH   8   9
ENDBRANCH   7   8
ENDBRANCH   3   7
TORSDOF 6
ENDMDL
MODEL      164
REMARK 921   NORMALIZED FREE ENERGY PREDICTED BY IDOCK:   -4.08 KCAL/MOL
REMARK 922        TOTAL FREE ENERGY PREDICTED BY IDOCK:   -6.55 KCAL/MOL
REMARK 923 INTER-LIGAND FREE ENERGY PREDICTED BY IDOCK:   -5.75 KCAL/MOL
REMARK 924 INTRA-LIGAND FREE ENERGY PREDICTED BY IDOCK:   -0.80 KCAL/MOL
REMARK 927      BINDING AFFINITY PREDICTED BY RF-SCORE:    0.00 PKD
ROOT
HETATM    1 CL   UNL     1      -9.580   3.833  70.019  1.00  0.00    -0.267 Cl 
HETATM    2  C   UNL     1      -9.953   4.413  68.441  1.00  0.00     0.000 A  
HETATM    3  C   UNL     1     -10.637   5.565  68.120  1.00  0.00    -0.207 A  
HETATM    4  C   UNL     1     -10.695   5.708  66.687  1.00  0.00    -0.339 A  
HETATM    5  S   UNL     1      -9.432   3.517  67.103  1.00  0.00    -0.124 SA 
HETATM    6  C   UNL     1     -10.088   4.665  66.019  1.00  0.00    -0.264 A  
ENDROOT
BRANCH   3   7
HETATM    7  C   UNL     1     -11.191   6.552  69.106  1.00  0.00    -0.303 C  
BRANCH   7   8
HETATM    8  O   UNL     1     -10.911   7.891  68.699  1.00  0.00    -0.003 OA 
BRANCH   8   9
HETATM    9  C   UNL     1     -10.174   8.699  69.638  1.00  0.00    -0.208 C  
BRANCH   9  10
HETATM   10  C   UNL     1     -11.128   9.737  70.250  1.00  0.00    -0.349 A  
HETATM   11  C   UNL     1     -12.016  12.025  70.262  1.00  0.00    -0.398 A  
HETATM   12  C   UNL     1     -11.959   9.462  71.355  1.00  0.00    -0.371 A  
HETATM   13  C   UNL     1     -11.199  11.037  69.704  1.00  0.00    -0.345 A  
HETATM   14 CL   UNL     1     -12.100   7.881  72.042  1.00  0.00    -0.338 Cl 
HETATM   15 CL   UNL     1     -13.751  12.960  72.100  1.00  0.00    -0.568 Cl 
HETATM   16  C   UNL     1     -12.750  10.461  71.938  1.00  0.00    -0.459 A  
HETATM   17  C   UNL     1     -12.771  11.738  71.391  1.00  0.00    -0.308 A  
ENDBRANCH   9  10
BRANCH   9  18
HETATM   18  C   UNL     1      -8.919   9.317  68.972  1.00  0.00    -0.140 C  
BRANCH  18  19
HETATM   19  N   UNL     1      -8.850   9.140  67.537  1.00  0.00    -0.119 NA 
HETATM   20  N   UNL     1      -9.136   9.575  65.384  1.00  0.00    -0.206 NA 
HETATM   21  C   UNL     1      -8.117   8.206  66.864  1.00  0.00    -0.104 A  
HETATM   22  C   UNL     1      -8.312   8.492  65.533  1.00  0.00    -0.156 A  
HETATM   23  C   UNL     1      -9.438   9.951  66.604  1.00  0.00    -0.173 A  
ENDBRANCH  18  19
ENDBRANCH   9  18
ENDBRANCH   8   9
ENDBRANCH   7   8
ENDBRANCH   3   7
TORSDOF 6
ENDMDL
MODEL      165
REMARK 921   NORMALIZED FREE ENERGY PREDICTED BY IDOCK:   -4.05 KCAL/MOL
REMARK 922        TOTAL FREE ENERGY PREDICTED BY IDOCK:   -6.51 KCAL/MOL
REMARK 923 INTER-LIGAND FREE ENERGY PREDICTED BY IDOCK:   -5.65 KCAL/MOL
REMARK 924 INTRA-LIGAND FREE ENERGY PREDICTED BY IDOCK:   -0.87 KCAL/MOL
REMARK 927      BINDING AFFINITY PREDICTED BY RF-SCORE:    0.00 PKD
ROOT
HETATM    1 CL   UNL     1      -9.464  14.277  65.971  1.00  0.00    -0.262 Cl 
HETATM    2  C   UNL     1     -10.601  13.638  64.846  1.00  0.00    -0.408 A  
HETATM    3  C   UNL     1     -10.610  12.371  64.304  1.00  0.00    -0.391 A  
HETATM    4  C   UNL     1     -11.756  12.224  63.442  1.00  0.00    -0.542 A  
HETATM    5  S   UNL     1     -11.874  14.627  64.328  1.00  0.00    -0.267 SA 
HETATM    6  C   UNL     1     -12.517  13.371  63.362  1.00  0.00    -0.151 A  
ENDROOT
BRANCH   3   7
HETATM    7  C   UNL     1      -9.615  11.288  64.604  1.00  0.00    -0.231 C  
BRANCH   7   8
HETATM    8  O   UNL     1     -10.266  10.125  65.116  1.00  0.00    -0.306 OA 
BRANCH   8   9
HETATM    9  C   UNL     1      -9.627   9.482  66.236  1.00  0.00    -0.226 C  
BRANCH   9  10
HETATM   10  C   UNL     1     -10.376   9.872  67.521  1.00  0.00    -0.289 A  
HETATM   11  C   UNL     1     -11.760  11.493  68.736  1.00  0.00    -0.397 A  
HETATM   12  C   UNL     1     -10.376   9.075  68.683  1.00  0.00    -0.209 A  
HETATM   13  C   UNL     1     -11.107  11.078  67.571  1.00  0.00    -0.366 A  
HETATM   14 CL   UNL     1      -9.656   7.503  68.734  1.00  0.00    -0.148 Cl 
HETATM   15 CL   UNL     1     -12.458  11.240  71.327  1.00  0.00    -0.466 Cl 
HETATM   16  C   UNL     1     -10.999   9.507  69.862  1.00  0.00    -0.263 A  
HETATM   17  C   UNL     1     -11.684  10.715  69.882  1.00  0.00    -0.317 A  
ENDBRANCH   9  10
BRANCH   9  18
HETATM   18  C   UNL     1      -8.112   9.806  66.271  1.00  0.00    -0.113 C  
BRANCH  18  19
HETATM   19  N   UNL     1      -7.248   8.680  65.988  1.00  0.00    -0.083 NA 
HETATM   20  N   UNL     1      -6.512   6.832  65.012  1.00  0.00    -0.042 NA 
HETATM   21  C   UNL     1      -5.987   8.477  66.469  1.00  0.00    -0.052 A  
HETATM   22  C   UNL     1      -5.553   7.326  65.856  1.00  0.00    -0.032 A  
HETATM   23  C   UNL     1      -7.518   7.671  65.104  1.00  0.00    -0.088 A  
ENDBRANCH  18  19
ENDBRANCH   9  18
ENDBRANCH   8   9
ENDBRANCH   7   8
ENDBRANCH   3   7
TORSDOF 6
ENDMDL
MODEL      166
REMARK 921   NORMALIZED FREE ENERGY PREDICTED BY IDOCK:   -4.04 KCAL/MOL
REMARK 922        TOTAL FREE ENERGY PREDICTED BY IDOCK:   -6.50 KCAL/MOL
REMARK 923 INTER-LIGAND FREE ENERGY PREDICTED BY IDOCK:   -5.74 KCAL/MOL
REMARK 924 INTRA-LIGAND FREE ENERGY PREDICTED BY IDOCK:   -0.76 KCAL/MOL
REMARK 927      BINDING AFFINITY PREDICTED BY RF-SCORE:    0.00 PKD
ROOT
HETATM    1 CL   UNL     1      -8.117  11.763  68.720  1.00  0.00    -0.096 Cl 
HETATM    2  C   UNL     1      -9.680  12.196  68.138  1.00  0.00    -0.208 A  
HETATM    3  C   UNL     1     -10.896  11.847  68.686  1.00  0.00    -0.273 A  
HETATM    4  C   UNL     1     -11.958  12.451  67.923  1.00  0.00    -0.260 A  
HETATM    5  S   UNL     1      -9.791  13.167  66.756  1.00  0.00    -0.257 SA 
HETATM    6  C   UNL     1     -11.499  13.184  66.849  1.00  0.00    -0.341 A  
ENDROOT
BRANCH   3   7
HETATM    7  C   UNL     1     -11.088  11.014  69.919  1.00  0.00    -0.205 C  
BRANCH   7   8
HETATM    8  O   UNL     1     -11.236   9.635  69.585  1.00  0.00    -0.220 OA 
BRANCH   8   9
HETATM    9  C   UNL     1     -10.342   8.721  70.251  1.00  0.00    -0.203 C  
BRANCH   9  10
HETATM   10  C   UNL     1     -10.135   7.492  69.351  1.00  0.00    -0.190 A  
HETATM   11  C   UNL     1     -10.841   6.165  67.411  1.00  0.00    -0.431 A  
HETATM   12  C   UNL     1      -9.139   6.523  69.588  1.00  0.00    -0.141 A  
HETATM   13  C   UNL     1     -10.964   7.295  68.225  1.00  0.00    -0.041 A  
HETATM   14 CL   UNL     1      -7.951   6.696  70.833  1.00  0.00    -0.109 Cl 
HETATM   15 CL   UNL     1      -9.762   3.790  66.734  1.00  0.00    -0.207 Cl 
HETATM   16  C   UNL     1      -9.039   5.372  68.795  1.00  0.00    -0.135 A  
HETATM   17  C   UNL     1      -9.893   5.198  67.713  1.00  0.00    -0.156 A  
ENDBRANCH   9  10
BRANCH   9  18
HETATM   18  C   UNL     1     -10.857   8.378  71.671  1.00  0.00    -0.268 C  
BRANCH  18  19
HETATM   19  N   UNL     1     -12.293   8.226  71.771  1.00  0.00    -0.312 NA 
HETATM   20  N   UNL     1     -14.402   8.744  72.210  1.00  0.00    -0.502 NA 
HETATM   21  C   UNL     1     -13.046   7.218  71.242  1.00  0.00    -0.307 A  
HETATM   22  C   UNL     1     -14.347   7.557  71.529  1.00  0.00    -0.458 A  
HETATM   23  C   UNL     1     -13.153   9.129  72.333  1.00  0.00    -0.423 A  
ENDBRANCH  18  19
ENDBRANCH   9  18
ENDBRANCH   8   9
ENDBRANCH   7   8
ENDBRANCH   3   7
TORSDOF 6
ENDMDL
MODEL      167
REMARK 921   NORMALIZED FREE ENERGY PREDICTED BY IDOCK:   -4.02 KCAL/MOL
REMARK 922        TOTAL FREE ENERGY PREDICTED BY IDOCK:   -6.48 KCAL/MOL
REMARK 923 INTER-LIGAND FREE ENERGY PREDICTED BY IDOCK:   -6.25 KCAL/MOL
REMARK 924 INTRA-LIGAND FREE ENERGY PREDICTED BY IDOCK:   -0.23 KCAL/MOL
REMARK 927      BINDING AFFINITY PREDICTED BY RF-SCORE:    0.00 PKD
ROOT
HETATM    1 CL   UNL     1      -9.373   8.375  72.319  1.00  0.00    -0.331 Cl 
HETATM    2  C   UNL     1      -9.994   7.578  70.923  1.00  0.00    -0.180 A  
HETATM    3  C   UNL     1      -9.809   7.942  69.607  1.00  0.00    -0.179 A  
HETATM    4  C   UNL     1     -10.456   6.985  68.747  1.00  0.00    -0.222 A  
HETATM    5  S   UNL     1     -10.926   6.180  71.135  1.00  0.00    -0.286 SA 
HETATM    6  C   UNL     1     -11.102   5.986  69.445  1.00  0.00    -0.375 A  
ENDROOT
BRANCH   3   7
HETATM    7  C   UNL     1      -9.011   9.122  69.135  1.00  0.00    -0.144 C  
BRANCH   7   8
HETATM    8  O   UNL     1      -9.617   9.723  67.991  1.00  0.00    -0.141 OA 
BRANCH   8   9
HETATM    9  C   UNL     1     -10.746  10.581  68.247  1.00  0.00    -0.229 C  
BRANCH   9  10
HETATM   10  C   UNL     1     -11.091  11.341  66.956  1.00  0.00    -0.356 A  
HETATM   11  C   UNL     1     -12.211  13.234  65.868  1.00  0.00    -0.497 A  
HETATM   12  C   UNL     1     -10.700  10.900  65.676  1.00  0.00    -0.108 A  
HETATM   13  C   UNL     1     -11.834  12.540  67.022  1.00  0.00    -0.394 A  
HETATM   14 CL   UNL     1      -9.663   9.537  65.438  1.00  0.00    -0.358 Cl 
HETATM   15 CL   UNL     1     -12.357  13.569  63.198  1.00  0.00    -0.264 Cl 
HETATM   16  C   UNL     1     -11.109  11.575  64.517  1.00  0.00    -0.340 A  
HETATM   17  C   UNL     1     -11.865  12.736  64.620  1.00  0.00    -0.374 A  
ENDBRANCH   9  10
BRANCH   9  18
HETATM   18  C   UNL     1     -10.477  11.501  69.464  1.00  0.00     0.154 C  
BRANCH  18  19
HETATM   19  N   UNL     1     -11.545  11.536  70.441  1.00  0.00    -0.227 NA 
HETATM   20  N   UNL     1     -13.274  12.312  71.588  1.00  0.00    -0.351 NA 
HETATM   21  C   UNL     1     -11.995  10.491  71.195  1.00  0.00    -0.336 A  
HETATM   22  C   UNL     1     -13.062  10.995  71.900  1.00  0.00    -0.419 A  
HETATM   23  C   UNL     1     -12.353  12.609  70.701  1.00  0.00    -0.290 A  
ENDBRANCH  18  19
ENDBRANCH   9  18
ENDBRANCH   8   9
ENDBRANCH   7   8
ENDBRANCH   3   7
TORSDOF 6
ENDMDL
MODEL      168
REMARK 921   NORMALIZED FREE ENERGY PREDICTED BY IDOCK:   -4.02 KCAL/MOL
REMARK 922        TOTAL FREE ENERGY PREDICTED BY IDOCK:   -6.47 KCAL/MOL
REMARK 923 INTER-LIGAND FREE ENERGY PREDICTED BY IDOCK:   -5.60 KCAL/MOL
REMARK 924 INTRA-LIGAND FREE ENERGY PREDICTED BY IDOCK:   -0.87 KCAL/MOL
REMARK 927      BINDING AFFINITY PREDICTED BY RF-SCORE:    0.00 PKD
ROOT
HETATM    1 CL   UNL     1     -10.382   7.862  72.896  1.00  0.00    -0.388 Cl 
HETATM    2  C   UNL     1      -8.905   8.309  72.131  1.00  0.00    -0.201 A  
HETATM    3  C   UNL     1      -8.758   8.953  70.921  1.00  0.00    -0.256 A  
HETATM    4  C   UNL     1      -7.359   9.182  70.665  1.00  0.00    -0.114 A  
HETATM    5  S   UNL     1      -7.447   7.957  72.915  1.00  0.00    -0.119 SA 
HETATM    6  C   UNL     1      -6.542   8.687  71.660  1.00  0.00    -0.074 A  
ENDROOT
BRANCH   3   7
HETATM    7  C   UNL     1      -9.880   9.398  70.030  1.00  0.00    -0.221 C  
BRANCH   7   8
HETATM    8  O   UNL     1      -9.389  10.188  68.947  1.00  0.00    -0.160 OA 
BRANCH   8   9
HETATM    9  C   UNL     1      -9.768   9.758  67.625  1.00  0.00    -0.156 C  
BRANCH   9  10
HETATM   10  C   UNL     1     -10.347  10.961  66.863  1.00  0.00    -0.285 A  
HETATM   11  C   UNL     1     -11.652  13.039  66.897  1.00  0.00    -0.419 A  
HETATM   12  C   UNL     1     -10.199  11.135  65.472  1.00  0.00    -0.263 A  
HETATM   13  C   UNL     1     -11.066  11.956  67.560  1.00  0.00    -0.332 A  
HETATM   14 CL   UNL     1      -9.222  10.088  64.502  1.00  0.00    -0.287 Cl 
HETATM   15 CL   UNL     1     -12.290  14.457  64.696  1.00  0.00    -0.459 Cl 
HETATM   16  C   UNL     1     -10.816  12.200  64.802  1.00  0.00    -0.351 A  
HETATM   17  C   UNL     1     -11.542  13.144  65.518  1.00  0.00    -0.335 A  
ENDBRANCH   9  10
BRANCH   9  18
HETATM   18  C   UNL     1     -10.723   8.540  67.692  1.00  0.00    -0.119 C  
BRANCH  18  19
HETATM   19  N   UNL     1     -10.205   7.334  67.082  1.00  0.00    -0.239 NA 
HETATM   20  N   UNL     1      -8.738   5.932  66.192  1.00  0.00    -0.136 NA 
HETATM   21  C   UNL     1     -10.858   6.143  66.944  1.00  0.00    -0.335 A  
HETATM   22  C   UNL     1      -9.932   5.292  66.387  1.00  0.00    -0.203 A  
HETATM   23  C   UNL     1      -8.926   7.156  66.627  1.00  0.00    -0.146 A  
ENDBRANCH  18  19
ENDBRANCH   9  18
ENDBRANCH   8   9
ENDBRANCH   7   8
ENDBRANCH   3   7
TORSDOF 6
ENDMDL
MODEL      169
REMARK 921   NORMALIZED FREE ENERGY PREDICTED BY IDOCK:   -4.02 KCAL/MOL
REMARK 922        TOTAL FREE ENERGY PREDICTED BY IDOCK:   -6.47 KCAL/MOL
REMARK 923 INTER-LIGAND FREE ENERGY PREDICTED BY IDOCK:   -5.93 KCAL/MOL
REMARK 924 INTRA-LIGAND FREE ENERGY PREDICTED BY IDOCK:   -0.54 KCAL/MOL
REMARK 927      BINDING AFFINITY PREDICTED BY RF-SCORE:    0.00 PKD
ROOT
HETATM    1 CL   UNL     1     -10.519  10.856  64.566  1.00  0.00    -0.417 Cl 
HETATM    2  C   UNL     1     -11.133  11.773  65.889  1.00  0.00    -0.302 A  
HETATM    3  C   UNL     1     -11.244  11.366  67.201  1.00  0.00    -0.363 A  
HETATM    4  C   UNL     1     -11.762  12.448  67.999  1.00  0.00    -0.414 A  
HETATM    5  S   UNL     1     -11.654  13.358  65.605  1.00  0.00    -0.341 SA 
HETATM    6  C   UNL     1     -12.032  13.579  67.258  1.00  0.00    -0.365 A  
ENDROOT
BRANCH   3   7
HETATM    7  C   UNL     1     -10.838  10.022  67.733  1.00  0.00    -0.282 C  
BRANCH   7   8
HETATM    8  O   UNL     1     -11.107   9.925  69.131  1.00  0.00    -0.218 OA 
BRANCH   8   9
HETATM    9  C   UNL     1      -9.964   9.715  69.984  1.00  0.00    -0.247 C  
BRANCH   9  10
HETATM   10  C   UNL     1      -8.987   8.764  69.274  1.00  0.00    -0.144 A  
HETATM   11  C   UNL     1      -8.383   6.476  68.622  1.00  0.00    -0.122 A  
HETATM   12  C   UNL     1      -7.794   9.200  68.664  1.00  0.00    -0.097 A  
HETATM   13  C   UNL     1      -9.269   7.382  69.213  1.00  0.00    -0.147 A  
HETATM   14 CL   UNL     1      -7.380  10.873  68.520  1.00  0.00    -0.092 Cl 
HETATM   15 CL   UNL     1      -6.078   5.817  67.391  1.00  0.00    -0.021 Cl 
HETATM   16  C   UNL     1      -6.888   8.289  68.103  1.00  0.00    -0.069 A  
HETATM   17  C   UNL     1      -7.186   6.933  68.089  1.00  0.00    -0.091 A  
ENDBRANCH   9  10
BRANCH   9  18
HETATM   18  C   UNL     1     -10.403   9.230  71.388  1.00  0.00    -0.321 C  
BRANCH  18  19
HETATM   19  N   UNL     1     -11.795   8.847  71.485  1.00  0.00    -0.309 NA 
HETATM   20  N   UNL     1     -13.581   7.538  71.530  1.00  0.00    -0.376 NA 
HETATM   21  C   UNL     1     -12.836   9.644  71.865  1.00  0.00    -0.425 A  
HETATM   22  C   UNL     1     -13.932   8.814  71.881  1.00  0.00    -0.436 A  
HETATM   23  C   UNL     1     -12.289   7.584  71.307  1.00  0.00    -0.327 A  
ENDBRANCH  18  19
ENDBRANCH   9  18
ENDBRANCH   8   9
ENDBRANCH   7   8
ENDBRANCH   3   7
TORSDOF 6
ENDMDL
MODEL      170
REMARK 921   NORMALIZED FREE ENERGY PREDICTED BY IDOCK:   -4.01 KCAL/MOL
REMARK 922        TOTAL FREE ENERGY PREDICTED BY IDOCK:   -6.46 KCAL/MOL
REMARK 923 INTER-LIGAND FREE ENERGY PREDICTED BY IDOCK:   -5.34 KCAL/MOL
REMARK 924 INTRA-LIGAND FREE ENERGY PREDICTED BY IDOCK:   -1.12 KCAL/MOL
REMARK 927      BINDING AFFINITY PREDICTED BY RF-SCORE:    0.00 PKD
ROOT
HETATM    1 CL   UNL     1      -8.875   8.113  73.805  1.00  0.00    -0.311 Cl 
HETATM    2  C   UNL     1     -10.203   7.177  73.232  1.00  0.00    -0.300 A  
HETATM    3  C   UNL     1     -11.158   7.564  72.317  1.00  0.00    -0.319 A  
HETATM    4  C   UNL     1     -12.066   6.471  72.077  1.00  0.00    -0.358 A  
HETATM    5  S   UNL     1     -10.393   5.598  73.811  1.00  0.00    -0.270 SA 
HETATM    6  C   UNL     1     -11.768   5.352  72.826  1.00  0.00    -0.164 A  
ENDROOT
BRANCH   3   7
HETATM    7  C   UNL     1     -11.217   8.897  71.631  1.00  0.00    -0.345 C  
BRANCH   7   8
HETATM    8  O   UNL     1      -9.987   9.185  70.968  1.00  0.00    -0.250 OA 
BRANCH   8   9
HETATM    9  C   UNL     1      -9.932   8.865  69.564  1.00  0.00    -0.191 C  
BRANCH   9  10
HETATM   10  C   UNL     1      -9.191   7.529  69.391  1.00  0.00    -0.149 A  
HETATM   11  C   UNL     1      -7.344   6.052  70.045  1.00  0.00    -0.075 A  
HETATM   12  C   UNL     1      -9.568   6.556  68.444  1.00  0.00    -0.122 A  
HETATM   13  C   UNL     1      -8.076   7.232  70.204  1.00  0.00    -0.129 A  
HETATM   14 CL   UNL     1     -10.996   6.702  67.479  1.00  0.00    -0.404 Cl 
HETATM   15 CL   UNL     1      -6.785   3.709  68.836  1.00  0.00    -0.044 Cl 
HETATM   16  C   UNL     1      -8.814   5.390  68.258  1.00  0.00    -0.105 A  
HETATM   17  C   UNL     1      -7.704   5.146  69.057  1.00  0.00    -0.081 A  
ENDBRANCH   9  10
BRANCH   9  18
HETATM   18  C   UNL     1      -9.317  10.033  68.753  1.00  0.00    -0.162 C  
BRANCH  18  19
HETATM   19  N   UNL     1     -10.229  10.671  67.828  1.00  0.00    -0.173 NA 
HETATM   20  N   UNL     1     -12.007  11.781  67.112  1.00  0.00    -0.595 NA 
HETATM   21  C   UNL     1     -10.002  10.933  66.507  1.00  0.00    -0.211 A  
HETATM   22  C   UNL     1     -11.117  11.616  66.084  1.00  0.00    -0.280 A  
HETATM   23  C   UNL     1     -11.444  11.211  68.151  1.00  0.00    -0.303 A  
ENDBRANCH  18  19
ENDBRANCH   9  18
ENDBRANCH   8   9
ENDBRANCH   7   8
ENDBRANCH   3   7
TORSDOF 6
ENDMDL
MODEL      171
REMARK 921   NORMALIZED FREE ENERGY PREDICTED BY IDOCK:   -4.01 KCAL/MOL
REMARK 922        TOTAL FREE ENERGY PREDICTED BY IDOCK:   -6.45 KCAL/MOL
REMARK 923 INTER-LIGAND FREE ENERGY PREDICTED BY IDOCK:   -5.77 KCAL/MOL
REMARK 924 INTRA-LIGAND FREE ENERGY PREDICTED BY IDOCK:   -0.68 KCAL/MOL
REMARK 927      BINDING AFFINITY PREDICTED BY RF-SCORE:    0.00 PKD
ROOT
HETATM    1 CL   UNL     1     -10.566  19.428  66.714  1.00  0.00    -0.553 Cl 
HETATM    2  C   UNL     1      -8.919  19.046  67.039  1.00  0.00    -0.294 A  
HETATM    3  C   UNL     1      -8.327  17.803  66.980  1.00  0.00    -0.242 A  
HETATM    4  C   UNL     1      -6.923  17.923  67.278  1.00  0.00    -0.204 A  
HETATM    5  S   UNL     1      -7.864  20.299  67.468  1.00  0.00    -0.287 SA 
HETATM    6  C   UNL     1      -6.544  19.217  67.567  1.00  0.00    -0.201 A  
ENDROOT
BRANCH   3   7
HETATM    7  C   UNL     1      -9.021  16.526  66.607  1.00  0.00    -0.255 C  
BRANCH   7   8
HETATM    8  O   UNL     1      -8.232  15.392  66.967  1.00  0.00    -0.200 OA 
BRANCH   8   9
HETATM    9  C   UNL     1      -8.957  14.180  67.253  1.00  0.00    -0.214 C  
BRANCH   9  10
HETATM   10  C   UNL     1     -10.072  14.499  68.262  1.00  0.00    -0.232 A  
HETATM   11  C   UNL     1     -10.730  15.357  70.464  1.00  0.00    -0.290 A  
HETATM   12  C   UNL     1     -11.433  14.221  68.019  1.00  0.00    -0.314 A  
HETATM   13  C   UNL     1      -9.753  15.098  69.499  1.00  0.00    -0.172 A  
HETATM   14 CL   UNL     1     -12.004  13.629  66.497  1.00  0.00    -0.439 Cl 
HETATM   15 CL   UNL     1     -13.251  15.297  71.416  1.00  0.00    -0.504 Cl 
HETATM   16  C   UNL     1     -12.409  14.447  68.999  1.00  0.00    -0.130 A  
HETATM   17  C   UNL     1     -12.051  15.010  70.217  1.00  0.00    -0.329 A  
ENDBRANCH   9  10
BRANCH   9  18
HETATM   18  C   UNL     1      -7.996  13.056  67.715  1.00  0.00    -0.164 C  
BRANCH  18  19
HETATM   19  N   UNL     1      -8.169  11.794  67.028  1.00  0.00    -0.168 NA 
HETATM   20  N   UNL     1      -9.204  10.090  66.062  1.00  0.00    -0.154 NA 
HETATM   21  C   UNL     1      -7.191  11.044  66.440  1.00  0.00    -0.127 A  
HETATM   22  C   UNL     1      -7.854   9.992  65.853  1.00  0.00    -0.122 A  
HETATM   23  C   UNL     1      -9.367  11.188  66.763  1.00  0.00    -0.177 A  
ENDBRANCH  18  19
ENDBRANCH   9  18
ENDBRANCH   8   9
ENDBRANCH   7   8
ENDBRANCH   3   7
TORSDOF 6
ENDMDL
MODEL      172
REMARK 921   NORMALIZED FREE ENERGY PREDICTED BY IDOCK:   -3.99 KCAL/MOL
REMARK 922        TOTAL FREE ENERGY PREDICTED BY IDOCK:   -6.43 KCAL/MOL
REMARK 923 INTER-LIGAND FREE ENERGY PREDICTED BY IDOCK:   -5.86 KCAL/MOL
REMARK 924 INTRA-LIGAND FREE ENERGY PREDICTED BY IDOCK:   -0.57 KCAL/MOL
REMARK 927      BINDING AFFINITY PREDICTED BY RF-SCORE:    0.00 PKD
ROOT
HETATM    1 CL   UNL     1     -10.057  13.776  65.233  1.00  0.00    -0.334 Cl 
HETATM    2  C   UNL     1      -8.995  13.871  66.585  1.00  0.00    -0.134 A  
HETATM    3  C   UNL     1      -8.606  12.837  67.409  1.00  0.00    -0.194 A  
HETATM    4  C   UNL     1      -7.674  13.329  68.391  1.00  0.00    -0.138 A  
HETATM    5  S   UNL     1      -8.315  15.370  66.980  1.00  0.00    -0.252 SA 
HETATM    6  C   UNL     1      -7.435  14.682  68.275  1.00  0.00    -0.117 A  
ENDROOT
BRANCH   3   7
HETATM    7  C   UNL     1      -9.039  11.406  67.275  1.00  0.00    -0.162 C  
BRANCH   7   8
HETATM    8  O   UNL     1     -10.429  11.264  67.563  1.00  0.00    -0.187 OA 
BRANCH   8   9
HETATM    9  C   UNL     1     -10.855  11.706  68.867  1.00  0.00    -0.220 C  
BRANCH   9  10
HETATM   10  C   UNL     1     -11.203  10.472  69.716  1.00  0.00    -0.361 A  
HETATM   11  C   UNL     1     -10.940   8.068  70.134  1.00  0.00    -0.226 A  
HETATM   12  C   UNL     1     -12.101  10.512  70.801  1.00  0.00    -0.370 A  
HETATM   13  C   UNL     1     -10.613   9.224  69.419  1.00  0.00    -0.234 A  
HETATM   14 CL   UNL     1     -12.790  11.987  71.384  1.00  0.00    -0.450 Cl 
HETATM   15 CL   UNL     1     -12.309   6.705  72.013  1.00  0.00    -0.352 Cl 
HETATM   16  C   UNL     1     -12.458   9.348  71.494  1.00  0.00    -0.450 A  
HETATM   17  C   UNL     1     -11.878   8.132  71.154  1.00  0.00    -0.279 A  
ENDBRANCH   9  10
BRANCH   9  18
HETATM   18  C   UNL     1     -12.008  12.735  68.755  1.00  0.00    -0.240 C  
BRANCH  18  19
HETATM   19  N   UNL     1     -11.607  14.112  68.947  1.00  0.00    -0.288 NA 
HETATM   20  N   UNL     1     -11.500  16.300  68.617  1.00  0.00    -0.346 NA 
HETATM   21  C   UNL     1     -10.901  14.617  70.001  1.00  0.00    -0.060 A  
HETATM   22  C   UNL     1     -10.843  15.972  69.773  1.00  0.00    -0.337 A  
HETATM   23  C   UNL     1     -11.957  15.164  68.145  1.00  0.00    -0.123 A  
ENDBRANCH  18  19
ENDBRANCH   9  18
ENDBRANCH   8   9
ENDBRANCH   7   8
ENDBRANCH   3   7
TORSDOF 6
ENDMDL
MODEL      173
REMARK 921   NORMALIZED FREE ENERGY PREDICTED BY IDOCK:   -3.98 KCAL/MOL
REMARK 922        TOTAL FREE ENERGY PREDICTED BY IDOCK:   -6.43 KCAL/MOL
REMARK 923 INTER-LIGAND FREE ENERGY PREDICTED BY IDOCK:   -5.70 KCAL/MOL
REMARK 924 INTRA-LIGAND FREE ENERGY PREDICTED BY IDOCK:   -0.72 KCAL/MOL
REMARK 927      BINDING AFFINITY PREDICTED BY RF-SCORE:    0.00 PKD
ROOT
HETATM    1 CL   UNL     1      -8.468   7.530  67.981  1.00  0.00    -0.123 Cl 
HETATM    2  C   UNL     1      -7.586   8.386  69.188  1.00  0.00    -0.087 A  
HETATM    3  C   UNL     1      -7.543   9.751  69.374  1.00  0.00    -0.104 A  
HETATM    4  C   UNL     1      -6.727  10.055  70.522  1.00  0.00    -0.118 A  
HETATM    5  S   UNL     1      -6.670   7.501  70.304  1.00  0.00    -0.047 SA 
HETATM    6  C   UNL     1      -6.190   8.930  71.112  1.00  0.00    -0.057 A  
ENDROOT
BRANCH   3   7
HETATM    7  C   UNL     1      -8.275  10.766  68.546  1.00  0.00    -0.136 C  
BRANCH   7   8
HETATM    8  O   UNL     1      -9.674  10.741  68.828  1.00  0.00    -0.177 OA 
BRANCH   8   9
HETATM    9  C   UNL     1     -10.462  11.785  68.221  1.00  0.00    -0.206 C  
BRANCH   9  10
HETATM   10  C   UNL     1     -11.325  12.446  69.308  1.00  0.00    -0.315 A  
HETATM   11  C   UNL     1     -12.784  12.205  71.267  1.00  0.00    -0.363 A  
HETATM   12  C   UNL     1     -11.535  13.837  69.385  1.00  0.00    -0.286 A  
HETATM   13  C   UNL     1     -11.951  11.649  70.292  1.00  0.00    -0.445 A  
HETATM   14 CL   UNL     1     -10.721  14.959  68.350  1.00  0.00    -0.239 Cl 
HETATM   15 CL   UNL     1     -14.073  14.256  72.449  1.00  0.00    -0.593 Cl 
HETATM   16  C   UNL     1     -12.399  14.392  70.338  1.00  0.00    -0.406 A  
HETATM   17  C   UNL     1     -13.022  13.573  71.272  1.00  0.00    -0.304 A  
ENDBRANCH   9  10
BRANCH   9  18
HETATM   18  C   UNL     1     -11.275  11.238  67.022  1.00  0.00    -0.255 C  
BRANCH  18  19
HETATM   19  N   UNL     1     -11.076  11.957  65.781  1.00  0.00    -0.316 NA 
HETATM   20  N   UNL     1     -11.374  12.564  63.672  1.00  0.00    -0.453 NA 
HETATM   21  C   UNL     1     -10.304  13.068  65.597  1.00  0.00    -0.285 A  
HETATM   22  C   UNL     1     -10.501  13.423  64.283  1.00  0.00    -0.305 A  
HETATM   23  C   UNL     1     -11.712  11.697  64.598  1.00  0.00    -0.082 A  
ENDBRANCH  18  19
ENDBRANCH   9  18
ENDBRANCH   8   9
ENDBRANCH   7   8
ENDBRANCH   3   7
TORSDOF 6
ENDMDL
MODEL      174
REMARK 921   NORMALIZED FREE ENERGY PREDICTED BY IDOCK:   -3.98 KCAL/MOL
REMARK 922        TOTAL FREE ENERGY PREDICTED BY IDOCK:   -6.42 KCAL/MOL
REMARK 923 INTER-LIGAND FREE ENERGY PREDICTED BY IDOCK:   -5.82 KCAL/MOL
REMARK 924 INTRA-LIGAND FREE ENERGY PREDICTED BY IDOCK:   -0.60 KCAL/MOL
REMARK 927      BINDING AFFINITY PREDICTED BY RF-SCORE:    0.00 PKD
ROOT
HETATM    1 CL   UNL     1     -10.515   6.887  66.965  1.00  0.00    -0.347 Cl 
HETATM    2  C   UNL     1      -9.096   7.697  66.420  1.00  0.00    -0.174 A  
HETATM    3  C   UNL     1      -8.687   8.970  66.753  1.00  0.00    -0.134 A  
HETATM    4  C   UNL     1      -7.423   9.251  66.121  1.00  0.00    -0.096 A  
HETATM    5  S   UNL     1      -8.047   6.881  65.372  1.00  0.00    -0.135 SA 
HETATM    6  C   UNL     1      -6.970   8.208  65.340  1.00  0.00    -0.063 A  
ENDROOT
BRANCH   3   7
HETATM    7  C   UNL     1      -9.413   9.904  67.677  1.00  0.00    -0.147 C  
BRANCH   7   8
HETATM    8  O   UNL     1     -10.612  10.388  67.074  1.00  0.00    -0.243 OA 
BRANCH   8   9
HETATM    9  C   UNL     1     -10.862  11.802  67.204  1.00  0.00    -0.258 C  
BRANCH   9  10
HETATM   10  C   UNL     1     -11.502  12.065  68.577  1.00  0.00    -0.345 A  
HETATM   11  C   UNL     1     -12.799  11.229  70.485  1.00  0.00    -0.166 A  
HETATM   12  C   UNL     1     -11.467  13.321  69.214  1.00  0.00    -0.288 A  
HETATM   13  C   UNL     1     -12.162  11.019  69.258  1.00  0.00    -0.280 A  
HETATM   14 CL   UNL     1     -10.572  14.660  68.583  1.00  0.00    -0.244 Cl 
HETATM   15 CL   UNL     1     -13.615  12.765  72.543  1.00  0.00    -0.553 Cl 
HETATM   16  C   UNL     1     -12.137  13.542  70.425  1.00  0.00    -0.415 A  
HETATM   17  C   UNL     1     -12.802  12.496  71.052  1.00  0.00    -0.157 A  
ENDBRANCH   9  10
BRANCH   9  18
HETATM   18  C   UNL     1     -11.700  12.328  66.011  1.00  0.00    -0.388 C  
BRANCH  18  19
HETATM   19  N   UNL     1     -11.326  13.647  65.549  1.00  0.00    -0.296 NA 
HETATM   20  N   UNL     1     -10.044  15.285  64.785  1.00  0.00    -0.179 NA 
HETATM   21  C   UNL     1     -12.171  14.674  65.240  1.00  0.00    -0.249 A  
HETATM   22  C   UNL     1     -11.356  15.678  64.774  1.00  0.00    -0.343 A  
HETATM   23  C   UNL     1     -10.056  14.057  65.246  1.00  0.00    -0.318 A  
ENDBRANCH  18  19
ENDBRANCH   9  18
ENDBRANCH   8   9
ENDBRANCH   7   8
ENDBRANCH   3   7
TORSDOF 6
ENDMDL
MODEL      175
REMARK 921   NORMALIZED FREE ENERGY PREDICTED BY IDOCK:   -3.96 KCAL/MOL
REMARK 922        TOTAL FREE ENERGY PREDICTED BY IDOCK:   -6.39 KCAL/MOL
REMARK 923 INTER-LIGAND FREE ENERGY PREDICTED BY IDOCK:   -6.19 KCAL/MOL
REMARK 924 INTRA-LIGAND FREE ENERGY PREDICTED BY IDOCK:   -0.20 KCAL/MOL
REMARK 927      BINDING AFFINITY PREDICTED BY RF-SCORE:    0.00 PKD
ROOT
HETATM    1 CL   UNL     1      -9.599  14.473  66.276  1.00  0.00    -0.321 Cl 
HETATM    2  C   UNL     1     -10.577  13.591  65.166  1.00  0.00    -0.355 A  
HETATM    3  C   UNL     1     -10.509  12.243  64.888  1.00  0.00    -0.321 A  
HETATM    4  C   UNL     1     -11.533  11.895  63.936  1.00  0.00    -0.511 A  
HETATM    5  S   UNL     1     -11.779  14.419  64.308  1.00  0.00    -0.252 SA 
HETATM    6  C   UNL     1     -12.285  12.980  63.536  1.00  0.00    -0.501 A  
ENDROOT
BRANCH   3   7
HETATM    7  C   UNL     1      -9.554  11.272  65.518  1.00  0.00    -0.228 C  
BRANCH   7   8
HETATM    8  O   UNL     1      -9.859  11.079  66.899  1.00  0.00    -0.185 OA 
BRANCH   8   9
HETATM    9  C   UNL     1     -10.232   9.742  67.286  1.00  0.00    -0.232 C  
BRANCH   9  10
HETATM   10  C   UNL     1     -10.968   9.807  68.634  1.00  0.00    -0.189 A  
HETATM   11  C   UNL     1     -11.533   8.744  70.772  1.00  0.00    -0.309 A  
HETATM   12  C   UNL     1     -11.786  10.890  69.013  1.00  0.00    -0.320 A  
HETATM   13  C   UNL     1     -10.841   8.747  69.557  1.00  0.00    -0.151 A  
HETATM   14 CL   UNL     1     -11.925  12.328  68.062  1.00  0.00    -0.353 Cl 
HETATM   15 CL   UNL     1     -13.261   9.780  72.562  1.00  0.00    -0.338 Cl 
HETATM   16  C   UNL     1     -12.509  10.872  70.213  1.00  0.00    -0.383 A  
HETATM   17  C   UNL     1     -12.381   9.797  71.084  1.00  0.00    -0.359 A  
ENDBRANCH   9  10
BRANCH   9  18
HETATM   18  C   UNL     1      -9.001   8.802  67.288  1.00  0.00    -0.132 C  
BRANCH  18  19
HETATM   19  N   UNL     1      -9.229   7.509  66.678  1.00  0.00    -0.155 NA 
HETATM   20  N   UNL     1      -8.783   5.612  65.625  1.00  0.00    -0.150 NA 
HETATM   21  C   UNL     1     -10.367   6.759  66.756  1.00  0.00    -0.215 A  
HETATM   22  C   UNL     1     -10.070   5.592  66.093  1.00  0.00    -0.092 A  
HETATM   23  C   UNL     1      -8.297   6.773  65.999  1.00  0.00    -0.134 A  
ENDBRANCH  18  19
ENDBRANCH   9  18
ENDBRANCH   8   9
ENDBRANCH   7   8
ENDBRANCH   3   7
TORSDOF 6
ENDMDL
MODEL      176
REMARK 921   NORMALIZED FREE ENERGY PREDICTED BY IDOCK:   -3.96 KCAL/MOL
REMARK 922        TOTAL FREE ENERGY PREDICTED BY IDOCK:   -6.39 KCAL/MOL
REMARK 923 INTER-LIGAND FREE ENERGY PREDICTED BY IDOCK:   -6.38 KCAL/MOL
REMARK 924 INTRA-LIGAND FREE ENERGY PREDICTED BY IDOCK:   -0.01 KCAL/MOL
REMARK 927      BINDING AFFINITY PREDICTED BY RF-SCORE:    0.00 PKD
ROOT
HETATM    1 CL   UNL     1     -10.071  11.035  65.763  1.00  0.00    -0.292 Cl 
HETATM    2  C   UNL     1      -8.369  11.029  66.026  1.00  0.00    -0.147 A  
HETATM    3  C   UNL     1      -7.679  11.701  67.012  1.00  0.00    -0.159 A  
HETATM    4  C   UNL     1      -6.275  11.393  66.913  1.00  0.00    -0.135 A  
HETATM    5  S   UNL     1      -7.392  10.100  65.002  1.00  0.00    -0.123 SA 
HETATM    6  C   UNL     1      -5.984  10.545  65.865  1.00  0.00    -0.121 A  
ENDROOT
BRANCH   3   7
HETATM    7  C   UNL     1      -8.295  12.576  68.064  1.00  0.00    -0.171 C  
BRANCH   7   8
HETATM    8  O   UNL     1      -9.484  13.198  67.578  1.00  0.00    -0.199 OA 
BRANCH   8   9
HETATM    9  C   UNL     1      -9.692  14.568  67.975  1.00  0.00    -0.218 C  
BRANCH   9  10
HETATM   10  C   UNL     1     -10.632  14.592  69.191  1.00  0.00    -0.247 A  
HETATM   11  C   UNL     1     -11.348  15.680  71.271  1.00  0.00    -0.451 A  
HETATM   12  C   UNL     1     -11.599  13.597  69.436  1.00  0.00    -0.312 A  
HETATM   13  C   UNL     1     -10.547  15.647  70.126  1.00  0.00    -0.348 A  
HETATM   14 CL   UNL     1     -11.930  12.324  68.313  1.00  0.00    -0.349 Cl 
HETATM   15 CL   UNL     1     -13.207  14.668  72.940  1.00  0.00    -0.573 Cl 
HETATM   16  C   UNL     1     -12.377  13.609  70.602  1.00  0.00    -0.440 A  
HETATM   17  C   UNL     1     -12.244  14.648  71.514  1.00  0.00    -0.352 A  
ENDBRANCH   9  10
BRANCH   9  18
HETATM   18  C   UNL     1     -10.189  15.421  66.781  1.00  0.00    -0.271 C  
BRANCH  18  19
HETATM   19  N   UNL     1      -9.643  16.760  66.729  1.00  0.00    -0.239 NA 
HETATM   20  N   UNL     1      -9.517  18.954  67.005  1.00  0.00    -0.302 NA 
HETATM   21  C   UNL     1      -8.364  17.108  66.401  1.00  0.00    -0.280 A  
HETATM   22  C   UNL     1      -8.310  18.470  66.575  1.00  0.00    -0.281 A  
HETATM   23  C   UNL     1     -10.298  17.903  67.098  1.00  0.00    -0.367 A  
ENDBRANCH  18  19
ENDBRANCH   9  18
ENDBRANCH   8   9
ENDBRANCH   7   8
ENDBRANCH   3   7
TORSDOF 6
ENDMDL
MODEL      177
REMARK 921   NORMALIZED FREE ENERGY PREDICTED BY IDOCK:   -3.94 KCAL/MOL
REMARK 922        TOTAL FREE ENERGY PREDICTED BY IDOCK:   -6.36 KCAL/MOL
REMARK 923 INTER-LIGAND FREE ENERGY PREDICTED BY IDOCK:   -5.83 KCAL/MOL
REMARK 924 INTRA-LIGAND FREE ENERGY PREDICTED BY IDOCK:   -0.54 KCAL/MOL
REMARK 927      BINDING AFFINITY PREDICTED BY RF-SCORE:    0.00 PKD
ROOT
HETATM    1 CL   UNL     1     -10.208  13.882  66.981  1.00  0.00    -0.252 Cl 
HETATM    2  C   UNL     1     -10.853  13.207  65.533  1.00  0.00    -0.283 A  
HETATM    3  C   UNL     1     -10.557  11.977  64.986  1.00  0.00    -0.332 A  
HETATM    4  C   UNL     1     -11.346  11.776  63.798  1.00  0.00    -0.524 A  
HETATM    5  S   UNL     1     -11.990  14.103  64.656  1.00  0.00    -0.466 SA 
HETATM    6  C   UNL     1     -12.157  12.851  63.503  1.00  0.00    -0.555 A  
ENDROOT
BRANCH   3   7
HETATM    7  C   UNL     1      -9.602  10.974  65.565  1.00  0.00    -0.222 C  
BRANCH   7   8
HETATM    8  O   UNL     1     -10.239  10.182  66.566  1.00  0.00    -0.222 OA 
BRANCH   8   9
HETATM    9  C   UNL     1      -9.713   8.853  66.755  1.00  0.00    -0.219 C  
BRANCH   9  10
HETATM   10  C   UNL     1     -10.271   8.284  68.069  1.00  0.00    -0.265 A  
HETATM   11  C   UNL     1     -11.193   6.378  69.309  1.00  0.00    -0.440 A  
HETATM   12  C   UNL     1     -10.447   9.061  69.231  1.00  0.00    -0.228 A  
HETATM   13  C   UNL     1     -10.635   6.922  68.149  1.00  0.00    -0.262 A  
HETATM   14 CL   UNL     1      -9.912  10.703  69.343  1.00  0.00    -0.219 Cl 
HETATM   15 CL   UNL     1     -12.131   6.529  71.831  1.00  0.00    -0.389 Cl 
HETATM   16  C   UNL     1     -11.040   8.526  70.383  1.00  0.00    -0.246 A  
HETATM   17  C   UNL     1     -11.413   7.188  70.414  1.00  0.00    -0.278 A  
ENDBRANCH   9  10
BRANCH   9  18
HETATM   18  C   UNL     1      -8.166   8.855  66.679  1.00  0.00    -0.111 C  
BRANCH  18  19
HETATM   19  N   UNL     1      -7.601   7.787  65.882  1.00  0.00    -0.087 NA 
HETATM   20  N   UNL     1      -6.296   6.083  65.334  1.00  0.00    -0.037 NA 
HETATM   21  C   UNL     1      -8.092   7.300  64.704  1.00  0.00    -0.081 A  
HETATM   22  C   UNL     1      -7.266   6.249  64.382  1.00  0.00    -0.061 A  
HETATM   23  C   UNL     1      -6.526   7.015  66.229  1.00  0.00    -0.051 A  
ENDBRANCH  18  19
ENDBRANCH   9  18
ENDBRANCH   8   9
ENDBRANCH   7   8
ENDBRANCH   3   7
TORSDOF 6
ENDMDL
MODEL      178
REMARK 921   NORMALIZED FREE ENERGY PREDICTED BY IDOCK:   -3.93 KCAL/MOL
REMARK 922        TOTAL FREE ENERGY PREDICTED BY IDOCK:   -6.35 KCAL/MOL
REMARK 923 INTER-LIGAND FREE ENERGY PREDICTED BY IDOCK:   -6.31 KCAL/MOL
REMARK 924 INTRA-LIGAND FREE ENERGY PREDICTED BY IDOCK:   -0.05 KCAL/MOL
REMARK 927      BINDING AFFINITY PREDICTED BY RF-SCORE:    0.00 PKD
ROOT
HETATM    1 CL   UNL     1      -6.937  16.557  69.325  1.00  0.00    -0.225 Cl 
HETATM    2  C   UNL     1      -8.305  17.163  68.471  1.00  0.00    -0.262 A  
HETATM    3  C   UNL     1      -9.250  16.429  67.788  1.00  0.00    -0.201 A  
HETATM    4  C   UNL     1     -10.254  17.313  67.254  1.00  0.00    -0.320 A  
HETATM    5  S   UNL     1      -8.573  18.835  68.451  1.00  0.00    -0.348 SA 
HETATM    6  C   UNL     1     -10.004  18.641  67.534  1.00  0.00    -0.338 A  
ENDROOT
BRANCH   3   7
HETATM    7  C   UNL     1      -9.267  14.933  67.664  1.00  0.00    -0.187 C  
BRANCH   7   8
HETATM    8  O   UNL     1     -10.323  14.505  66.804  1.00  0.00    -0.264 OA 
BRANCH   8   9
HETATM    9  C   UNL     1     -11.501  13.988  67.454  1.00  0.00    -0.348 C  
BRANCH   9  10
HETATM   10  C   UNL     1     -11.195  12.575  67.977  1.00  0.00    -0.316 A  
HETATM   11  C   UNL     1     -11.491  10.869  69.716  1.00  0.00    -0.390 A  
HETATM   12  C   UNL     1     -10.340  11.676  67.310  1.00  0.00    -0.204 A  
HETATM   13  C   UNL     1     -11.782  12.127  69.181  1.00  0.00    -0.384 A  
HETATM   14 CL   UNL     1      -9.664  12.015  65.754  1.00  0.00    -0.256 Cl 
HETATM   15 CL   UNL     1     -10.206   8.500  69.740  1.00  0.00    -0.201 Cl 
HETATM   16  C   UNL     1     -10.018  10.429  67.864  1.00  0.00    -0.192 A  
HETATM   17  C   UNL     1     -10.593  10.035  69.066  1.00  0.00    -0.214 A  
ENDBRANCH   9  10
BRANCH   9  18
HETATM   18  C   UNL     1     -12.728  14.056  66.512  1.00  0.00     0.004 C  
BRANCH  18  19
HETATM   19  N   UNL     1     -12.505  13.508  65.191  1.00  0.00    -0.509 NA 
HETATM   20  N   UNL     1     -12.625  12.091  63.493  1.00  0.00    -0.687 NA 
HETATM   21  C   UNL     1     -11.946  14.151  64.125  1.00  0.00    -0.393 A  
HETATM   22  C   UNL     1     -12.027  13.253  63.086  1.00  0.00    -0.112 A  
HETATM   23  C   UNL     1     -12.911  12.274  64.761  1.00  0.00     0.037 A  
ENDBRANCH  18  19
ENDBRANCH   9  18
ENDBRANCH   8   9
ENDBRANCH   7   8
ENDBRANCH   3   7
TORSDOF 6
ENDMDL
MODEL      179
REMARK 921   NORMALIZED FREE ENERGY PREDICTED BY IDOCK:   -3.93 KCAL/MOL
REMARK 922        TOTAL FREE ENERGY PREDICTED BY IDOCK:   -6.35 KCAL/MOL
REMARK 923 INTER-LIGAND FREE ENERGY PREDICTED BY IDOCK:   -5.88 KCAL/MOL
REMARK 924 INTRA-LIGAND FREE ENERGY PREDICTED BY IDOCK:   -0.47 KCAL/MOL
REMARK 927      BINDING AFFINITY PREDICTED BY RF-SCORE:    0.00 PKD
ROOT
HETATM    1 CL   UNL     1     -10.356   7.275  72.247  1.00  0.00    -0.227 Cl 
HETATM    2  C   UNL     1     -11.206   8.652  71.657  1.00  0.00    -0.309 A  
HETATM    3  C   UNL     1     -10.735   9.607  70.782  1.00  0.00    -0.401 A  
HETATM    4  C   UNL     1     -11.777  10.564  70.508  1.00  0.00    -0.443 A  
HETATM    5  S   UNL     1     -12.803   8.898  72.163  1.00  0.00    -0.423 SA 
HETATM    6  C   UNL     1     -12.943  10.301  71.196  1.00  0.00    -0.409 A  
ENDROOT
BRANCH   3   7
HETATM    7  C   UNL     1      -9.368   9.622  70.163  1.00  0.00    -0.251 C  
BRANCH   7   8
HETATM    8  O   UNL     1      -9.453   9.720  68.742  1.00  0.00    -0.147 OA 
BRANCH   8   9
HETATM    9  C   UNL     1      -9.006  10.962  68.163  1.00  0.00    -0.144 C  
BRANCH   9  10
HETATM   10  C   UNL     1      -9.793  11.213  66.867  1.00  0.00    -0.223 A  
HETATM   11  C   UNL     1     -11.618  12.377  65.710  1.00  0.00    -0.449 A  
HETATM   12  C   UNL     1      -9.522  10.541  65.659  1.00  0.00    -0.210 A  
HETATM   13  C   UNL     1     -10.845  12.155  66.854  1.00  0.00    -0.291 A  
HETATM   14 CL   UNL     1      -8.175   9.472  65.471  1.00  0.00    -0.121 Cl 
HETATM   15 CL   UNL     1     -12.336  11.894  63.158  1.00  0.00    -0.513 Cl 
HETATM   16  C   UNL     1     -10.319  10.735  64.522  1.00  0.00    -0.401 A  
HETATM   17  C   UNL     1     -11.365  11.649  64.556  1.00  0.00    -0.240 A  
ENDBRANCH   9  10
BRANCH   9  18
HETATM   18  C   UNL     1      -7.469  10.963  67.973  1.00  0.00    -0.090 C  
BRANCH  18  19
HETATM   19  N   UNL     1      -6.737  11.693  68.986  1.00  0.00    -0.092 NA 
HETATM   20  N   UNL     1      -6.026  13.413  70.187  1.00  0.00    -0.144 NA 
HETATM   21  C   UNL     1      -6.019  11.160  70.018  1.00  0.00    -0.125 A  
HETATM   22  C   UNL     1      -5.585  12.243  70.746  1.00  0.00    -0.139 A  
HETATM   23  C   UNL     1      -6.724  13.053  69.135  1.00  0.00    -0.087 A  
ENDBRANCH  18  19
ENDBRANCH   9  18
ENDBRANCH   8   9
ENDBRANCH   7   8
ENDBRANCH   3   7
TORSDOF 6
ENDMDL
MODEL      180
REMARK 921   NORMALIZED FREE ENERGY PREDICTED BY IDOCK:   -3.90 KCAL/MOL
REMARK 922        TOTAL FREE ENERGY PREDICTED BY IDOCK:   -6.31 KCAL/MOL
REMARK 923 INTER-LIGAND FREE ENERGY PREDICTED BY IDOCK:   -4.95 KCAL/MOL
REMARK 924 INTRA-LIGAND FREE ENERGY PREDICTED BY IDOCK:   -1.36 KCAL/MOL
REMARK 927      BINDING AFFINITY PREDICTED BY RF-SCORE:    0.00 PKD
ROOT
HETATM    1 CL   UNL     1      -5.948  10.448  65.178  1.00  0.00    -0.131 Cl 
HETATM    2  C   UNL     1      -6.527   9.011  64.423  1.00  0.00    -0.075 A  
HETATM    3  C   UNL     1      -7.573   8.905  63.533  1.00  0.00    -0.118 A  
HETATM    4  C   UNL     1      -7.702   7.536  63.103  1.00  0.00    -0.130 A  
HETATM    5  S   UNL     1      -5.751   7.546  64.766  1.00  0.00    -0.038 SA 
HETATM    6  C   UNL     1      -6.783   6.697  63.699  1.00  0.00    -0.048 A  
ENDROOT
BRANCH   3   7
HETATM    7  C   UNL     1      -8.416  10.044  63.040  1.00  0.00    -0.178 C  
BRANCH   7   8
HETATM    8  O   UNL     1      -9.689  10.054  63.686  1.00  0.00    -0.229 OA 
BRANCH   8   9
HETATM    9  C   UNL     1      -9.896  11.090  64.666  1.00  0.00    -0.285 C  
BRANCH   9  10
HETATM   10  C   UNL     1      -9.804  10.466  66.068  1.00  0.00    -0.289 A  
HETATM   11  C   UNL     1     -10.373   8.629  67.592  1.00  0.00    -0.317 A  
HETATM   12  C   UNL     1      -9.152  11.094  67.149  1.00  0.00    -0.147 A  
HETATM   13  C   UNL     1     -10.390   9.207  66.319  1.00  0.00    -0.166 A  
HETATM   14 CL   UNL     1      -8.258  12.564  66.969  1.00  0.00    -0.159 Cl 
HETATM   15 CL   UNL     1      -9.787   8.613  70.222  1.00  0.00    -0.185 Cl 
HETATM   16  C   UNL     1      -9.166  10.533  68.433  1.00  0.00    -0.154 A  
HETATM   17  C   UNL     1      -9.780   9.306  68.648  1.00  0.00    -0.150 A  
ENDBRANCH   9  10
BRANCH   9  18
HETATM   18  C   UNL     1     -11.222  11.846  64.402  1.00  0.00    -0.336 C  
BRANCH  18  19
HETATM   19  N   UNL     1     -11.333  13.121  65.077  1.00  0.00    -0.294 NA 
HETATM   20  N   UNL     1     -12.019  14.631  66.546  1.00  0.00    -0.324 NA 
HETATM   21  C   UNL     1     -10.532  14.213  64.896  1.00  0.00    -0.438 A  
HETATM   22  C   UNL     1     -10.978  15.136  65.813  1.00  0.00    -0.349 A  
HETATM   23  C   UNL     1     -12.205  13.415  66.089  1.00  0.00    -0.415 A  
ENDBRANCH  18  19
ENDBRANCH   9  18
ENDBRANCH   8   9
ENDBRANCH   7   8
ENDBRANCH   3   7
TORSDOF 6
ENDMDL
MODEL      181
REMARK 921   NORMALIZED FREE ENERGY PREDICTED BY IDOCK:   -3.89 KCAL/MOL
REMARK 922        TOTAL FREE ENERGY PREDICTED BY IDOCK:   -6.30 KCAL/MOL
REMARK 923 INTER-LIGAND FREE ENERGY PREDICTED BY IDOCK:   -5.22 KCAL/MOL
REMARK 924 INTRA-LIGAND FREE ENERGY PREDICTED BY IDOCK:   -1.09 KCAL/MOL
REMARK 927      BINDING AFFINITY PREDICTED BY RF-SCORE:    0.00 PKD
ROOT
HETATM    1 CL   UNL     1      -9.260  11.273  68.513  1.00  0.00    -0.181 Cl 
HETATM    2  C   UNL     1     -10.588  10.952  69.562  1.00  0.00    -0.175 A  
HETATM    3  C   UNL     1     -10.624  10.051  70.605  1.00  0.00    -0.272 A  
HETATM    4  C   UNL     1     -11.905  10.124  71.260  1.00  0.00    -0.448 A  
HETATM    5  S   UNL     1     -12.023  11.823  69.344  1.00  0.00    -0.268 SA 
HETATM    6  C   UNL     1     -12.756  11.037  70.674  1.00  0.00    -0.288 A  
ENDROOT
BRANCH   3   7
HETATM    7  C   UNL     1      -9.488   9.168  71.031  1.00  0.00    -0.274 C  
BRANCH   7   8
HETATM    8  O   UNL     1      -9.282   8.113  70.092  1.00  0.00    -0.153 OA 
BRANCH   8   9
HETATM    9  C   UNL     1     -10.378   7.194  69.919  1.00  0.00    -0.213 C  
BRANCH   9  10
HETATM   10  C   UNL     1     -10.424   6.249  71.131  1.00  0.00    -0.271 A  
HETATM   11  C   UNL     1      -9.280   4.634  72.581  1.00  0.00    -0.144 A  
HETATM   12  C   UNL     1     -11.586   6.043  71.902  1.00  0.00    -0.252 A  
HETATM   13  C   UNL     1      -9.266   5.540  71.516  1.00  0.00    -0.164 A  
HETATM   14 CL   UNL     1     -13.040   6.946  71.654  1.00  0.00    -0.389 Cl 
HETATM   15 CL   UNL     1     -10.487   3.266  74.565  1.00  0.00    -0.235 Cl 
HETATM   16  C   UNL     1     -11.611   5.108  72.946  1.00  0.00    -0.282 A  
HETATM   17  C   UNL     1     -10.458   4.406  73.277  1.00  0.00    -0.187 A  
ENDBRANCH   9  10
BRANCH   9  18
HETATM   18  C   UNL     1     -10.277   6.462  68.558  1.00  0.00    -0.175 C  
BRANCH  18  19
HETATM   19  N   UNL     1      -9.817   7.288  67.462  1.00  0.00    -0.146 NA 
HETATM   20  N   UNL     1      -8.573   7.953  65.754  1.00  0.00    -0.147 NA 
HETATM   21  C   UNL     1     -10.472   8.353  66.912  1.00  0.00    -0.289 A  
HETATM   22  C   UNL     1      -9.682   8.751  65.860  1.00  0.00    -0.141 A  
HETATM   23  C   UNL     1      -8.685   7.076  66.724  1.00  0.00    -0.123 A  
ENDBRANCH  18  19
ENDBRANCH   9  18
ENDBRANCH   8   9
ENDBRANCH   7   8
ENDBRANCH   3   7
TORSDOF 6
ENDMDL
MODEL      182
REMARK 921   NORMALIZED FREE ENERGY PREDICTED BY IDOCK:   -3.86 KCAL/MOL
REMARK 922        TOTAL FREE ENERGY PREDICTED BY IDOCK:   -6.25 KCAL/MOL
REMARK 923 INTER-LIGAND FREE ENERGY PREDICTED BY IDOCK:   -5.53 KCAL/MOL
REMARK 924 INTRA-LIGAND FREE ENERGY PREDICTED BY IDOCK:   -0.73 KCAL/MOL
REMARK 927      BINDING AFFINITY PREDICTED BY RF-SCORE:    0.00 PKD
ROOT
HETATM    1 CL   UNL     1     -10.979   6.355  67.815  1.00  0.00    -0.408 Cl 
HETATM    2  C   UNL     1      -9.618   6.941  66.936  1.00  0.00    -0.162 A  
HETATM    3  C   UNL     1      -9.043   8.189  67.031  1.00  0.00    -0.170 A  
HETATM    4  C   UNL     1      -7.898   8.259  66.160  1.00  0.00    -0.098 A  
HETATM    5  S   UNL     1      -8.858   5.905  65.833  1.00  0.00    -0.133 SA 
HETATM    6  C   UNL     1      -7.691   7.095  65.450  1.00  0.00    -0.111 A  
ENDROOT
BRANCH   3   7
HETATM    7  C   UNL     1      -9.500   9.291  67.942  1.00  0.00    -0.137 C  
BRANCH   7   8
HETATM    8  O   UNL     1     -10.140  10.331  67.203  1.00  0.00    -0.191 OA 
BRANCH   8   9
HETATM    9  C   UNL     1      -9.384  11.546  67.032  1.00  0.00    -0.178 C  
BRANCH   9  10
HETATM   10  C   UNL     1      -9.979  12.630  67.945  1.00  0.00    -0.228 A  
HETATM   11  C   UNL     1     -11.859  13.433  69.302  1.00  0.00    -0.385 A  
HETATM   12  C   UNL     1      -9.303  13.824  68.264  1.00  0.00    -0.209 A  
HETATM   13  C   UNL     1     -11.262  12.450  68.508  1.00  0.00    -0.321 A  
HETATM   14 CL   UNL     1      -7.671  14.127  67.779  1.00  0.00    -0.155 Cl 
HETATM   15 CL   UNL     1     -11.939  15.851  70.489  1.00  0.00    -0.380 Cl 
HETATM   16  C   UNL     1      -9.916  14.826  69.029  1.00  0.00    -0.218 A  
HETATM   17  C   UNL     1     -11.192  14.626  69.541  1.00  0.00    -0.269 A  
ENDBRANCH   9  10
BRANCH   9  18
HETATM   18  C   UNL     1      -9.319  11.951  65.538  1.00  0.00    -0.078 C  
BRANCH  18  19
HETATM   19  N   UNL     1     -10.518  12.585  65.033  1.00  0.00    -0.290 NA 
HETATM   20  N   UNL     1     -11.880  14.201  64.368  1.00  0.00    -0.429 NA 
HETATM   21  C   UNL     1     -11.602  11.961  64.486  1.00  0.00    -0.271 A  
HETATM   22  C   UNL     1     -12.434  12.980  64.085  1.00  0.00    -0.300 A  
HETATM   23  C   UNL     1     -10.724  13.934  64.929  1.00  0.00    -0.410 A  
ENDBRANCH  18  19
ENDBRANCH   9  18
ENDBRANCH   8   9
ENDBRANCH   7   8
ENDBRANCH   3   7
TORSDOF 6
ENDMDL
MODEL      183
REMARK 921   NORMALIZED FREE ENERGY PREDICTED BY IDOCK:   -3.83 KCAL/MOL
REMARK 922        TOTAL FREE ENERGY PREDICTED BY IDOCK:   -6.22 KCAL/MOL
REMARK 923 INTER-LIGAND FREE ENERGY PREDICTED BY IDOCK:   -5.50 KCAL/MOL
REMARK 924 INTRA-LIGAND FREE ENERGY PREDICTED BY IDOCK:   -0.72 KCAL/MOL
REMARK 927      BINDING AFFINITY PREDICTED BY RF-SCORE:    0.00 PKD
ROOT
HETATM    1 CL   UNL     1     -13.159   9.679  72.410  1.00  0.00    -0.450 Cl 
HETATM    2  C   UNL     1     -12.305   8.617  71.357  1.00  0.00    -0.304 A  
HETATM    3  C   UNL     1     -11.404   8.969  70.375  1.00  0.00    -0.242 A  
HETATM    4  C   UNL     1     -10.880   7.780  69.753  1.00  0.00    -0.211 A  
HETATM    5  S   UNL     1     -12.550   6.949  71.512  1.00  0.00    -0.333 SA 
HETATM    6  C   UNL     1     -11.422   6.621  70.270  1.00  0.00    -0.391 A  
ENDROOT
BRANCH   3   7
HETATM    7  C   UNL     1     -10.987  10.371  70.038  1.00  0.00    -0.308 C  
BRANCH   7   8
HETATM    8  O   UNL     1     -10.167  10.393  68.870  1.00  0.00    -0.183 OA 
BRANCH   8   9
HETATM    9  C   UNL     1      -9.549  11.655  68.552  1.00  0.00    -0.178 C  
BRANCH   9  10
HETATM   10  C   UNL     1     -10.343  12.320  67.416  1.00  0.00    -0.219 A  
HETATM   11  C   UNL     1     -11.494  12.116  65.258  1.00  0.00    -0.388 A  
HETATM   12  C   UNL     1     -10.639  13.698  67.387  1.00  0.00    -0.259 A  
HETATM   13  C   UNL     1     -10.812  11.542  66.336  1.00  0.00    -0.334 A  
HETATM   14 CL   UNL     1     -10.267  14.757  68.703  1.00  0.00    -0.230 Cl 
HETATM   15 CL   UNL     1     -12.518  14.200  63.891  1.00  0.00    -0.292 Cl 
HETATM   16  C   UNL     1     -11.289  14.280  66.291  1.00  0.00    -0.347 A  
HETATM   17  C   UNL     1     -11.710  13.486  65.231  1.00  0.00    -0.322 A  
ENDBRANCH   9  10
BRANCH   9  18
HETATM   18  C   UNL     1      -8.043  11.471  68.240  1.00  0.00    -0.148 C  
BRANCH  18  19
HETATM   19  N   UNL     1      -7.489  10.205  68.670  1.00  0.00    -0.081 NA 
HETATM   20  N   UNL     1      -6.807   8.101  68.555  1.00  0.00    -0.066 NA 
HETATM   21  C   UNL     1      -6.846   9.953  69.848  1.00  0.00    -0.096 A  
HETATM   22  C   UNL     1      -6.437   8.644  69.756  1.00  0.00    -0.038 A  
HETATM   23  C   UNL     1      -7.429   9.064  67.917  1.00  0.00    -0.085 A  
ENDBRANCH  18  19
ENDBRANCH   9  18
ENDBRANCH   8   9
ENDBRANCH   7   8
ENDBRANCH   3   7
TORSDOF 6
ENDMDL
MODEL      184
REMARK 921   NORMALIZED FREE ENERGY PREDICTED BY IDOCK:   -3.82 KCAL/MOL
REMARK 922        TOTAL FREE ENERGY PREDICTED BY IDOCK:   -6.20 KCAL/MOL
REMARK 923 INTER-LIGAND FREE ENERGY PREDICTED BY IDOCK:   -5.52 KCAL/MOL
REMARK 924 INTRA-LIGAND FREE ENERGY PREDICTED BY IDOCK:   -0.68 KCAL/MOL
REMARK 927      BINDING AFFINITY PREDICTED BY RF-SCORE:    0.00 PKD
ROOT
HETATM    1 CL   UNL     1     -10.615  16.833  65.736  1.00  0.00    -0.315 Cl 
HETATM    2  C   UNL     1      -9.089  16.329  66.357  1.00  0.00    -0.301 A  
HETATM    3  C   UNL     1      -8.784  15.111  66.925  1.00  0.00    -0.289 A  
HETATM    4  C   UNL     1      -7.386  15.077  67.271  1.00  0.00    -0.195 A  
HETATM    5  S   UNL     1      -7.783  17.404  66.271  1.00  0.00    -0.288 SA 
HETATM    6  C   UNL     1      -6.732  16.255  66.977  1.00  0.00    -0.182 A  
ENDROOT
BRANCH   3   7
HETATM    7  C   UNL     1      -9.743  13.970  67.105  1.00  0.00    -0.242 C  
BRANCH   7   8
HETATM    8  O   UNL     1      -9.095  12.849  67.705  1.00  0.00    -0.179 OA 
BRANCH   8   9
HETATM    9  C   UNL     1      -9.568  11.550  67.298  1.00  0.00    -0.172 C  
BRANCH   9  10
HETATM   10  C   UNL     1      -9.930  10.742  68.555  1.00  0.00    -0.186 A  
HETATM   11  C   UNL     1      -9.494   8.817  70.013  1.00  0.00    -0.176 A  
HETATM   12  C   UNL     1     -11.008  11.075  69.401  1.00  0.00    -0.248 A  
HETATM   13  C   UNL     1      -9.168   9.607  68.907  1.00  0.00    -0.147 A  
HETATM   14 CL   UNL     1     -11.942  12.515  69.193  1.00  0.00    -0.317 Cl 
HETATM   15 CL   UNL     1     -11.026   8.146  72.126  1.00  0.00    -0.344 Cl 
HETATM   16  C   UNL     1     -11.358  10.263  70.488  1.00  0.00    -0.422 A  
HETATM   17  C   UNL     1     -10.602   9.136  70.785  1.00  0.00    -0.260 A  
ENDBRANCH   9  10
BRANCH   9  18
HETATM   18  C   UNL     1      -8.539  10.849  66.377  1.00  0.00    -0.160 C  
BRANCH  18  19
HETATM   19  N   UNL     1      -9.004  10.609  65.028  1.00  0.00    -0.194 NA 
HETATM   20  N   UNL     1     -10.353  10.630  63.271  1.00  0.00    -0.100 NA 
HETATM   21  C   UNL     1      -8.261  10.154  63.977  1.00  0.00    -0.164 A  
HETATM   22  C   UNL     1      -9.117  10.171  62.901  1.00  0.00    -0.286 A  
HETATM   23  C   UNL     1     -10.255  10.895  64.552  1.00  0.00    -0.356 A  
ENDBRANCH  18  19
ENDBRANCH   9  18
ENDBRANCH   8   9
ENDBRANCH   7   8
ENDBRANCH   3   7
TORSDOF 6
ENDMDL
MODEL      185
REMARK 921   NORMALIZED FREE ENERGY PREDICTED BY IDOCK:   -3.82 KCAL/MOL
REMARK 922        TOTAL FREE ENERGY PREDICTED BY IDOCK:   -6.20 KCAL/MOL
REMARK 923 INTER-LIGAND FREE ENERGY PREDICTED BY IDOCK:   -6.74 KCAL/MOL
REMARK 924 INTRA-LIGAND FREE ENERGY PREDICTED BY IDOCK:    0.54 KCAL/MOL
REMARK 927      BINDING AFFINITY PREDICTED BY RF-SCORE:    0.00 PKD
ROOT
HETATM    1 CL   UNL     1      -9.504  10.396  65.068  1.00  0.00    -0.279 Cl 
HETATM    2  C   UNL     1     -10.794  11.538  65.060  1.00  0.00    -0.274 A  
HETATM    3  C   UNL     1     -11.613  11.873  66.116  1.00  0.00    -0.299 A  
HETATM    4  C   UNL     1     -12.533  12.903  65.704  1.00  0.00    -0.400 A  
HETATM    5  S   UNL     1     -11.122  12.381  63.628  1.00  0.00    -0.475 SA 
HETATM    6  C   UNL     1     -12.378  13.263  64.381  1.00  0.00    -0.348 A  
ENDROOT
BRANCH   3   7
HETATM    7  C   UNL     1     -11.529  11.298  67.499  1.00  0.00    -0.246 C  
BRANCH   7   8
HETATM    8  O   UNL     1     -10.584  12.015  68.293  1.00  0.00    -0.197 OA 
BRANCH   8   9
HETATM    9  C   UNL     1     -11.024  12.400  69.611  1.00  0.00     0.178 C  
BRANCH   9  10
HETATM   10  C   UNL     1     -11.617  11.167  70.312  1.00  0.00    -0.388 A  
HETATM   11  C   UNL     1     -11.756   8.724  70.505  1.00  0.00    -0.115 A  
HETATM   12  C   UNL     1     -12.574  11.253  71.343  1.00  0.00    -0.351 A  
HETATM   13  C   UNL     1     -11.205   9.872  69.928  1.00  0.00    -0.298 A  
HETATM   14 CL   UNL     1     -13.069  12.762  72.028  1.00  0.00    -0.497 Cl 
HETATM   15 CL   UNL     1     -13.450   7.436  72.159  1.00  0.00    -0.135 Cl 
HETATM   16  C   UNL     1     -13.155  10.104  71.896  1.00  0.00    -0.571 A  
HETATM   17  C   UNL     1     -12.745   8.846  71.472  1.00  0.00    -0.335 A  
ENDBRANCH   9  10
BRANCH   9  18
HETATM   18  C   UNL     1     -11.993  13.607  69.540  1.00  0.00    -0.341 C  
BRANCH  18  19
HETATM   19  N   UNL     1     -11.402  14.824  69.025  1.00  0.00    -0.260 NA 
HETATM   20  N   UNL     1     -11.000  16.499  67.633  1.00  0.00    -0.262 NA 
HETATM   21  C   UNL     1     -10.613  15.702  69.711  1.00  0.00    -0.304 A  
HETATM   22  C   UNL     1     -10.373  16.728  68.829  1.00  0.00    -0.318 A  
HETATM   23  C   UNL     1     -11.619  15.351  67.782  1.00  0.00    -0.228 A  
ENDBRANCH  18  19
ENDBRANCH   9  18
ENDBRANCH   8   9
ENDBRANCH   7   8
ENDBRANCH   3   7
TORSDOF 6
ENDMDL
MODEL      186
REMARK 921   NORMALIZED FREE ENERGY PREDICTED BY IDOCK:   -3.82 KCAL/MOL
REMARK 922        TOTAL FREE ENERGY PREDICTED BY IDOCK:   -6.20 KCAL/MOL
REMARK 923 INTER-LIGAND FREE ENERGY PREDICTED BY IDOCK:   -6.19 KCAL/MOL
REMARK 924 INTRA-LIGAND FREE ENERGY PREDICTED BY IDOCK:   -0.01 KCAL/MOL
REMARK 927      BINDING AFFINITY PREDICTED BY RF-SCORE:    0.00 PKD
ROOT
HETATM    1 CL   UNL     1      -7.180   7.599  66.411  1.00  0.00    -0.077 Cl 
HETATM    2  C   UNL     1      -8.781   7.083  66.783  1.00  0.00    -0.123 A  
HETATM    3  C   UNL     1      -9.845   7.878  67.152  1.00  0.00    -0.273 A  
HETATM    4  C   UNL     1     -11.019   7.061  67.327  1.00  0.00    -0.372 A  
HETATM    5  S   UNL     1      -9.146   5.433  66.683  1.00  0.00    -0.128 SA 
HETATM    6  C   UNL     1     -10.777   5.720  67.111  1.00  0.00    -0.275 A  
ENDROOT
BRANCH   3   7
HETATM    7  C   UNL     1      -9.807   9.371  67.296  1.00  0.00    -0.179 C  
BRANCH   7   8
HETATM    8  O   UNL     1     -11.125   9.906  67.412  1.00  0.00    -0.234 OA 
BRANCH   8   9
HETATM    9  C   UNL     1     -11.317  10.905  68.434  1.00  0.00    -0.304 C  
BRANCH   9  10
HETATM   10  C   UNL     1     -11.017  12.287  67.833  1.00  0.00    -0.265 A  
HETATM   11  C   UNL     1     -11.844  14.350  66.793  1.00  0.00    -0.431 A  
HETATM   12  C   UNL     1      -9.712  12.799  67.694  1.00  0.00    -0.205 A  
HETATM   13  C   UNL     1     -12.077  13.108  67.391  1.00  0.00    -0.316 A  
HETATM   14 CL   UNL     1      -8.321  11.985  68.322  1.00  0.00    -0.159 Cl 
HETATM   15 CL   UNL     1     -10.250  16.306  65.845  1.00  0.00    -0.365 Cl 
HETATM   16  C   UNL     1      -9.474  14.027  67.061  1.00  0.00    -0.253 A  
HETATM   17  C   UNL     1     -10.542  14.794  66.611  1.00  0.00    -0.299 A  
ENDBRANCH   9  10
BRANCH   9  18
HETATM   18  C   UNL     1     -10.481  10.574  69.695  1.00  0.00    -0.219 C  
BRANCH  18  19
HETATM   19  N   UNL     1     -11.183   9.799  70.697  1.00  0.00    -0.306 NA 
HETATM   20  N   UNL     1     -11.522   8.282  72.275  1.00  0.00    -0.358 NA 
HETATM   21  C   UNL     1     -12.426  10.052  71.201  1.00  0.00    -0.379 A  
HETATM   22  C   UNL     1     -12.617   9.098  72.172  1.00  0.00    -0.381 A  
HETATM   23  C   UNL     1     -10.671   8.732  71.382  1.00  0.00    -0.286 A  
ENDBRANCH  18  19
ENDBRANCH   9  18
ENDBRANCH   8   9
ENDBRANCH   7   8
ENDBRANCH   3   7
TORSDOF 6
ENDMDL
MODEL      187
REMARK 921   NORMALIZED FREE ENERGY PREDICTED BY IDOCK:   -3.81 KCAL/MOL
REMARK 922        TOTAL FREE ENERGY PREDICTED BY IDOCK:   -6.19 KCAL/MOL
REMARK 923 INTER-LIGAND FREE ENERGY PREDICTED BY IDOCK:   -5.48 KCAL/MOL
REMARK 924 INTRA-LIGAND FREE ENERGY PREDICTED BY IDOCK:   -0.71 KCAL/MOL
REMARK 927      BINDING AFFINITY PREDICTED BY RF-SCORE:    0.00 PKD
ROOT
HETATM    1 CL   UNL     1     -12.926   7.430  71.797  1.00  0.00    -0.374 Cl 
HETATM    2  C   UNL     1     -11.252   7.695  72.102  1.00  0.00    -0.284 A  
HETATM    3  C   UNL     1     -10.490   8.763  71.681  1.00  0.00    -0.387 A  
HETATM    4  C   UNL     1      -9.148   8.627  72.188  1.00  0.00    -0.301 A  
HETATM    5  S   UNL     1     -10.407   6.559  73.029  1.00  0.00    -0.235 SA 
HETATM    6  C   UNL     1      -8.968   7.477  72.927  1.00  0.00    -0.158 A  
ENDROOT
BRANCH   3   7
HETATM    7  C   UNL     1     -10.988   9.921  70.866  1.00  0.00    -0.322 C  
BRANCH   7   8
HETATM    8  O   UNL     1     -10.635   9.767  69.492  1.00  0.00    -0.208 OA 
BRANCH   8   9
HETATM    9  C   UNL     1      -9.286  10.130  69.138  1.00  0.00    -0.197 C  
BRANCH   9  10
HETATM   10  C   UNL     1      -9.310  11.506  68.454  1.00  0.00    -0.194 A  
HETATM   11  C   UNL     1     -10.550  13.197  67.179  1.00  0.00    -0.259 A  
HETATM   12  C   UNL     1      -8.185  12.352  68.385  1.00  0.00    -0.144 A  
HETATM   13  C   UNL     1     -10.500  11.974  67.855  1.00  0.00    -0.221 A  
HETATM   14 CL   UNL     1      -6.700  11.992  69.197  1.00  0.00    -0.101 Cl 
HETATM   15 CL   UNL     1      -9.455  15.463  66.213  1.00  0.00    -0.314 Cl 
HETATM   16  C   UNL     1      -8.223  13.560  67.676  1.00  0.00    -0.178 A  
HETATM   17  C   UNL     1      -9.405  13.974  67.074  1.00  0.00    -0.250 A  
ENDBRANCH   9  10
BRANCH   9  18
HETATM   18  C   UNL     1      -8.618   9.019  68.290  1.00  0.00    -0.130 C  
BRANCH  18  19
HETATM   19  N   UNL     1      -9.460   7.873  68.027  1.00  0.00    -0.148 NA 
HETATM   20  N   UNL     1     -10.476   5.933  68.361  1.00  0.00    -0.215 NA 
HETATM   21  C   UNL     1     -10.347   7.730  66.998  1.00  0.00    -0.334 A  
HETATM   22  C   UNL     1     -10.960   6.520  67.223  1.00  0.00    -0.400 A  
HETATM   23  C   UNL     1      -9.583   6.771  68.830  1.00  0.00    -0.132 A  
ENDBRANCH  18  19
ENDBRANCH   9  18
ENDBRANCH   8   9
ENDBRANCH   7   8
ENDBRANCH   3   7
TORSDOF 6
ENDMDL
MODEL      188
REMARK 921   NORMALIZED FREE ENERGY PREDICTED BY IDOCK:   -3.81 KCAL/MOL
REMARK 922        TOTAL FREE ENERGY PREDICTED BY IDOCK:   -6.19 KCAL/MOL
REMARK 923 INTER-LIGAND FREE ENERGY PREDICTED BY IDOCK:   -5.05 KCAL/MOL
REMARK 924 INTRA-LIGAND FREE ENERGY PREDICTED BY IDOCK:   -1.14 KCAL/MOL
REMARK 927      BINDING AFFINITY PREDICTED BY RF-SCORE:    0.00 PKD
ROOT
HETATM    1 CL   UNL     1      -9.551   7.332  73.871  1.00  0.00    -0.316 Cl 
HETATM    2  C   UNL     1      -8.469   7.355  72.531  1.00  0.00    -0.109 A  
HETATM    3  C   UNL     1      -8.532   8.177  71.427  1.00  0.00    -0.154 A  
HETATM    4  C   UNL     1      -7.412   7.908  70.561  1.00  0.00    -0.073 A  
HETATM    5  S   UNL     1      -7.160   6.281  72.526  1.00  0.00    -0.084 SA 
HETATM    6  C   UNL     1      -6.598   6.901  71.035  1.00  0.00    -0.053 A  
ENDROOT
BRANCH   3   7
HETATM    7  C   UNL     1      -9.572   9.232  71.185  1.00  0.00    -0.234 C  
BRANCH   7   8
HETATM    8  O   UNL     1      -9.478   9.746  69.857  1.00  0.00    -0.209 OA 
BRANCH   8   9
HETATM    9  C   UNL     1     -10.611   9.502  69.000  1.00  0.00    -0.219 C  
BRANCH   9  10
HETATM   10  C   UNL     1     -10.349   8.222  68.190  1.00  0.00    -0.253 A  
HETATM   11  C   UNL     1      -9.403   7.158  66.192  1.00  0.00    -0.097 A  
HETATM   12  C   UNL     1     -10.808   6.951  68.590  1.00  0.00    -0.187 A  
HETATM   13  C   UNL     1      -9.619   8.289  66.984  1.00  0.00    -0.249 A  
HETATM   14 CL   UNL     1     -11.584   6.678  70.111  1.00  0.00    -0.451 Cl 
HETATM   15 CL   UNL     1      -9.690   4.545  65.594  1.00  0.00    -0.189 Cl 
HETATM   16  C   UNL     1     -10.624   5.822  67.779  1.00  0.00    -0.310 A  
HETATM   17  C   UNL     1      -9.925   5.933  66.583  1.00  0.00    -0.174 A  
ENDBRANCH   9  10
BRANCH   9  18
HETATM   18  C   UNL     1     -10.923  10.744  68.128  1.00  0.00    -0.257 C  
BRANCH  18  19
HETATM   19  N   UNL     1     -11.271  11.933  68.876  1.00  0.00    -0.235 NA 
HETATM   20  N   UNL     1     -11.499  14.085  69.349  1.00  0.00    -0.276 NA 
HETATM   21  C   UNL     1     -12.012  11.990  70.021  1.00  0.00    -0.324 A  
HETATM   22  C   UNL     1     -12.136  13.331  70.298  1.00  0.00    -0.335 A  
HETATM   23  C   UNL     1     -10.995  13.220  68.501  1.00  0.00    -0.266 A  
ENDBRANCH  18  19
ENDBRANCH   9  18
ENDBRANCH   8   9
ENDBRANCH   7   8
ENDBRANCH   3   7
TORSDOF 6
ENDMDL
MODEL      189
REMARK 921   NORMALIZED FREE ENERGY PREDICTED BY IDOCK:   -3.80 KCAL/MOL
REMARK 922        TOTAL FREE ENERGY PREDICTED BY IDOCK:   -6.18 KCAL/MOL
REMARK 923 INTER-LIGAND FREE ENERGY PREDICTED BY IDOCK:   -5.45 KCAL/MOL
REMARK 924 INTRA-LIGAND FREE ENERGY PREDICTED BY IDOCK:   -0.73 KCAL/MOL
REMARK 927      BINDING AFFINITY PREDICTED BY RF-SCORE:    0.00 PKD
ROOT
HETATM    1 CL   UNL     1      -6.958   9.138  70.406  1.00  0.00    -0.060 Cl 
HETATM    2  C   UNL     1      -8.647   8.858  70.596  1.00  0.00    -0.194 A  
HETATM    3  C   UNL     1      -9.616   8.927  69.619  1.00  0.00    -0.170 A  
HETATM    4  C   UNL     1     -10.895   8.577  70.182  1.00  0.00    -0.238 A  
HETATM    5  S   UNL     1      -9.232   8.433  72.127  1.00  0.00    -0.261 SA 
HETATM    6  C   UNL     1     -10.828   8.295  71.531  1.00  0.00    -0.249 A  
ENDROOT
BRANCH   3   7
HETATM    7  C   UNL     1      -9.374   9.260  68.175  1.00  0.00    -0.134 C  
BRANCH   7   8
HETATM    8  O   UNL     1      -8.842  10.577  68.038  1.00  0.00    -0.128 OA 
BRANCH   8   9
HETATM    9  C   UNL     1      -9.629  11.501  67.261  1.00  0.00    -0.172 C  
BRANCH   9  10
HETATM   10  C   UNL     1     -10.351  12.460  68.221  1.00  0.00    -0.232 A  
HETATM   11  C   UNL     1     -11.804  12.780  70.173  1.00  0.00    -0.326 A  
HETATM   12  C   UNL     1     -10.319  13.862  68.078  1.00  0.00    -0.245 A  
HETATM   13  C   UNL     1     -11.091  11.945  69.307  1.00  0.00    -0.264 A  
HETATM   14 CL   UNL     1      -9.338  14.654  66.893  1.00  0.00    -0.243 Cl 
HETATM   15 CL   UNL     1     -12.706  15.180  71.006  1.00  0.00    -0.414 Cl 
HETATM   16  C   UNL     1     -11.062  14.698  68.922  1.00  0.00    -0.268 A  
HETATM   17  C   UNL     1     -11.803  14.152  69.963  1.00  0.00    -0.323 A  
ENDBRANCH   9  10
BRANCH   9  18
HETATM   18  C   UNL     1     -10.579  10.747  66.297  1.00  0.00    -0.192 C  
BRANCH  18  19
HETATM   19  N   UNL     1     -10.684  11.330  64.977  1.00  0.00    -0.281 NA 
HETATM   20  N   UNL     1     -10.346  11.606  62.805  1.00  0.00    -0.031 NA 
HETATM   21  C   UNL     1     -11.562  12.297  64.579  1.00  0.00    -0.353 A  
HETATM   22  C   UNL     1     -11.332  12.455  63.233  1.00  0.00    -0.327 A  
HETATM   23  C   UNL     1      -9.980  10.935  63.872  1.00  0.00    -0.343 A  
ENDBRANCH  18  19
ENDBRANCH   9  18
ENDBRANCH   8   9
ENDBRANCH   7   8
ENDBRANCH   3   7
TORSDOF 6
ENDMDL
MODEL      190
REMARK 921   NORMALIZED FREE ENERGY PREDICTED BY IDOCK:   -3.80 KCAL/MOL
REMARK 922        TOTAL FREE ENERGY PREDICTED BY IDOCK:   -6.18 KCAL/MOL
REMARK 923 INTER-LIGAND FREE ENERGY PREDICTED BY IDOCK:   -5.53 KCAL/MOL
REMARK 924 INTRA-LIGAND FREE ENERGY PREDICTED BY IDOCK:   -0.65 KCAL/MOL
REMARK 927      BINDING AFFINITY PREDICTED BY RF-SCORE:    0.00 PKD
ROOT
HETATM    1 CL   UNL     1      -8.105   7.983  74.340  1.00  0.00    -0.291 Cl 
HETATM    2  C   UNL     1      -7.321   8.290  72.837  1.00  0.00    -0.104 A  
HETATM    3  C   UNL     1      -7.892   8.802  71.692  1.00  0.00    -0.124 A  
HETATM    4  C   UNL     1      -6.883   8.947  70.674  1.00  0.00    -0.057 A  
HETATM    5  S   UNL     1      -5.666   7.961  72.703  1.00  0.00    -0.043 SA 
HETATM    6  C   UNL     1      -5.637   8.523  71.088  1.00  0.00    -0.034 A  
ENDROOT
BRANCH   3   7
HETATM    7  C   UNL     1      -9.331   9.199  71.539  1.00  0.00    -0.125 C  
BRANCH   7   8
HETATM    8  O   UNL     1      -9.764   9.041  70.189  1.00  0.00    -0.170 OA 
BRANCH   8   9
HETATM    9  C   UNL     1     -11.190   9.003  69.979  1.00  0.00    -0.128 C  
BRANCH   9  10
HETATM   10  C   UNL     1     -11.790  10.344  70.432  1.00  0.00    -0.418 A  
HETATM   11  C   UNL     1     -13.268  11.576  71.954  1.00  0.00    -0.479 A  
HETATM   12  C   UNL     1     -11.514  11.567  69.789  1.00  0.00    -0.286 A  
HETATM   13  C   UNL     1     -12.662  10.386  71.542  1.00  0.00    -0.564 A  
HETATM   14 CL   UNL     1     -10.354  11.707  68.514  1.00  0.00    -0.209 Cl 
HETATM   15 CL   UNL     1     -13.797  14.210  71.741  1.00  0.00    -0.482 Cl 
HETATM   16  C   UNL     1     -12.150  12.754  70.178  1.00  0.00    -0.370 A  
HETATM   17  C   UNL     1     -13.026  12.751  71.257  1.00  0.00    -0.220 A  
ENDBRANCH   9  10
BRANCH   9  18
HETATM   18  C   UNL     1     -11.818   7.769  70.672  1.00  0.00    -0.124 C  
BRANCH  18  19
HETATM   19  N   UNL     1     -11.099   6.530  70.466  1.00  0.00    -0.294 NA 
HETATM   20  N   UNL     1     -10.108   4.869  69.385  1.00  0.00    -0.219 NA 
HETATM   21  C   UNL     1     -10.469   5.783  71.419  1.00  0.00    -0.238 A  
HETATM   22  C   UNL     1      -9.867   4.758  70.728  1.00  0.00    -0.210 A  
HETATM   23  C   UNL     1     -10.843   5.948  69.254  1.00  0.00    -0.344 A  
ENDBRANCH  18  19
ENDBRANCH   9  18
ENDBRANCH   8   9
ENDBRANCH   7   8
ENDBRANCH   3   7
TORSDOF 6
ENDMDL
MODEL      191
REMARK 921   NORMALIZED FREE ENERGY PREDICTED BY IDOCK:   -3.80 KCAL/MOL
REMARK 922        TOTAL FREE ENERGY PREDICTED BY IDOCK:   -6.17 KCAL/MOL
REMARK 923 INTER-LIGAND FREE ENERGY PREDICTED BY IDOCK:   -5.85 KCAL/MOL
REMARK 924 INTRA-LIGAND FREE ENERGY PREDICTED BY IDOCK:   -0.32 KCAL/MOL
REMARK 927      BINDING AFFINITY PREDICTED BY RF-SCORE:    0.00 PKD
ROOT
HETATM    1 CL   UNL     1      -9.851  14.786  66.139  1.00  0.00    -0.315 Cl 
HETATM    2  C   UNL     1     -10.715  13.705  65.114  1.00  0.00    -0.353 A  
HETATM    3  C   UNL     1     -10.572  12.336  65.040  1.00  0.00    -0.322 A  
HETATM    4  C   UNL     1     -11.515  11.803  64.091  1.00  0.00    -0.409 A  
HETATM    5  S   UNL     1     -11.893  14.338  64.075  1.00  0.00    -0.131 SA 
HETATM    6  C   UNL     1     -12.285  12.779  63.493  1.00  0.00    -0.525 A  
ENDROOT
BRANCH   3   7
HETATM    7  C   UNL     1      -9.620  11.516  65.860  1.00  0.00    -0.230 C  
BRANCH   7   8
HETATM    8  O   UNL     1      -9.713  11.856  67.243  1.00  0.00    -0.182 OA 
BRANCH   8   9
HETATM    9  C   UNL     1      -9.195  10.883  68.172  1.00  0.00    -0.158 C  
BRANCH   9  10
HETATM   10  C   UNL     1     -10.251  10.629  69.260  1.00  0.00    -0.235 A  
HETATM   11  C   UNL     1     -11.192   9.137  70.966  1.00  0.00    -0.380 A  
HETATM   12  C   UNL     1     -11.276  11.546  69.567  1.00  0.00    -0.236 A  
HETATM   13  C   UNL     1     -10.221   9.430  70.004  1.00  0.00    -0.262 A  
HETATM   14 CL   UNL     1     -11.361  13.119  68.854  1.00  0.00    -0.314 Cl 
HETATM   15 CL   UNL     1     -13.441   9.663  72.355  1.00  0.00    -0.479 Cl 
HETATM   16  C   UNL     1     -12.271  11.239  70.505  1.00  0.00    -0.474 A  
HETATM   17  C   UNL     1     -12.225  10.035  71.197  1.00  0.00    -0.380 A  
ENDBRANCH   9  10
BRANCH   9  18
HETATM   18  C   UNL     1      -7.818  11.327  68.727  1.00  0.00    -0.139 C  
BRANCH  18  19
HETATM   19  N   UNL     1      -7.456  12.694  68.417  1.00  0.00    -0.121 NA 
HETATM   20  N   UNL     1      -7.325  14.896  68.623  1.00  0.00    -0.114 NA 
HETATM   21  C   UNL     1      -6.561  13.107  67.472  1.00  0.00    -0.152 A  
HETATM   22  C   UNL     1      -6.500  14.473  67.615  1.00  0.00    -0.132 A  
HETATM   23  C   UNL     1      -7.880  13.804  69.095  1.00  0.00     0.195 A  
ENDBRANCH  18  19
ENDBRANCH   9  18
ENDBRANCH   8   9
ENDBRANCH   7   8
ENDBRANCH   3   7
TORSDOF 6
ENDMDL
MODEL      192
REMARK 921   NORMALIZED FREE ENERGY PREDICTED BY IDOCK:   -3.80 KCAL/MOL
REMARK 922        TOTAL FREE ENERGY PREDICTED BY IDOCK:   -6.17 KCAL/MOL
REMARK 923 INTER-LIGAND FREE ENERGY PREDICTED BY IDOCK:   -5.68 KCAL/MOL
REMARK 924 INTRA-LIGAND FREE ENERGY PREDICTED BY IDOCK:   -0.50 KCAL/MOL
REMARK 927      BINDING AFFINITY PREDICTED BY RF-SCORE:    0.00 PKD
ROOT
HETATM    1 CL   UNL     1      -8.385   9.646  65.364  1.00  0.00    -0.137 Cl 
HETATM    2  C   UNL     1      -7.504  10.342  66.670  1.00  0.00    -0.110 A  
HETATM    3  C   UNL     1      -7.931  10.498  67.970  1.00  0.00    -0.106 A  
HETATM    4  C   UNL     1      -6.875  11.081  68.758  1.00  0.00    -0.073 A  
HETATM    5  S   UNL     1      -5.930  10.896  66.383  1.00  0.00    -0.144 SA 
HETATM    6  C   UNL     1      -5.742  11.352  68.020  1.00  0.00    -0.042 A  
ENDROOT
BRANCH   3   7
HETATM    7  C   UNL     1      -9.269  10.076  68.503  1.00  0.00    -0.141 C  
BRANCH   7   8
HETATM    8  O   UNL     1      -9.142   9.500  69.803  1.00  0.00    -0.172 OA 
BRANCH   8   9
HETATM    9  C   UNL     1     -10.274   9.661  70.682  1.00  0.00    -0.278 C  
BRANCH   9  10
HETATM   10  C   UNL     1     -10.627   8.292  71.285  1.00  0.00    -0.269 A  
HETATM   11  C   UNL     1     -11.035   6.916  73.276  1.00  0.00    -0.270 A  
HETATM   12  C   UNL     1     -10.828   7.135  70.506  1.00  0.00    -0.246 A  
HETATM   13  C   UNL     1     -10.764   8.153  72.684  1.00  0.00    -0.421 A  
HETATM   14 CL   UNL     1     -10.844   7.170  68.776  1.00  0.00    -0.191 Cl 
HETATM   15 CL   UNL     1     -11.460   4.255  73.210  1.00  0.00    -0.310 Cl 
HETATM   16  C   UNL     1     -11.062   5.888  71.100  1.00  0.00    -0.305 A  
HETATM   17  C   UNL     1     -11.161   5.785  72.482  1.00  0.00    -0.297 A  
ENDBRANCH   9  10
BRANCH   9  18
HETATM   18  C   UNL     1     -11.453  10.345  69.947  1.00  0.00    -0.297 C  
BRANCH  18  19
HETATM   19  N   UNL     1     -12.077  11.424  70.683  1.00  0.00    -0.377 NA 
HETATM   20  N   UNL     1     -12.688  13.488  71.207  1.00  0.00    -0.358 NA 
HETATM   21  C   UNL     1     -12.974  11.303  71.705  1.00  0.00    -0.432 A  
HETATM   22  C   UNL     1     -13.335  12.592  72.016  1.00  0.00    -0.454 A  
HETATM   23  C   UNL     1     -11.945  12.758  70.409  1.00  0.00    -0.249 A  
ENDBRANCH  18  19
ENDBRANCH   9  18
ENDBRANCH   8   9
ENDBRANCH   7   8
ENDBRANCH   3   7
TORSDOF 6
ENDMDL
MODEL      193
REMARK 921   NORMALIZED FREE ENERGY PREDICTED BY IDOCK:   -3.80 KCAL/MOL
REMARK 922        TOTAL FREE ENERGY PREDICTED BY IDOCK:   -6.17 KCAL/MOL
REMARK 923 INTER-LIGAND FREE ENERGY PREDICTED BY IDOCK:   -6.00 KCAL/MOL
REMARK 924 INTRA-LIGAND FREE ENERGY PREDICTED BY IDOCK:   -0.17 KCAL/MOL
REMARK 927      BINDING AFFINITY PREDICTED BY RF-SCORE:    0.00 PKD
ROOT
HETATM    1 CL   UNL     1      -9.465  14.782  66.386  1.00  0.00    -0.310 Cl 
HETATM    2  C   UNL     1     -10.521  13.897  65.352  1.00  0.00    -0.345 A  
HETATM    3  C   UNL     1     -10.629  12.527  65.252  1.00  0.00    -0.319 A  
HETATM    4  C   UNL     1     -11.662  12.194  64.305  1.00  0.00    -0.451 A  
HETATM    5  S   UNL     1     -11.572  14.755  64.340  1.00  0.00    -0.238 SA 
HETATM    6  C   UNL     1     -12.247  13.306  63.735  1.00  0.00    -0.439 A  
ENDROOT
BRANCH   3   7
HETATM    7  C   UNL     1      -9.835  11.531  66.045  1.00  0.00    -0.225 C  
BRANCH   7   8
HETATM    8  O   UNL     1     -10.074  11.685  67.443  1.00  0.00    -0.195 OA 
BRANCH   8   9
HETATM    9  C   UNL     1      -9.561  10.640  68.294  1.00  0.00    -0.162 C  
BRANCH   9  10
HETATM   10  C   UNL     1     -10.598  10.343  69.389  1.00  0.00    -0.267 A  
HETATM   11  C   UNL     1     -11.552   8.762  71.005  1.00  0.00    -0.337 A  
HETATM   12  C   UNL     1     -11.577  11.272  69.794  1.00  0.00    -0.333 A  
HETATM   13  C   UNL     1     -10.595   9.090  70.040  1.00  0.00    -0.246 A  
HETATM   14 CL   UNL     1     -11.619  12.897  69.204  1.00  0.00    -0.354 Cl 
HETATM   15 CL   UNL     1     -13.742   9.263  72.494  1.00  0.00    -0.507 Cl 
HETATM   16  C   UNL     1     -12.559  10.931  70.734  1.00  0.00    -0.470 A  
HETATM   17  C   UNL     1     -12.543   9.677  71.332  1.00  0.00    -0.371 A  
ENDBRANCH   9  10
BRANCH   9  18
HETATM   18  C   UNL     1      -8.159  11.010  68.840  1.00  0.00    -0.135 C  
BRANCH  18  19
HETATM   19  N   UNL     1      -7.057  10.366  68.157  1.00  0.00    -0.081 NA 
HETATM   20  N   UNL     1      -5.499  10.011  66.624  1.00  0.00    -0.044 NA 
HETATM   21  C   UNL     1      -6.286   9.345  68.634  1.00  0.00    -0.044 A  
HETATM   22  C   UNL     1      -5.331   9.140  67.667  1.00  0.00    -0.034 A  
HETATM   23  C   UNL     1      -6.538  10.743  66.949  1.00  0.00    -0.091 A  
ENDBRANCH  18  19
ENDBRANCH   9  18
ENDBRANCH   8   9
ENDBRANCH   7   8
ENDBRANCH   3   7
TORSDOF 6
ENDMDL
MODEL      194
REMARK 921   NORMALIZED FREE ENERGY PREDICTED BY IDOCK:   -3.78 KCAL/MOL
REMARK 922        TOTAL FREE ENERGY PREDICTED BY IDOCK:   -6.14 KCAL/MOL
REMARK 923 INTER-LIGAND FREE ENERGY PREDICTED BY IDOCK:   -5.24 KCAL/MOL
REMARK 924 INTRA-LIGAND FREE ENERGY PREDICTED BY IDOCK:   -0.91 KCAL/MOL
REMARK 927      BINDING AFFINITY PREDICTED BY RF-SCORE:    0.00 PKD
ROOT
HETATM    1 CL   UNL     1      -6.816   9.796  68.986  1.00  0.00    -0.049 Cl 
HETATM    2  C   UNL     1      -8.254   9.008  68.458  1.00  0.00    -0.112 A  
HETATM    3  C   UNL     1      -9.552   9.351  68.771  1.00  0.00    -0.156 A  
HETATM    4  C   UNL     1     -10.461   8.466  68.089  1.00  0.00    -0.228 A  
HETATM    5  S   UNL     1      -8.116   7.671  67.429  1.00  0.00    -0.120 SA 
HETATM    6  C   UNL     1      -9.815   7.508  67.336  1.00  0.00    -0.169 A  
ENDROOT
BRANCH   3   7
HETATM    7  C   UNL     1      -9.962  10.501  69.643  1.00  0.00    -0.112 C  
BRANCH   7   8
HETATM    8  O   UNL     1     -10.937  11.314  68.990  1.00  0.00    -0.209 OA 
BRANCH   8   9
HETATM    9  C   UNL     1     -10.537  11.901  67.736  1.00  0.00    -0.203 C  
BRANCH   9  10
HETATM   10  C   UNL     1      -9.522  13.020  68.018  1.00  0.00    -0.217 A  
HETATM   11  C   UNL     1      -7.244  13.899  67.777  1.00  0.00    -0.173 A  
HETATM   12  C   UNL     1      -9.829  14.164  68.781  1.00  0.00    -0.167 A  
HETATM   13  C   UNL     1      -8.211  12.928  67.502  1.00  0.00    -0.184 A  
HETATM   14 CL   UNL     1     -11.426  14.498  69.355  1.00  0.00    -0.300 Cl 
HETATM   15 CL   UNL     1      -6.365  16.158  68.956  1.00  0.00    -0.140 Cl 
HETATM   16  C   UNL     1      -8.851  15.119  69.089  1.00  0.00    -0.221 A  
HETATM   17  C   UNL     1      -7.563  14.980  68.587  1.00  0.00    -0.128 A  
ENDBRANCH   9  10
BRANCH   9  18
HETATM   18  C   UNL     1     -11.772  12.364  66.923  1.00  0.00    -0.362 C  
BRANCH  18  19
HETATM   19  N   UNL     1     -11.631  12.233  65.488  1.00  0.00    -0.368 NA 
HETATM   20  N   UNL     1     -10.895  11.469  63.543  1.00  0.00    -0.410 NA 
HETATM   21  C   UNL     1     -12.424  12.805  64.535  1.00  0.00    -0.428 A  
HETATM   22  C   UNL     1     -11.947  12.322  63.339  1.00  0.00    -0.494 A  
HETATM   23  C   UNL     1     -10.732  11.427  64.845  1.00  0.00    -0.286 A  
ENDBRANCH  18  19
ENDBRANCH   9  18
ENDBRANCH   8   9
ENDBRANCH   7   8
ENDBRANCH   3   7
TORSDOF 6
ENDMDL
MODEL      195
REMARK 921   NORMALIZED FREE ENERGY PREDICTED BY IDOCK:   -3.77 KCAL/MOL
REMARK 922        TOTAL FREE ENERGY PREDICTED BY IDOCK:   -6.13 KCAL/MOL
REMARK 923 INTER-LIGAND FREE ENERGY PREDICTED BY IDOCK:   -5.16 KCAL/MOL
REMARK 924 INTRA-LIGAND FREE ENERGY PREDICTED BY IDOCK:   -0.97 KCAL/MOL
REMARK 927      BINDING AFFINITY PREDICTED BY RF-SCORE:    0.00 PKD
ROOT
HETATM    1 CL   UNL     1      -9.635   4.236  69.869  1.00  0.00    -0.264 Cl 
HETATM    2  C   UNL     1      -9.721   4.337  68.152  1.00  0.00    -0.102 A  
HETATM    3  C   UNL     1     -10.427   5.258  67.408  1.00  0.00    -0.213 A  
HETATM    4  C   UNL     1     -10.195   5.024  66.005  1.00  0.00    -0.253 A  
HETATM    5  S   UNL     1      -8.847   3.219  67.229  1.00  0.00    -0.148 SA 
HETATM    6  C   UNL     1      -9.365   3.947  65.771  1.00  0.00    -0.162 A  
ENDROOT
BRANCH   3   7
HETATM    7  C   UNL     1     -11.266   6.369  67.967  1.00  0.00    -0.155 C  
BRANCH   7   8
HETATM    8  O   UNL     1     -10.590   7.621  67.863  1.00  0.00    -0.212 OA 
BRANCH   8   9
HETATM    9  C   UNL     1      -9.963   8.106  69.067  1.00  0.00    -0.189 C  
BRANCH   9  10
HETATM   10  C   UNL     1     -10.876   9.165  69.705  1.00  0.00    -0.210 A  
HETATM   11  C   UNL     1     -11.949  11.369  69.574  1.00  0.00    -0.409 A  
HETATM   12  C   UNL     1     -11.458   9.013  70.979  1.00  0.00    -0.295 A  
HETATM   13  C   UNL     1     -11.165  10.359  69.008  1.00  0.00    -0.289 A  
HETATM   14 CL   UNL     1     -11.326   7.551  71.893  1.00  0.00    -0.280 Cl 
HETATM   15 CL   UNL     1     -13.388  12.467  71.570  1.00  0.00    -0.291 Cl 
HETATM   16  C   UNL     1     -12.214  10.039  71.562  1.00  0.00    -0.496 A  
HETATM   17  C   UNL     1     -12.452  11.212  70.858  1.00  0.00    -0.409 A  
ENDBRANCH   9  10
BRANCH   9  18
HETATM   18  C   UNL     1      -8.526   8.609  68.779  1.00  0.00    -0.129 C  
BRANCH  18  19
HETATM   19  N   UNL     1      -7.699   8.775  69.956  1.00  0.00    -0.077 NA 
HETATM   20  N   UNL     1      -6.565   9.801  71.558  1.00  0.00    -0.304 NA 
HETATM   21  C   UNL     1      -7.333   7.801  70.840  1.00  0.00    -0.065 A  
HETATM   22  C   UNL     1      -6.629   8.459  71.821  1.00  0.00    -0.070 A  
HETATM   23  C   UNL     1      -7.225   9.965  70.435  1.00  0.00    -0.134 A  
ENDBRANCH  18  19
ENDBRANCH   9  18
ENDBRANCH   8   9
ENDBRANCH   7   8
ENDBRANCH   3   7
TORSDOF 6
ENDMDL
MODEL      196
REMARK 921   NORMALIZED FREE ENERGY PREDICTED BY IDOCK:   -3.75 KCAL/MOL
REMARK 922        TOTAL FREE ENERGY PREDICTED BY IDOCK:   -6.11 KCAL/MOL
REMARK 923 INTER-LIGAND FREE ENERGY PREDICTED BY IDOCK:   -5.15 KCAL/MOL
REMARK 924 INTRA-LIGAND FREE ENERGY PREDICTED BY IDOCK:   -0.96 KCAL/MOL
REMARK 927      BINDING AFFINITY PREDICTED BY RF-SCORE:    0.00 PKD
ROOT
HETATM    1 CL   UNL     1      -8.729   5.369  72.434  1.00  0.00    -0.125 Cl 
HETATM    2  C   UNL     1     -10.112   6.326  72.060  1.00  0.00    -0.183 A  
HETATM    3  C   UNL     1     -10.819   6.336  70.877  1.00  0.00    -0.329 A  
HETATM    4  C   UNL     1     -11.934   7.242  70.990  1.00  0.00    -0.362 A  
HETATM    5  S   UNL     1     -10.720   7.372  73.244  1.00  0.00    -0.350 SA 
HETATM    6  C   UNL     1     -11.991   7.872  72.216  1.00  0.00    -0.337 A  
ENDROOT
BRANCH   3   7
HETATM    7  C   UNL     1     -10.513   5.495  69.672  1.00  0.00    -0.309 C  
BRANCH   7   8
HETATM    8  O   UNL     1     -11.091   6.059  68.496  1.00  0.00    -0.313 OA 
BRANCH   8   9
HETATM    9  C   UNL     1     -10.210   6.211  67.365  1.00  0.00    -0.184 C  
BRANCH   9  10
HETATM   10  C   UNL     1     -10.025   7.710  67.083  1.00  0.00    -0.297 A  
HETATM   11  C   UNL     1     -10.681  10.030  67.538  1.00  0.00    -0.339 A  
HETATM   12  C   UNL     1      -9.119   8.207  66.125  1.00  0.00    -0.183 A  
HETATM   13  C   UNL     1     -10.783   8.661  67.800  1.00  0.00    -0.178 A  
HETATM   14 CL   UNL     1      -8.013   7.185  65.272  1.00  0.00    -0.121 Cl 
HETATM   15 CL   UNL     1      -9.724  12.161  66.193  1.00  0.00    -0.247 Cl 
HETATM   16  C   UNL     1      -9.042   9.576  65.835  1.00  0.00    -0.230 A  
HETATM   17  C   UNL     1      -9.827  10.480  66.541  1.00  0.00    -0.206 A  
ENDBRANCH   9  10
BRANCH   9  18
HETATM   18  C   UNL     1     -10.726   5.403  66.149  1.00  0.00    -0.095 C  
BRANCH  18  19
HETATM   19  N   UNL     1      -9.981   4.194  65.868  1.00  0.00    -0.207 NA 
HETATM   20  N   UNL     1      -9.128   2.514  64.704  1.00  0.00    -0.126 NA 
HETATM   21  C   UNL     1      -9.111   3.558  66.707  1.00  0.00    -0.164 A  
HETATM   22  C   UNL     1      -8.599   2.519  65.967  1.00  0.00    -0.113 A  
HETATM   23  C   UNL     1      -9.949   3.537  64.669  1.00  0.00    -0.153 A  
ENDBRANCH  18  19
ENDBRANCH   9  18
ENDBRANCH   8   9
ENDBRANCH   7   8
ENDBRANCH   3   7
TORSDOF 6
ENDMDL
MODEL      197
REMARK 921   NORMALIZED FREE ENERGY PREDICTED BY IDOCK:   -3.71 KCAL/MOL
REMARK 922        TOTAL FREE ENERGY PREDICTED BY IDOCK:   -6.05 KCAL/MOL
REMARK 923 INTER-LIGAND FREE ENERGY PREDICTED BY IDOCK:   -5.65 KCAL/MOL
REMARK 924 INTRA-LIGAND FREE ENERGY PREDICTED BY IDOCK:   -0.40 KCAL/MOL
REMARK 927      BINDING AFFINITY PREDICTED BY RF-SCORE:    0.00 PKD
ROOT
HETATM    1 CL   UNL     1     -12.725  11.946  63.296  1.00  0.00    -0.609 Cl 
HETATM    2  C   UNL     1     -12.184  12.484  64.841  1.00  0.00    -0.470 A  
HETATM    3  C   UNL     1     -11.190  11.924  65.614  1.00  0.00    -0.360 A  
HETATM    4  C   UNL     1     -11.016  12.703  66.814  1.00  0.00    -0.296 A  
HETATM    5  S   UNL     1     -12.909  13.854  65.523  1.00  0.00    -0.298 SA 
HETATM    6  C   UNL     1     -11.887  13.770  66.892  1.00  0.00    -0.413 A  
ENDROOT
BRANCH   3   7
HETATM    7  C   UNL     1     -10.372  10.721  65.244  1.00  0.00    -0.258 C  
BRANCH   7   8
HETATM    8  O   UNL     1      -9.554  10.304  66.337  1.00  0.00    -0.171 OA 
BRANCH   8   9
HETATM    9  C   UNL     1      -9.573   8.896  66.642  1.00  0.00    -0.219 C  
BRANCH   9  10
HETATM   10  C   UNL     1      -9.807   8.723  68.152  1.00  0.00    -0.194 A  
HETATM   11  C   UNL     1     -10.931   7.533  69.981  1.00  0.00    -0.252 A  
HETATM   12  C   UNL     1      -9.213   9.553  69.123  1.00  0.00    -0.163 A  
HETATM   13  C   UNL     1     -10.652   7.693  68.620  1.00  0.00    -0.161 A  
HETATM   14 CL   UNL     1      -8.040  10.760  68.724  1.00  0.00    -0.134 Cl 
HETATM   15 CL   UNL     1     -10.749   8.238  72.576  1.00  0.00    -0.414 Cl 
HETATM   16  C   UNL     1      -9.521   9.417  70.484  1.00  0.00    -0.327 A  
HETATM   17  C   UNL     1     -10.381   8.411  70.904  1.00  0.00    -0.194 A  
ENDBRANCH   9  10
BRANCH   9  18
HETATM   18  C   UNL     1      -8.291   8.199  66.123  1.00  0.00    -0.126 C  
BRANCH  18  19
HETATM   19  N   UNL     1      -7.700   8.819  64.956  1.00  0.00    -0.100 NA 
HETATM   20  N   UNL     1      -6.321  10.067  63.752  1.00  0.00    -0.127 NA 
HETATM   21  C   UNL     1      -7.965   8.520  63.650  1.00  0.00    -0.161 A  
HETATM   22  C   UNL     1      -7.104   9.308  62.923  1.00  0.00    -0.094 A  
HETATM   23  C   UNL     1      -6.694   9.746  64.969  1.00  0.00    -0.107 A  
ENDBRANCH  18  19
ENDBRANCH   9  18
ENDBRANCH   8   9
ENDBRANCH   7   8
ENDBRANCH   3   7
TORSDOF 6
ENDMDL
MODEL      198
REMARK 921   NORMALIZED FREE ENERGY PREDICTED BY IDOCK:   -3.70 KCAL/MOL
REMARK 922        TOTAL FREE ENERGY PREDICTED BY IDOCK:   -6.04 KCAL/MOL
REMARK 923 INTER-LIGAND FREE ENERGY PREDICTED BY IDOCK:   -6.32 KCAL/MOL
REMARK 924 INTRA-LIGAND FREE ENERGY PREDICTED BY IDOCK:    0.28 KCAL/MOL
REMARK 927      BINDING AFFINITY PREDICTED BY RF-SCORE:    0.00 PKD
ROOT
HETATM    1 CL   UNL     1     -14.118   8.048  71.336  1.00  0.00    -0.421 Cl 
HETATM    2  C   UNL     1     -12.485   8.564  71.160  1.00  0.00    -0.174 A  
HETATM    3  C   UNL     1     -12.017   9.860  71.172  1.00  0.00    -0.473 A  
HETATM    4  C   UNL     1     -10.582   9.856  71.041  1.00  0.00    -0.173 A  
HETATM    5  S   UNL     1     -11.280   7.391  70.964  1.00  0.00    -0.271 SA 
HETATM    6  C   UNL     1     -10.059   8.587  70.913  1.00  0.00    -0.201 A  
ENDROOT
BRANCH   3   7
HETATM    7  C   UNL     1     -12.861  11.088  71.351  1.00  0.00    -0.443 C  
BRANCH   7   8
HETATM    8  O   UNL     1     -12.090  12.272  71.144  1.00  0.00    -0.138 OA 
BRANCH   8   9
HETATM    9  C   UNL     1     -12.494  13.108  70.042  1.00  0.00    -0.076 C  
BRANCH   9  10
HETATM   10  C   UNL     1     -11.236  13.581  69.296  1.00  0.00    -0.285 A  
HETATM   11  C   UNL     1      -9.681  15.397  68.742  1.00  0.00    -0.210 A  
HETATM   12  C   UNL     1     -10.480  12.743  68.453  1.00  0.00    -0.243 A  
HETATM   13  C   UNL     1     -10.791  14.913  69.442  1.00  0.00    -0.274 A  
HETATM   14 CL   UNL     1     -10.805  11.052  68.287  1.00  0.00    -0.237 Cl 
HETATM   15 CL   UNL     1      -7.655  15.164  66.981  1.00  0.00    -0.196 Cl 
HETATM   16  C   UNL     1      -9.390  13.237  67.722  1.00  0.00    -0.209 A  
HETATM   17  C   UNL     1      -8.999  14.562  67.869  1.00  0.00    -0.187 A  
ENDBRANCH   9  10
BRANCH   9  18
HETATM   18  C   UNL     1     -13.407  14.261  70.527  1.00  0.00     0.108 C  
BRANCH  18  19
HETATM   19  N   UNL     1     -12.992  14.876  71.770  1.00  0.00    -0.316 NA 
HETATM   20  N   UNL     1     -12.591  15.091  73.938  1.00  0.00    -0.531 NA 
HETATM   21  C   UNL     1     -12.312  16.052  71.912  1.00  0.00    -0.450 A  
HETATM   22  C   UNL     1     -12.079  16.167  73.262  1.00  0.00    -0.501 A  
HETATM   23  C   UNL     1     -13.126  14.326  73.015  1.00  0.00    -0.424 A  
ENDBRANCH  18  19
ENDBRANCH   9  18
ENDBRANCH   8   9
ENDBRANCH   7   8
ENDBRANCH   3   7
TORSDOF 6
ENDMDL
MODEL      199
REMARK 921   NORMALIZED FREE ENERGY PREDICTED BY IDOCK:   -3.68 KCAL/MOL
REMARK 922        TOTAL FREE ENERGY PREDICTED BY IDOCK:   -6.02 KCAL/MOL
REMARK 923 INTER-LIGAND FREE ENERGY PREDICTED BY IDOCK:   -5.35 KCAL/MOL
REMARK 924 INTRA-LIGAND FREE ENERGY PREDICTED BY IDOCK:   -0.67 KCAL/MOL
REMARK 927      BINDING AFFINITY PREDICTED BY RF-SCORE:    0.00 PKD
ROOT
HETATM    1 CL   UNL     1     -11.122  12.091  65.078  1.00  0.00    -0.358 Cl 
HETATM    2  C   UNL     1     -11.468  12.479  66.719  1.00  0.00    -0.362 A  
HETATM    3  C   UNL     1     -11.504  11.611  67.789  1.00  0.00    -0.373 A  
HETATM    4  C   UNL     1     -11.785  12.345  68.996  1.00  0.00    -0.372 A  
HETATM    5  S   UNL     1     -11.792  14.092  67.120  1.00  0.00    -0.430 SA 
HETATM    6  C   UNL     1     -11.970  13.694  68.774  1.00  0.00    -0.359 A  
ENDROOT
BRANCH   3   7
HETATM    7  C   UNL     1     -11.236  10.136  67.722  1.00  0.00    -0.133 C  
BRANCH   7   8
HETATM    8  O   UNL     1     -11.182   9.567  69.030  1.00  0.00    -0.090 OA 
BRANCH   8   9
HETATM    9  C   UNL     1      -9.997   8.808  69.343  1.00  0.00    -0.196 C  
BRANCH   9  10
HETATM   10  C   UNL     1     -10.363   7.730  70.377  1.00  0.00    -0.212 A  
HETATM   11  C   UNL     1     -10.257   5.386  71.094  1.00  0.00    -0.287 A  
HETATM   12  C   UNL     1     -11.148   7.992  71.517  1.00  0.00    -0.248 A  
HETATM   13  C   UNL     1      -9.905   6.406  70.205  1.00  0.00    -0.192 A  
HETATM   14 CL   UNL     1     -11.658   9.587  71.949  1.00  0.00    -0.381 Cl 
HETATM   15 CL   UNL     1     -11.549   4.407  73.247  1.00  0.00    -0.303 Cl 
HETATM   16  C   UNL     1     -11.532   6.964  72.389  1.00  0.00    -0.297 A  
HETATM   17  C   UNL     1     -11.087   5.666  72.171  1.00  0.00    -0.241 A  
ENDBRANCH   9  10
BRANCH   9  18
HETATM   18  C   UNL     1      -8.844   9.740  69.790  1.00  0.00    -0.224 C  
BRANCH  18  19
HETATM   19  N   UNL     1      -7.621   9.592  69.031  1.00  0.00    -0.074 NA 
HETATM   20  N   UNL     1      -5.567   8.934  68.526  1.00  0.00    -0.037 NA 
HETATM   21  C   UNL     1      -7.420   9.950  67.728  1.00  0.00    -0.090 A  
HETATM   22  C   UNL     1      -6.141   9.537  67.439  1.00  0.00    -0.053 A  
HETATM   23  C   UNL     1      -6.482   8.972  69.466  1.00  0.00    -0.043 A  
ENDBRANCH  18  19
ENDBRANCH   9  18
ENDBRANCH   8   9
ENDBRANCH   7   8
ENDBRANCH   3   7
TORSDOF 6
ENDMDL
MODEL      200
REMARK 921   NORMALIZED FREE ENERGY PREDICTED BY IDOCK:   -3.68 KCAL/MOL
REMARK 922        TOTAL FREE ENERGY PREDICTED BY IDOCK:   -6.02 KCAL/MOL
REMARK 923 INTER-LIGAND FREE ENERGY PREDICTED BY IDOCK:   -5.52 KCAL/MOL
REMARK 924 INTRA-LIGAND FREE ENERGY PREDICTED BY IDOCK:   -0.50 KCAL/MOL
REMARK 927      BINDING AFFINITY PREDICTED BY RF-SCORE:    0.00 PKD
ROOT
HETATM    1 CL   UNL     1      -7.687   7.142  70.353  1.00  0.00    -0.093 Cl 
HETATM    2  C   UNL     1      -9.114   7.972  70.845  1.00  0.00    -0.148 A  
HETATM    3  C   UNL     1      -9.483   9.258  70.512  1.00  0.00    -0.317 A  
HETATM    4  C   UNL     1     -10.769   9.555  71.090  1.00  0.00    -0.408 A  
HETATM    5  S   UNL     1     -10.226   7.162  71.831  1.00  0.00    -0.190 SA 
HETATM    6  C   UNL     1     -11.278   8.510  71.833  1.00  0.00    -0.327 A  
ENDROOT
BRANCH   3   7
HETATM    7  C   UNL     1      -8.697  10.190  69.638  1.00  0.00    -0.158 C  
BRANCH   7   8
HETATM    8  O   UNL     1      -9.403  10.473  68.430  1.00  0.00    -0.147 OA 
BRANCH   8   9
HETATM    9  C   UNL     1      -9.816  11.841  68.242  1.00  0.00    -0.198 C  
BRANCH   9  10
HETATM   10  C   UNL     1     -10.503  11.964  66.872  1.00  0.00    -0.253 A  
HETATM   11  C   UNL     1     -12.403  12.761  65.539  1.00  0.00    -0.495 A  
HETATM   12  C   UNL     1      -9.976  11.400  65.693  1.00  0.00    -0.240 A  
HETATM   13  C   UNL     1     -11.721  12.669  66.756  1.00  0.00    -0.460 A  
HETATM   14 CL   UNL     1      -8.425  10.637  65.639  1.00  0.00    -0.176 Cl 
HETATM   15 CL   UNL     1     -12.742  12.219  62.921  1.00  0.00     0.013 Cl 
HETATM   16  C   UNL     1     -10.677  11.459  64.481  1.00  0.00    -0.391 A  
HETATM   17  C   UNL     1     -11.888  12.137  64.411  1.00  0.00    -0.358 A  
ENDBRANCH   9  10
BRANCH   9  18
HETATM   18  C   UNL     1      -8.624  12.812  68.435  1.00  0.00    -0.123 C  
BRANCH  18  19
HETATM   19  N   UNL     1      -8.908  14.189  68.093  1.00  0.00    -0.176 NA 
HETATM   20  N   UNL     1      -8.872  16.086  66.949  1.00  0.00    -0.212 NA 
HETATM   21  C   UNL     1      -9.827  15.005  68.687  1.00  0.00    -0.222 A  
HETATM   22  C   UNL     1      -9.784  16.174  67.966  1.00  0.00    -0.229 A  
HETATM   23  C   UNL     1      -8.366  14.878  67.042  1.00  0.00    -0.216 A  
ENDBRANCH  18  19
ENDBRANCH   9  18
ENDBRANCH   8   9
ENDBRANCH   7   8
ENDBRANCH   3   7
TORSDOF 6
ENDMDL
MODEL      201
REMARK 921   NORMALIZED FREE ENERGY PREDICTED BY IDOCK:   -3.68 KCAL/MOL
REMARK 922        TOTAL FREE ENERGY PREDICTED BY IDOCK:   -6.02 KCAL/MOL
REMARK 923 INTER-LIGAND FREE ENERGY PREDICTED BY IDOCK:   -4.92 KCAL/MOL
REMARK 924 INTRA-LIGAND FREE ENERGY PREDICTED BY IDOCK:   -1.09 KCAL/MOL
REMARK 927      BINDING AFFINITY PREDICTED BY RF-SCORE:    0.00 PKD
ROOT
HETATM    1 CL   UNL     1     -10.939   6.759  68.256  1.00  0.00    -0.283 Cl 
HETATM    2  C   UNL     1      -9.934   6.291  66.938  1.00  0.00    -0.169 A  
HETATM    3  C   UNL     1      -8.832   6.962  66.455  1.00  0.00    -0.155 A  
HETATM    4  C   UNL     1      -8.246   6.211  65.374  1.00  0.00    -0.145 A  
HETATM    5  S   UNL     1     -10.285   4.849  66.122  1.00  0.00    -0.278 SA 
HETATM    6  C   UNL     1      -8.938   5.053  65.088  1.00  0.00    -0.143 A  
ENDROOT
BRANCH   3   7
HETATM    7  C   UNL     1      -8.287   8.249  67.002  1.00  0.00    -0.122 C  
BRANCH   7   8
HETATM    8  O   UNL     1      -9.181   9.331  66.747  1.00  0.00    -0.138 OA 
BRANCH   8   9
HETATM    9  C   UNL     1      -9.073  10.465  67.630  1.00  0.00    -0.138 C  
BRANCH   9  10
HETATM   10  C   UNL     1     -10.109  10.314  68.756  1.00  0.00    -0.198 A  
HETATM   11  C   UNL     1     -12.396  10.672  69.569  1.00  0.00    -0.154 A  
HETATM   12  C   UNL     1      -9.803   9.755  70.013  1.00  0.00    -0.251 A  
HETATM   13  C   UNL     1     -11.438  10.745  68.554  1.00  0.00    -0.362 A  
HETATM   14 CL   UNL     1      -8.266   9.044  70.366  1.00  0.00    -0.138 Cl 
HETATM   15 CL   UNL     1     -13.211  10.116  72.077  1.00  0.00    -0.559 Cl 
HETATM   16  C   UNL     1     -10.753   9.714  71.043  1.00  0.00    -0.393 A  
HETATM   17  C   UNL     1     -12.043  10.176  70.816  1.00  0.00    -0.343 A  
ENDBRANCH   9  10
BRANCH   9  18
HETATM   18  C   UNL     1      -9.194  11.794  66.842  1.00  0.00    -0.189 C  
BRANCH  18  19
HETATM   19  N   UNL     1      -8.598  12.939  67.497  1.00  0.00    -0.176 NA 
HETATM   20  N   UNL     1      -7.198  14.102  68.759  1.00  0.00    -0.115 NA 
HETATM   21  C   UNL     1      -8.887  14.253  67.267  1.00  0.00    -0.214 A  
HETATM   22  C   UNL     1      -8.011  14.954  68.062  1.00  0.00    -0.129 A  
HETATM   23  C   UNL     1      -7.565  12.897  68.394  1.00  0.00    -0.133 A  
ENDBRANCH  18  19
ENDBRANCH   9  18
ENDBRANCH   8   9
ENDBRANCH   7   8
ENDBRANCH   3   7
TORSDOF 6
ENDMDL
MODEL      202
REMARK 921   NORMALIZED FREE ENERGY PREDICTED BY IDOCK:   -3.67 KCAL/MOL
REMARK 922        TOTAL FREE ENERGY PREDICTED BY IDOCK:   -6.00 KCAL/MOL
REMARK 923 INTER-LIGAND FREE ENERGY PREDICTED BY IDOCK:   -5.09 KCAL/MOL
REMARK 924 INTRA-LIGAND FREE ENERGY PREDICTED BY IDOCK:   -0.92 KCAL/MOL
REMARK 927      BINDING AFFINITY PREDICTED BY RF-SCORE:    0.00 PKD
ROOT
HETATM    1 CL   UNL     1      -9.204   3.611  69.541  1.00  0.00    -0.207 Cl 
HETATM    2  C   UNL     1      -9.559   3.969  67.894  1.00  0.00    -0.143 A  
HETATM    3  C   UNL     1     -10.322   5.012  67.417  1.00  0.00    -0.174 A  
HETATM    4  C   UNL     1     -10.332   4.981  65.976  1.00  0.00    -0.276 A  
HETATM    5  S   UNL     1      -8.909   2.972  66.690  1.00  0.00    -0.155 SA 
HETATM    6  C   UNL     1      -9.613   3.926  65.457  1.00  0.00    -0.184 A  
ENDROOT
BRANCH   3   7
HETATM    7  C   UNL     1     -10.997   6.054  68.260  1.00  0.00    -0.256 C  
BRANCH   7   8
HETATM    8  O   UNL     1     -10.499   7.356  67.956  1.00  0.00    -0.198 OA 
BRANCH   8   9
HETATM    9  C   UNL     1      -9.708   7.989  68.981  1.00  0.00    -0.159 C  
BRANCH   9  10
HETATM   10  C   UNL     1     -10.600   8.972  69.756  1.00  0.00    -0.236 A  
HETATM   11  C   UNL     1     -11.802   9.539  71.819  1.00  0.00    -0.430 A  
HETATM   12  C   UNL     1     -11.102  10.163  69.195  1.00  0.00    -0.212 A  
HETATM   13  C   UNL     1     -10.952   8.698  71.096  1.00  0.00    -0.320 A  
HETATM   14 CL   UNL     1     -10.643  10.715  67.621  1.00  0.00    -0.265 Cl 
HETATM   15 CL   UNL     1     -13.405  11.689  72.089  1.00  0.00    -0.499 Cl 
HETATM   16  C   UNL     1     -11.984  10.988  69.906  1.00  0.00    -0.427 A  
HETATM   17  C   UNL     1     -12.331  10.670  71.213  1.00  0.00    -0.383 A  
ENDBRANCH   9  10
BRANCH   9  18
HETATM   18  C   UNL     1      -8.437   8.638  68.379  1.00  0.00    -0.131 C  
BRANCH  18  19
HETATM   19  N   UNL     1      -7.848   7.902  67.279  1.00  0.00    -0.111 NA 
HETATM   20  N   UNL     1      -6.780   6.281  66.212  1.00  0.00    -0.055 NA 
HETATM   21  C   UNL     1      -7.999   8.166  65.948  1.00  0.00    -0.102 A  
HETATM   22  C   UNL     1      -7.326   7.153  65.307  1.00  0.00    -0.080 A  
HETATM   23  C   UNL     1      -7.118   6.751  67.390  1.00  0.00    -0.084 A  
ENDBRANCH  18  19
ENDBRANCH   9  18
ENDBRANCH   8   9
ENDBRANCH   7   8
ENDBRANCH   3   7
TORSDOF 6
ENDMDL
MODEL      203
REMARK 921   NORMALIZED FREE ENERGY PREDICTED BY IDOCK:   -3.66 KCAL/MOL
REMARK 922        TOTAL FREE ENERGY PREDICTED BY IDOCK:   -5.99 KCAL/MOL
REMARK 923 INTER-LIGAND FREE ENERGY PREDICTED BY IDOCK:   -4.92 KCAL/MOL
REMARK 924 INTRA-LIGAND FREE ENERGY PREDICTED BY IDOCK:   -1.07 KCAL/MOL
REMARK 927      BINDING AFFINITY PREDICTED BY RF-SCORE:    0.00 PKD
ROOT
HETATM    1 CL   UNL     1      -6.342  10.428  65.600  1.00  0.00    -0.118 Cl 
HETATM    2  C   UNL     1      -7.319   9.767  64.345  1.00  0.00    -0.132 A  
HETATM    3  C   UNL     1      -8.617  10.109  64.036  1.00  0.00    -0.197 A  
HETATM    4  C   UNL     1      -9.054   9.355  62.888  1.00  0.00    -0.101 A  
HETATM    5  S   UNL     1      -6.655   8.575  63.342  1.00  0.00    -0.085 SA 
HETATM    6  C   UNL     1      -8.092   8.485  62.420  1.00  0.00    -0.170 A  
ENDROOT
BRANCH   3   7
HETATM    7  C   UNL     1      -9.437  11.147  64.745  1.00  0.00    -0.218 C  
BRANCH   7   8
HETATM    8  O   UNL     1     -10.453  10.538  65.541  1.00  0.00    -0.237 OA 
BRANCH   8   9
HETATM    9  C   UNL     1     -10.288  10.642  66.969  1.00  0.00    -0.231 C  
BRANCH   9  10
HETATM   10  C   UNL     1     -10.135   9.227  67.551  1.00  0.00    -0.273 A  
HETATM   11  C   UNL     1     -10.702   6.842  67.451  1.00  0.00    -0.405 A  
HETATM   12  C   UNL     1      -9.375   8.947  68.705  1.00  0.00    -0.140 A  
HETATM   13  C   UNL     1     -10.774   8.135  66.925  1.00  0.00    -0.186 A  
HETATM   14 CL   UNL     1      -8.413  10.146  69.499  1.00  0.00    -0.179 Cl 
HETATM   15 CL   UNL     1      -9.936   5.030  69.294  1.00  0.00    -0.270 Cl 
HETATM   16  C   UNL     1      -9.332   7.659  69.254  1.00  0.00    -0.148 A  
HETATM   17  C   UNL     1      -9.998   6.614  68.626  1.00  0.00    -0.147 A  
ENDBRANCH   9  10
BRANCH   9  18
HETATM   18  C   UNL     1     -11.442  11.459  67.602  1.00  0.00    -0.273 C  
BRANCH  18  19
HETATM   19  N   UNL     1     -11.445  12.864  67.257  1.00  0.00    -0.316 NA 
HETATM   20  N   UNL     1     -10.756  14.966  67.138  1.00  0.00    -0.290 NA 
HETATM   21  C   UNL     1     -12.289  13.488  66.383  1.00  0.00    -0.357 A  
HETATM   22  C   UNL     1     -11.847  14.789  66.329  1.00  0.00    -0.209 A  
HETATM   23  C   UNL     1     -10.530  13.791  67.676  1.00  0.00    -0.242 A  
ENDBRANCH  18  19
ENDBRANCH   9  18
ENDBRANCH   8   9
ENDBRANCH   7   8
ENDBRANCH   3   7
TORSDOF 6
ENDMDL
MODEL      204
REMARK 921   NORMALIZED FREE ENERGY PREDICTED BY IDOCK:   -3.66 KCAL/MOL
REMARK 922        TOTAL FREE ENERGY PREDICTED BY IDOCK:   -5.99 KCAL/MOL
REMARK 923 INTER-LIGAND FREE ENERGY PREDICTED BY IDOCK:   -5.35 KCAL/MOL
REMARK 924 INTRA-LIGAND FREE ENERGY PREDICTED BY IDOCK:   -0.64 KCAL/MOL
REMARK 927      BINDING AFFINITY PREDICTED BY RF-SCORE:    0.00 PKD
ROOT
HETATM    1 CL   UNL     1     -10.379  16.821  66.049  1.00  0.00    -0.354 Cl 
HETATM    2  C   UNL     1      -8.881  16.386  66.780  1.00  0.00    -0.225 A  
HETATM    3  C   UNL     1      -8.432  15.114  67.061  1.00  0.00    -0.259 A  
HETATM    4  C   UNL     1      -7.110  15.184  67.628  1.00  0.00    -0.210 A  
HETATM    5  S   UNL     1      -7.798  17.616  67.204  1.00  0.00    -0.216 SA 
HETATM    6  C   UNL     1      -6.653  16.478  67.766  1.00  0.00    -0.141 A  
ENDROOT
BRANCH   3   7
HETATM    7  C   UNL     1      -9.178  13.844  66.771  1.00  0.00    -0.254 C  
BRANCH   7   8
HETATM    8  O   UNL     1      -9.234  13.010  67.928  1.00  0.00    -0.192 OA 
BRANCH   8   9
HETATM    9  C   UNL     1      -9.637  11.644  67.707  1.00  0.00    -0.178 C  
BRANCH   9  10
HETATM   10  C   UNL     1     -10.528  11.197  68.877  1.00  0.00    -0.233 A  
HETATM   11  C   UNL     1     -11.013   9.565  70.644  1.00  0.00    -0.370 A  
HETATM   12  C   UNL     1     -11.683  11.899  69.276  1.00  0.00    -0.328 A  
HETATM   13  C   UNL     1     -10.202  10.033  69.606  1.00  0.00    -0.267 A  
HETATM   14 CL   UNL     1     -12.133  13.419  68.586  1.00  0.00    -0.349 Cl 
HETATM   15 CL   UNL     1     -13.197   9.652  72.221  1.00  0.00    -0.519 Cl 
HETATM   16  C   UNL     1     -12.517  11.411  70.292  1.00  0.00    -0.312 A  
HETATM   17  C   UNL     1     -12.179  10.245  70.967  1.00  0.00    -0.384 A  
ENDBRANCH   9  10
BRANCH   9  18
HETATM   18  C   UNL     1      -8.405  10.734  67.474  1.00  0.00    -0.115 C  
BRANCH  18  19
HETATM   19  N   UNL     1      -7.151  11.289  67.938  1.00  0.00    -0.076 NA 
HETATM   20  N   UNL     1      -5.524  11.837  69.338  1.00  0.00    -0.056 NA 
HETATM   21  C   UNL     1      -6.129  11.758  67.163  1.00  0.00    -0.144 A  
HETATM   22  C   UNL     1      -5.135  12.096  68.051  1.00  0.00    -0.060 A  
HETATM   23  C   UNL     1      -6.736  11.344  69.241  1.00  0.00    -0.113 A  
ENDBRANCH  18  19
ENDBRANCH   9  18
ENDBRANCH   8   9
ENDBRANCH   7   8
ENDBRANCH   3   7
TORSDOF 6
ENDMDL
MODEL      205
REMARK 921   NORMALIZED FREE ENERGY PREDICTED BY IDOCK:   -3.66 KCAL/MOL
REMARK 922        TOTAL FREE ENERGY PREDICTED BY IDOCK:   -5.98 KCAL/MOL
REMARK 923 INTER-LIGAND FREE ENERGY PREDICTED BY IDOCK:   -5.59 KCAL/MOL
REMARK 924 INTRA-LIGAND FREE ENERGY PREDICTED BY IDOCK:   -0.40 KCAL/MOL
REMARK 927      BINDING AFFINITY PREDICTED BY RF-SCORE:    0.00 PKD
ROOT
HETATM    1 CL   UNL     1      -5.825  15.541  70.199  1.00  0.00    -0.149 Cl 
HETATM    2  C   UNL     1      -6.147  13.867  69.949  1.00  0.00    -0.140 A  
HETATM    3  C   UNL     1      -6.958  13.313  68.983  1.00  0.00    -0.075 A  
HETATM    4  C   UNL     1      -6.918  11.876  69.087  1.00  0.00    -0.079 A  
HETATM    5  S   UNL     1      -5.396  12.737  70.962  1.00  0.00    -0.152 SA 
HETATM    6  C   UNL     1      -6.117  11.435  70.120  1.00  0.00    -0.154 A  
ENDROOT
BRANCH   3   7
HETATM    7  C   UNL     1      -7.724  14.079  67.945  1.00  0.00    -0.159 C  
BRANCH   7   8
HETATM    8  O   UNL     1      -8.721  14.902  68.550  1.00  0.00    -0.158 OA 
BRANCH   8   9
HETATM    9  C   UNL     1     -10.058  14.364  68.575  1.00  0.00    -0.244 C  
BRANCH   9  10
HETATM   10  C   UNL     1     -10.302  13.589  67.270  1.00  0.00    -0.241 A  
HETATM   11  C   UNL     1     -10.876  11.479  66.155  1.00  0.00    -0.330 A  
HETATM   12  C   UNL     1     -10.155  14.166  65.992  1.00  0.00    -0.316 A  
HETATM   13  C   UNL     1     -10.693  12.234  67.318  1.00  0.00    -0.263 A  
HETATM   14 CL   UNL     1      -9.829  15.849  65.764  1.00  0.00    -0.371 Cl 
HETATM   15 CL   UNL     1     -10.848  11.128  63.483  1.00  0.00    -0.374 Cl 
HETATM   16  C   UNL     1     -10.301  13.402  64.827  1.00  0.00    -0.397 A  
HETATM   17  C   UNL     1     -10.658  12.062  64.915  1.00  0.00    -0.291 A  
ENDBRANCH   9  10
BRANCH   9  18
HETATM   18  C   UNL     1     -11.098  15.480  68.845  1.00  0.00    -0.282 C  
BRANCH  18  19
HETATM   19  N   UNL     1     -11.874  15.300  70.053  1.00  0.00    -0.310 NA 
HETATM   20  N   UNL     1     -12.525  15.573  72.153  1.00  0.00    -0.361 NA 
HETATM   21  C   UNL     1     -13.056  14.626  70.172  1.00  0.00     0.105 A  
HETATM   22  C   UNL     1     -13.438  14.805  71.480  1.00  0.00    -0.394 A  
HETATM   23  C   UNL     1     -11.600  15.865  71.269  1.00  0.00    -0.452 A  
ENDBRANCH  18  19
ENDBRANCH   9  18
ENDBRANCH   8   9
ENDBRANCH   7   8
ENDBRANCH   3   7
TORSDOF 6
ENDMDL
MODEL      206
REMARK 921   NORMALIZED FREE ENERGY PREDICTED BY IDOCK:   -3.65 KCAL/MOL
REMARK 922        TOTAL FREE ENERGY PREDICTED BY IDOCK:   -5.97 KCAL/MOL
REMARK 923 INTER-LIGAND FREE ENERGY PREDICTED BY IDOCK:   -5.07 KCAL/MOL
REMARK 924 INTRA-LIGAND FREE ENERGY PREDICTED BY IDOCK:   -0.90 KCAL/MOL
REMARK 927      BINDING AFFINITY PREDICTED BY RF-SCORE:    0.00 PKD
ROOT
HETATM    1 CL   UNL     1     -10.110  10.585  64.004  1.00  0.00    -0.379 Cl 
HETATM    2  C   UNL     1     -11.160  11.776  64.671  1.00  0.00    -0.303 A  
HETATM    3  C   UNL     1     -11.134  12.282  65.953  1.00  0.00    -0.360 A  
HETATM    4  C   UNL     1     -12.151  13.293  66.093  1.00  0.00    -0.477 A  
HETATM    5  S   UNL     1     -12.363  12.443  63.684  1.00  0.00    -0.536 SA 
HETATM    6  C   UNL     1     -12.891  13.472  64.943  1.00  0.00    -0.210 A  
ENDROOT
BRANCH   3   7
HETATM    7  C   UNL     1     -10.162  11.885  67.026  1.00  0.00    -0.210 C  
BRANCH   7   8
HETATM    8  O   UNL     1      -8.911  12.549  66.851  1.00  0.00    -0.205 OA 
BRANCH   8   9
HETATM    9  C   UNL     1      -8.086  12.668  68.027  1.00  0.00    -0.161 C  
BRANCH   9  10
HETATM   10  C   UNL     1      -7.630  14.129  68.163  1.00  0.00    -0.136 A  
HETATM   11  C   UNL     1      -5.867  15.814  67.891  1.00  0.00    -0.156 A  
HETATM   12  C   UNL     1      -8.446  15.143  68.703  1.00  0.00    -0.170 A  
HETATM   13  C   UNL     1      -6.338  14.506  67.738  1.00  0.00    -0.169 A  
HETATM   14 CL   UNL     1     -10.101  14.877  69.129  1.00  0.00    -0.233 Cl 
HETATM   15 CL   UNL     1      -6.085  18.373  68.707  1.00  0.00    -0.201 Cl 
HETATM   16  C   UNL     1      -7.963  16.445  68.891  1.00  0.00    -0.236 A  
HETATM   17  C   UNL     1      -6.674  16.772  68.487  1.00  0.00    -0.161 A  
ENDBRANCH   9  10
BRANCH   9  18
HETATM   18  C   UNL     1      -6.920  11.648  67.991  1.00  0.00    -0.078 C  
BRANCH  18  19
HETATM   19  N   UNL     1      -6.460  11.214  69.293  1.00  0.00    -0.077 NA 
HETATM   20  N   UNL     1      -6.312   9.986  71.131  1.00  0.00    -0.312 NA 
HETATM   21  C   UNL     1      -5.368  11.679  69.969  1.00  0.00    -0.087 A  
HETATM   22  C   UNL     1      -5.299  10.908  71.105  1.00  0.00    -0.070 A  
HETATM   23  C   UNL     1      -6.989  10.186  70.025  1.00  0.00    -0.145 A  
ENDBRANCH  18  19
ENDBRANCH   9  18
ENDBRANCH   8   9
ENDBRANCH   7   8
ENDBRANCH   3   7
TORSDOF 6
ENDMDL
MODEL      207
REMARK 921   NORMALIZED FREE ENERGY PREDICTED BY IDOCK:   -3.65 KCAL/MOL
REMARK 922        TOTAL FREE ENERGY PREDICTED BY IDOCK:   -5.97 KCAL/MOL
REMARK 923 INTER-LIGAND FREE ENERGY PREDICTED BY IDOCK:   -5.97 KCAL/MOL
REMARK 924 INTRA-LIGAND FREE ENERGY PREDICTED BY IDOCK:    0.00 KCAL/MOL
REMARK 927      BINDING AFFINITY PREDICTED BY RF-SCORE:    0.00 PKD
ROOT
HETATM    1 CL   UNL     1     -10.676  16.790  70.113  1.00  0.00    -0.126 Cl 
HETATM    2  C   UNL     1     -11.688  15.570  70.788  1.00  0.00    -0.362 A  
HETATM    3  C   UNL     1     -12.240  14.492  70.131  1.00  0.00    -0.399 A  
HETATM    4  C   UNL     1     -12.982  13.686  71.067  1.00  0.00    -0.303 A  
HETATM    5  S   UNL     1     -12.062  15.647  72.437  1.00  0.00    -0.512 SA 
HETATM    6  C   UNL     1     -12.973  14.202  72.346  1.00  0.00    -0.391 A  
ENDROOT
BRANCH   3   7
HETATM    7  C   UNL     1     -12.054  14.170  68.677  1.00  0.00    -0.285 C  
BRANCH   7   8
HETATM    8  O   UNL     1     -11.186  13.049  68.509  1.00  0.00    -0.241 OA 
BRANCH   8   9
HETATM    9  C   UNL     1     -10.840  12.712  67.151  1.00  0.00    -0.253 C  
BRANCH   9  10
HETATM   10  C   UNL     1     -10.541  11.206  67.078  1.00  0.00    -0.295 A  
HETATM   11  C   UNL     1      -9.457   9.333  65.921  1.00  0.00    -0.325 A  
HETATM   12  C   UNL     1     -11.059  10.273  67.998  1.00  0.00    -0.274 A  
HETATM   13  C   UNL     1      -9.713  10.701  66.053  1.00  0.00    -0.258 A  
HETATM   14 CL   UNL     1     -11.964  10.747  69.394  1.00  0.00    -0.368 Cl 
HETATM   15 CL   UNL     1      -9.753   6.749  66.626  1.00  0.00    -0.220 Cl 
HETATM   16  C   UNL     1     -10.835   8.898  67.846  1.00  0.00    -0.096 A  
HETATM   17  C   UNL     1     -10.038   8.436  66.806  1.00  0.00    -0.303 A  
ENDBRANCH   9  10
BRANCH   9  18
HETATM   18  C   UNL     1      -9.685  13.606  66.636  1.00  0.00    -0.284 C  
BRANCH  18  19
HETATM   19  N   UNL     1      -8.546  13.691  67.526  1.00  0.00    -0.184 NA 
HETATM   20  N   UNL     1      -6.529  13.289  68.348  1.00  0.00    -0.082 NA 
HETATM   21  C   UNL     1      -8.360  14.600  68.529  1.00  0.00    -0.162 A  
HETATM   22  C   UNL     1      -7.107  14.328  69.026  1.00  0.00    -0.116 A  
HETATM   23  C   UNL     1      -7.412  12.931  67.445  1.00  0.00    -0.132 A  
ENDBRANCH  18  19
ENDBRANCH   9  18
ENDBRANCH   8   9
ENDBRANCH   7   8
ENDBRANCH   3   7
TORSDOF 6
ENDMDL
MODEL      208
REMARK 921   NORMALIZED FREE ENERGY PREDICTED BY IDOCK:   -3.64 KCAL/MOL
REMARK 922        TOTAL FREE ENERGY PREDICTED BY IDOCK:   -5.96 KCAL/MOL
REMARK 923 INTER-LIGAND FREE ENERGY PREDICTED BY IDOCK:   -5.57 KCAL/MOL
REMARK 924 INTRA-LIGAND FREE ENERGY PREDICTED BY IDOCK:   -0.39 KCAL/MOL
REMARK 927      BINDING AFFINITY PREDICTED BY RF-SCORE:    0.00 PKD
ROOT
HETATM    1 CL   UNL     1     -10.640   4.437  65.703  1.00  0.00    -0.251 Cl 
HETATM    2  C   UNL     1      -9.454   5.632  66.063  1.00  0.00    -0.110 A  
HETATM    3  C   UNL     1      -9.413   6.455  67.168  1.00  0.00    -0.145 A  
HETATM    4  C   UNL     1      -8.232   7.278  67.112  1.00  0.00    -0.118 A  
HETATM    5  S   UNL     1      -8.168   5.850  64.984  1.00  0.00    -0.129 SA 
HETATM    6  C   UNL     1      -7.476   7.057  65.979  1.00  0.00    -0.080 A  
ENDROOT
BRANCH   3   7
HETATM    7  C   UNL     1     -10.411   6.458  68.289  1.00  0.00    -0.191 C  
BRANCH   7   8
HETATM    8  O   UNL     1     -10.239   7.605  69.121  1.00  0.00    -0.193 OA 
BRANCH   8   9
HETATM    9  C   UNL     1     -10.708   7.479  70.479  1.00  0.00    -0.235 C  
BRANCH   9  10
HETATM   10  C   UNL     1     -11.410   8.787  70.881  1.00  0.00    -0.322 A  
HETATM   11  C   UNL     1     -13.178   9.917  72.152  1.00  0.00    -0.511 A  
HETATM   12  C   UNL     1     -11.038  10.047  70.372  1.00  0.00    -0.327 A  
HETATM   13  C   UNL     1     -12.481   8.757  71.800  1.00  0.00    -0.407 A  
HETATM   14 CL   UNL     1      -9.655  10.271  69.358  1.00  0.00    -0.239 Cl 
HETATM   15 CL   UNL     1     -13.705  12.554  71.987  1.00  0.00    -0.368 Cl 
HETATM   16  C   UNL     1     -11.759  11.205  70.696  1.00  0.00    -0.310 A  
HETATM   17  C   UNL     1     -12.828  11.132  71.582  1.00  0.00    -0.419 A  
ENDBRANCH   9  10
BRANCH   9  18
HETATM   18  C   UNL     1      -9.554   7.070  71.427  1.00  0.00    -0.162 C  
BRANCH  18  19
HETATM   19  N   UNL     1      -9.940   6.171  72.494  1.00  0.00    -0.172 NA 
HETATM   20  N   UNL     1      -9.968   5.235  74.501  1.00  0.00    -0.213 NA 
HETATM   21  C   UNL     1     -11.010   5.323  72.499  1.00  0.00    -0.240 A  
HETATM   22  C   UNL     1     -11.004   4.751  73.749  1.00  0.00    -0.300 A  
HETATM   23  C   UNL     1      -9.350   6.094  73.726  1.00  0.00    -0.131 A  
ENDBRANCH  18  19
ENDBRANCH   9  18
ENDBRANCH   8   9
ENDBRANCH   7   8
ENDBRANCH   3   7
TORSDOF 6
ENDMDL
MODEL      209
REMARK 921   NORMALIZED FREE ENERGY PREDICTED BY IDOCK:   -3.62 KCAL/MOL
REMARK 922        TOTAL FREE ENERGY PREDICTED BY IDOCK:   -5.93 KCAL/MOL
REMARK 923 INTER-LIGAND FREE ENERGY PREDICTED BY IDOCK:   -5.33 KCAL/MOL
REMARK 924 INTRA-LIGAND FREE ENERGY PREDICTED BY IDOCK:   -0.60 KCAL/MOL
REMARK 927      BINDING AFFINITY PREDICTED BY RF-SCORE:    0.00 PKD
ROOT
HETATM    1 CL   UNL     1      -9.683   9.169  66.074  1.00  0.00    -0.352 Cl 
HETATM    2  C   UNL     1      -9.300   9.332  67.745  1.00  0.00    -0.128 A  
HETATM    3  C   UNL     1      -8.954  10.489  68.409  1.00  0.00    -0.141 A  
HETATM    4  C   UNL     1      -8.759  10.201  69.808  1.00  0.00    -0.148 A  
HETATM    5  S   UNL     1      -9.357   7.955  68.728  1.00  0.00    -0.146 SA 
HETATM    6  C   UNL     1      -8.939   8.868  70.112  1.00  0.00    -0.172 A  
ENDROOT
BRANCH   3   7
HETATM    7  C   UNL     1      -8.849  11.851  67.788  1.00  0.00    -0.166 C  
BRANCH   7   8
HETATM    8  O   UNL     1      -9.711  12.779  68.445  1.00  0.00    -0.223 OA 
BRANCH   8   9
HETATM    9  C   UNL     1     -10.701  13.422  67.618  1.00  0.00    -0.247 C  
BRANCH   9  10
HETATM   10  C   UNL     1     -10.267  14.875  67.369  1.00  0.00    -0.234 A  
HETATM   11  C   UNL     1      -9.679  16.649  65.779  1.00  0.00    -0.194 A  
HETATM   12  C   UNL     1      -9.999  15.787  68.410  1.00  0.00    -0.217 A  
HETATM   13  C   UNL     1     -10.120  15.350  66.048  1.00  0.00    -0.346 A  
HETATM   14 CL   UNL     1     -10.275  15.407  70.074  1.00  0.00    -0.298 Cl 
HETATM   15 CL   UNL     1      -8.784  19.087  66.501  1.00  0.00    -0.314 Cl 
HETATM   16  C   UNL     1      -9.521  17.077  68.142  1.00  0.00    -0.262 A  
HETATM   17  C   UNL     1      -9.360  17.500  66.829  1.00  0.00    -0.265 A  
ENDBRANCH   9  10
BRANCH   9  18
HETATM   18  C   UNL     1     -12.114  13.287  68.239  1.00  0.00    -0.211 C  
BRANCH  18  19
HETATM   19  N   UNL     1     -12.205  12.336  69.326  1.00  0.00    -0.136 NA 
HETATM   20  N   UNL     1     -12.491  11.570  71.385  1.00  0.00    -0.284 NA 
HETATM   21  C   UNL     1     -12.243  10.975  69.219  1.00  0.00    -0.210 A  
HETATM   22  C   UNL     1     -12.416  10.522  70.506  1.00  0.00    -0.347 A  
HETATM   23  C   UNL     1     -12.371  12.649  70.648  1.00  0.00    -0.290 A  
ENDBRANCH  18  19
ENDBRANCH   9  18
ENDBRANCH   8   9
ENDBRANCH   7   8
ENDBRANCH   3   7
TORSDOF 6
ENDMDL
MODEL      210
REMARK 921   NORMALIZED FREE ENERGY PREDICTED BY IDOCK:   -3.62 KCAL/MOL
REMARK 922        TOTAL FREE ENERGY PREDICTED BY IDOCK:   -5.93 KCAL/MOL
REMARK 923 INTER-LIGAND FREE ENERGY PREDICTED BY IDOCK:   -5.15 KCAL/MOL
REMARK 924 INTRA-LIGAND FREE ENERGY PREDICTED BY IDOCK:   -0.78 KCAL/MOL
REMARK 927      BINDING AFFINITY PREDICTED BY RF-SCORE:    0.00 PKD
ROOT
HETATM    1 CL   UNL     1      -8.191   7.844  65.548  1.00  0.00    -0.133 Cl 
HETATM    2  C   UNL     1      -9.261   9.011  66.227  1.00  0.00    -0.206 A  
HETATM    3  C   UNL     1      -9.665   9.101  67.542  1.00  0.00    -0.204 A  
HETATM    4  C   UNL     1     -10.525  10.246  67.704  1.00  0.00    -0.285 A  
HETATM    5  S   UNL     1      -9.901  10.210  65.218  1.00  0.00    -0.313 SA 
HETATM    6  C   UNL     1     -10.739  10.927  66.524  1.00  0.00    -0.209 A  
ENDROOT
BRANCH   3   7
HETATM    7  C   UNL     1      -9.235   8.184  68.650  1.00  0.00    -0.143 C  
BRANCH   7   8
HETATM    8  O   UNL     1     -10.215   7.174  68.885  1.00  0.00    -0.175 OA 
BRANCH   8   9
HETATM    9  C   UNL     1     -10.425   6.801  70.261  1.00  0.00    -0.207 C  
BRANCH   9  10
HETATM   10  C   UNL     1      -9.670   5.490  70.537  1.00  0.00    -0.241 A  
HETATM   11  C   UNL     1      -9.113   3.202  69.847  1.00  0.00    -0.196 A  
HETATM   12  C   UNL     1      -8.889   5.279  71.691  1.00  0.00    -0.135 A  
HETATM   13  C   UNL     1      -9.743   4.428  69.610  1.00  0.00    -0.289 A  
HETATM   14 CL   UNL     1      -8.578   6.529  72.845  1.00  0.00    -0.123 Cl 
HETATM   15 CL   UNL     1      -7.660   1.489  71.335  1.00  0.00    -0.036 Cl 
HETATM   16  C   UNL     1      -8.288   4.039  71.947  1.00  0.00    -0.098 A  
HETATM   17  C   UNL     1      -8.407   3.007  71.025  1.00  0.00    -0.061 A  
ENDBRANCH   9  10
BRANCH   9  18
HETATM   18  C   UNL     1     -11.936   6.736  70.594  1.00  0.00    -0.362 C  
BRANCH  18  19
HETATM   19  N   UNL     1     -12.487   7.961  71.133  1.00  0.00    -0.253 NA 
HETATM   20  N   UNL     1     -13.825   9.292  72.294  1.00  0.00    -0.457 NA 
HETATM   21  C   UNL     1     -11.931   9.206  71.065  1.00  0.00    -0.282 A  
HETATM   22  C   UNL     1     -12.777  10.014  71.786  1.00  0.00    -0.428 A  
HETATM   23  C   UNL     1     -13.620   8.059  71.894  1.00  0.00    -0.313 A  
ENDBRANCH  18  19
ENDBRANCH   9  18
ENDBRANCH   8   9
ENDBRANCH   7   8
ENDBRANCH   3   7
TORSDOF 6
ENDMDL
MODEL      211
REMARK 921   NORMALIZED FREE ENERGY PREDICTED BY IDOCK:   -3.60 KCAL/MOL
REMARK 922        TOTAL FREE ENERGY PREDICTED BY IDOCK:   -5.91 KCAL/MOL
REMARK 923 INTER-LIGAND FREE ENERGY PREDICTED BY IDOCK:   -6.07 KCAL/MOL
REMARK 924 INTRA-LIGAND FREE ENERGY PREDICTED BY IDOCK:    0.16 KCAL/MOL
REMARK 927      BINDING AFFINITY PREDICTED BY RF-SCORE:    0.00 PKD
ROOT
HETATM    1 CL   UNL     1      -8.680   7.088  66.211  1.00  0.00    -0.145 Cl 
HETATM    2  C   UNL     1      -8.288   7.204  67.884  1.00  0.00    -0.118 A  
HETATM    3  C   UNL     1      -8.879   8.023  68.821  1.00  0.00    -0.138 A  
HETATM    4  C   UNL     1      -8.291   7.780  70.113  1.00  0.00    -0.128 A  
HETATM    5  S   UNL     1      -7.062   6.213  68.500  1.00  0.00    -0.084 SA 
HETATM    6  C   UNL     1      -7.292   6.830  70.078  1.00  0.00    -0.085 A  
ENDROOT
BRANCH   3   7
HETATM    7  C   UNL     1     -10.002   8.983  68.553  1.00  0.00    -0.176 C  
BRANCH   7   8
HETATM    8  O   UNL     1     -10.369   9.682  69.742  1.00  0.00    -0.209 OA 
BRANCH   8   9
HETATM    9  C   UNL     1     -11.743  10.112  69.827  1.00  0.00    -0.139 C  
BRANCH   9  10
HETATM   10  C   UNL     1     -11.785  11.646  69.737  1.00  0.00    -0.425 A  
HETATM   11  C   UNL     1     -11.182  13.697  68.534  1.00  0.00    -0.310 A  
HETATM   12  C   UNL     1     -12.382  12.458  70.722  1.00  0.00    -0.286 A  
HETATM   13  C   UNL     1     -11.209  12.303  68.629  1.00  0.00    -0.305 A  
HETATM   14 CL   UNL     1     -13.260  11.804  72.061  1.00  0.00    -0.569 Cl 
HETATM   15 CL   UNL     1     -11.658  16.184  69.458  1.00  0.00    -0.294 Cl 
HETATM   16  C   UNL     1     -12.323  13.856  70.647  1.00  0.00    -0.451 A  
HETATM   17  C   UNL     1     -11.720  14.468  69.555  1.00  0.00    -0.314 A  
ENDBRANCH   9  10
BRANCH   9  18
HETATM   18  C   UNL     1     -12.425   9.538  71.094  1.00  0.00    -0.315 C  
BRANCH  18  19
HETATM   19  N   UNL     1     -11.899   8.265  71.537  1.00  0.00    -0.282 NA 
HETATM   20  N   UNL     1     -10.850   6.795  72.820  1.00  0.00    -0.248 NA 
HETATM   21  C   UNL     1     -12.176   7.038  71.006  1.00  0.00    -0.374 A  
HETATM   22  C   UNL     1     -11.512   6.144  71.813  1.00  0.00    -0.285 A  
HETATM   23  C   UNL     1     -11.107   8.068  72.635  1.00  0.00    -0.387 A  
ENDBRANCH  18  19
ENDBRANCH   9  18
ENDBRANCH   8   9
ENDBRANCH   7   8
ENDBRANCH   3   7
TORSDOF 6
ENDMDL
MODEL      212
REMARK 921   NORMALIZED FREE ENERGY PREDICTED BY IDOCK:   -3.59 KCAL/MOL
REMARK 922        TOTAL FREE ENERGY PREDICTED BY IDOCK:   -5.89 KCAL/MOL
REMARK 923 INTER-LIGAND FREE ENERGY PREDICTED BY IDOCK:   -5.46 KCAL/MOL
REMARK 924 INTRA-LIGAND FREE ENERGY PREDICTED BY IDOCK:   -0.43 KCAL/MOL
REMARK 927      BINDING AFFINITY PREDICTED BY RF-SCORE:    0.00 PKD
ROOT
HETATM    1 CL   UNL     1      -7.671   6.457  72.568  1.00  0.00    -0.100 Cl 
HETATM    2  C   UNL     1      -9.052   5.484  72.907  1.00  0.00    -0.122 A  
HETATM    3  C   UNL     1     -10.305   5.921  73.277  1.00  0.00    -0.234 A  
HETATM    4  C   UNL     1     -11.187   4.791  73.420  1.00  0.00    -0.425 A  
HETATM    5  S   UNL     1      -8.912   3.803  72.770  1.00  0.00    -0.097 SA 
HETATM    6  C   UNL     1     -10.558   3.586  73.181  1.00  0.00    -0.179 A  
ENDROOT
BRANCH   3   7
HETATM    7  C   UNL     1     -10.711   7.356  73.451  1.00  0.00    -0.357 C  
BRANCH   7   8
HETATM    8  O   UNL     1     -10.759   8.029  72.193  1.00  0.00    -0.236 OA 
BRANCH   8   9
HETATM    9  C   UNL     1     -11.591   7.427  71.182  1.00  0.00    -0.286 C  
BRANCH   9  10
HETATM   10  C   UNL     1     -10.759   7.251  69.901  1.00  0.00    -0.257 A  
HETATM   11  C   UNL     1     -10.371   6.049  67.797  1.00  0.00    -0.254 A  
HETATM   12  C   UNL     1      -9.620   8.027  69.610  1.00  0.00    -0.168 A  
HETATM   13  C   UNL     1     -11.128   6.275  68.950  1.00  0.00    -0.434 A  
HETATM   14 CL   UNL     1      -9.125   9.360  70.596  1.00  0.00    -0.301 Cl 
HETATM   15 CL   UNL     1      -8.264   6.489  66.175  1.00  0.00    -0.117 Cl 
HETATM   16  C   UNL     1      -8.838   7.777  68.474  1.00  0.00    -0.130 A  
HETATM   17  C   UNL     1      -9.217   6.787  67.575  1.00  0.00    -0.122 A  
ENDBRANCH   9  10
BRANCH   9  18
HETATM   18  C   UNL     1     -12.892   8.241  70.978  1.00  0.00     0.029 C  
BRANCH  18  19
HETATM   19  N   UNL     1     -12.726   9.676  71.070  1.00  0.00    -0.299 NA 
HETATM   20  N   UNL     1     -12.206  11.741  70.460  1.00  0.00    -0.365 NA 
HETATM   21  C   UNL     1     -13.197  10.491  72.059  1.00  0.00    -0.378 A  
HETATM   22  C   UNL     1     -12.861  11.763  71.663  1.00  0.00    -0.328 A  
HETATM   23  C   UNL     1     -12.147  10.474  70.122  1.00  0.00    -0.300 A  
ENDBRANCH  18  19
ENDBRANCH   9  18
ENDBRANCH   8   9
ENDBRANCH   7   8
ENDBRANCH   3   7
TORSDOF 6
ENDMDL
MODEL      213
REMARK 921   NORMALIZED FREE ENERGY PREDICTED BY IDOCK:   -3.57 KCAL/MOL
REMARK 922        TOTAL FREE ENERGY PREDICTED BY IDOCK:   -5.87 KCAL/MOL
REMARK 923 INTER-LIGAND FREE ENERGY PREDICTED BY IDOCK:   -5.17 KCAL/MOL
REMARK 924 INTRA-LIGAND FREE ENERGY PREDICTED BY IDOCK:   -0.71 KCAL/MOL
REMARK 927      BINDING AFFINITY PREDICTED BY RF-SCORE:    0.00 PKD
ROOT
HETATM    1 CL   UNL     1     -10.896  10.439  66.895  1.00  0.00    -0.270 Cl 
HETATM    2  C   UNL     1     -11.376  11.660  68.011  1.00  0.00    -0.296 A  
HETATM    3  C   UNL     1     -11.548  11.521  69.371  1.00  0.00    -0.388 A  
HETATM    4  C   UNL     1     -11.907  12.794  69.944  1.00  0.00    -0.371 A  
HETATM    5  S   UNL     1     -11.663  13.224  67.428  1.00  0.00    -0.375 SA 
HETATM    6  C   UNL     1     -12.011  13.796  69.002  1.00  0.00    -0.360 A  
ENDROOT
BRANCH   3   7
HETATM    7  C   UNL     1     -11.340  10.256  70.150  1.00  0.00    -0.316 C  
BRANCH   7   8
HETATM    8  O   UNL     1      -9.999   9.787  70.014  1.00  0.00    -0.227 OA 
BRANCH   8   9
HETATM    9  C   UNL     1      -9.809   8.363  70.135  1.00  0.00    -0.181 C  
BRANCH   9  10
HETATM   10  C   UNL     1      -9.063   7.859  68.888  1.00  0.00    -0.141 A  
HETATM   11  C   UNL     1      -9.138   7.142  66.543  1.00  0.00    -0.182 A  
HETATM   12  C   UNL     1      -7.681   7.587  68.876  1.00  0.00    -0.115 A  
HETATM   13  C   UNL     1      -9.768   7.648  67.684  1.00  0.00    -0.189 A  
HETATM   14 CL   UNL     1      -6.651   7.935  70.221  1.00  0.00    -0.037 Cl 
HETATM   15 CL   UNL     1      -7.018   6.168  65.194  1.00  0.00    -0.054 Cl 
HETATM   16  C   UNL     1      -7.055   7.045  67.744  1.00  0.00    -0.085 A  
HETATM   17  C   UNL     1      -7.788   6.823  66.585  1.00  0.00    -0.107 A  
ENDBRANCH   9  10
BRANCH   9  18
HETATM   18  C   UNL     1     -11.156   7.644  70.393  1.00  0.00    -0.258 C  
BRANCH  18  19
HETATM   19  N   UNL     1     -11.082   6.546  71.333  1.00  0.00    -0.257 NA 
HETATM   20  N   UNL     1     -10.418   4.633  72.230  1.00  0.00    -0.193 NA 
HETATM   21  C   UNL     1     -11.657   6.491  72.571  1.00  0.00    -0.208 A  
HETATM   22  C   UNL     1     -11.236   5.297  73.105  1.00  0.00    -0.318 A  
HETATM   23  C   UNL     1     -10.335   5.411  71.176  1.00  0.00    -0.235 A  
ENDBRANCH  18  19
ENDBRANCH   9  18
ENDBRANCH   8   9
ENDBRANCH   7   8
ENDBRANCH   3   7
TORSDOF 6
ENDMDL
MODEL      214
REMARK 921   NORMALIZED FREE ENERGY PREDICTED BY IDOCK:   -3.57 KCAL/MOL
REMARK 922        TOTAL FREE ENERGY PREDICTED BY IDOCK:   -5.86 KCAL/MOL
REMARK 923 INTER-LIGAND FREE ENERGY PREDICTED BY IDOCK:   -4.93 KCAL/MOL
REMARK 924 INTRA-LIGAND FREE ENERGY PREDICTED BY IDOCK:   -0.93 KCAL/MOL
REMARK 927      BINDING AFFINITY PREDICTED BY RF-SCORE:    0.00 PKD
ROOT
HETATM    1 CL   UNL     1     -10.648  10.899  69.608  1.00  0.00    -0.220 Cl 
HETATM    2  C   UNL     1     -11.365   9.867  70.787  1.00  0.00    -0.353 A  
HETATM    3  C   UNL     1     -10.766   8.815  71.444  1.00  0.00    -0.356 A  
HETATM    4  C   UNL     1     -11.696   8.241  72.383  1.00  0.00    -0.463 A  
HETATM    5  S   UNL     1     -12.974  10.143  71.235  1.00  0.00    -0.431 SA 
HETATM    6  C   UNL     1     -12.928   8.860  72.365  1.00  0.00    -0.404 A  
ENDROOT
BRANCH   3   7
HETATM    7  C   UNL     1      -9.346   8.366  71.256  1.00  0.00    -0.187 C  
BRANCH   7   8
HETATM    8  O   UNL     1      -9.223   7.532  70.104  1.00  0.00    -0.154 OA 
BRANCH   8   9
HETATM    9  C   UNL     1      -8.137   7.842  69.209  1.00  0.00    -0.126 C  
BRANCH   9  10
HETATM   10  C   UNL     1      -8.678   8.702  68.056  1.00  0.00    -0.141 A  
HETATM   11  C   UNL     1     -10.491   9.198  66.477  1.00  0.00    -0.197 A  
HETATM   12  C   UNL     1      -7.934   9.732  67.448  1.00  0.00    -0.102 A  
HETATM   13  C   UNL     1      -9.980   8.473  67.558  1.00  0.00    -0.258 A  
HETATM   14 CL   UNL     1      -6.388  10.235  68.038  1.00  0.00    -0.056 Cl 
HETATM   15 CL   UNL     1     -10.318  11.031  64.509  1.00  0.00    -0.399 Cl 
HETATM   16  C   UNL     1      -8.431  10.434  66.341  1.00  0.00    -0.138 A  
HETATM   17  C   UNL     1      -9.705  10.161  65.860  1.00  0.00    -0.232 A  
ENDBRANCH   9  10
BRANCH   9  18
HETATM   18  C   UNL     1      -7.416   6.552  68.745  1.00  0.00    -0.088 C  
BRANCH  18  19
HETATM   19  N   UNL     1      -8.296   5.434  68.475  1.00  0.00    -0.097 NA 
HETATM   20  N   UNL     1      -9.537   4.012  67.316  1.00  0.00    -0.198 NA 
HETATM   21  C   UNL     1      -8.656   4.449  69.350  1.00  0.00    -0.080 A  
HETATM   22  C   UNL     1      -9.427   3.583  68.612  1.00  0.00    -0.141 A  
HETATM   23  C   UNL     1      -8.839   5.122  67.259  1.00  0.00    -0.105 A  
ENDBRANCH  18  19
ENDBRANCH   9  18
ENDBRANCH   8   9
ENDBRANCH   7   8
ENDBRANCH   3   7
TORSDOF 6
ENDMDL
MODEL      215
REMARK 921   NORMALIZED FREE ENERGY PREDICTED BY IDOCK:   -3.56 KCAL/MOL
REMARK 922        TOTAL FREE ENERGY PREDICTED BY IDOCK:   -5.86 KCAL/MOL
REMARK 923 INTER-LIGAND FREE ENERGY PREDICTED BY IDOCK:   -5.02 KCAL/MOL
REMARK 924 INTRA-LIGAND FREE ENERGY PREDICTED BY IDOCK:   -0.84 KCAL/MOL
REMARK 927      BINDING AFFINITY PREDICTED BY RF-SCORE:    0.00 PKD
ROOT
HETATM    1 CL   UNL     1      -8.426   8.112  72.658  1.00  0.00    -0.231 Cl 
HETATM    2  C   UNL     1      -9.826   7.395  71.956  1.00  0.00    -0.162 A  
HETATM    3  C   UNL     1      -9.867   6.527  70.887  1.00  0.00    -0.201 A  
HETATM    4  C   UNL     1     -11.229   6.123  70.646  1.00  0.00    -0.387 A  
HETATM    5  S   UNL     1     -11.340   7.747  72.626  1.00  0.00    -0.387 SA 
HETATM    6  C   UNL     1     -12.125   6.716  71.511  1.00  0.00    -0.355 A  
ENDROOT
BRANCH   3   7
HETATM    7  C   UNL     1      -8.675   6.031  70.122  1.00  0.00    -0.139 C  
BRANCH   7   8
HETATM    8  O   UNL     1      -8.219   7.014  69.193  1.00  0.00    -0.119 OA 
BRANCH   8   9
HETATM    9  C   UNL     1      -9.181   7.459  68.216  1.00  0.00    -0.137 C  
BRANCH   9  10
HETATM   10  C   UNL     1      -9.117   6.521  67.000  1.00  0.00    -0.133 A  
HETATM   11  C   UNL     1     -10.193   4.814  65.604  1.00  0.00    -0.213 A  
HETATM   12  C   UNL     1      -7.983   6.414  66.170  1.00  0.00    -0.112 A  
HETATM   13  C   UNL     1     -10.229   5.716  66.671  1.00  0.00    -0.276 A  
HETATM   14 CL   UNL     1      -6.599   7.437  66.347  1.00  0.00    -0.052 Cl 
HETATM   15 CL   UNL     1      -8.978   3.553  63.556  1.00  0.00    -0.094 Cl 
HETATM   16  C   UNL     1      -7.932   5.483  65.123  1.00  0.00    -0.110 A  
HETATM   17  C   UNL     1      -9.037   4.686  64.848  1.00  0.00    -0.154 A  
ENDBRANCH   9  10
BRANCH   9  18
HETATM   18  C   UNL     1      -8.966   8.953  67.868  1.00  0.00    -0.139 C  
BRANCH  18  19
HETATM   19  N   UNL     1     -10.069   9.819  68.227  1.00  0.00    -0.157 NA 
HETATM   20  N   UNL     1     -11.793  11.186  67.970  1.00  0.00    -0.620 NA 
HETATM   21  C   UNL     1     -10.613   9.976  69.469  1.00  0.00    -0.244 A  
HETATM   22  C   UNL     1     -11.676  10.829  69.287  1.00  0.00    -0.303 A  
HETATM   23  C   UNL     1     -10.821  10.557  67.354  1.00  0.00    -0.291 A  
ENDBRANCH  18  19
ENDBRANCH   9  18
ENDBRANCH   8   9
ENDBRANCH   7   8
ENDBRANCH   3   7
TORSDOF 6
ENDMDL
MODEL      216
REMARK 921   NORMALIZED FREE ENERGY PREDICTED BY IDOCK:   -3.56 KCAL/MOL
REMARK 922        TOTAL FREE ENERGY PREDICTED BY IDOCK:   -5.85 KCAL/MOL
REMARK 923 INTER-LIGAND FREE ENERGY PREDICTED BY IDOCK:   -5.63 KCAL/MOL
REMARK 924 INTRA-LIGAND FREE ENERGY PREDICTED BY IDOCK:   -0.22 KCAL/MOL
REMARK 927      BINDING AFFINITY PREDICTED BY RF-SCORE:    0.00 PKD
ROOT
HETATM    1 CL   UNL     1      -9.990   5.672  67.802  1.00  0.00    -0.156 Cl 
HETATM    2  C   UNL     1      -8.497   5.603  68.659  1.00  0.00    -0.105 A  
HETATM    3  C   UNL     1      -7.987   6.554  69.516  1.00  0.00    -0.117 A  
HETATM    4  C   UNL     1      -6.736   6.090  70.061  1.00  0.00    -0.052 A  
HETATM    5  S   UNL     1      -7.519   4.234  68.476  1.00  0.00    -0.060 SA 
HETATM    6  C   UNL     1      -6.365   4.853  69.575  1.00  0.00    -0.031 A  
ENDROOT
BRANCH   3   7
HETATM    7  C   UNL     1      -8.653   7.850  69.876  1.00  0.00    -0.139 C  
BRANCH   7   8
HETATM    8  O   UNL     1      -9.460   8.324  68.799  1.00  0.00    -0.147 OA 
BRANCH   8   9
HETATM    9  C   UNL     1     -10.776   8.796  69.152  1.00  0.00    -0.131 C  
BRANCH   9  10
HETATM   10  C   UNL     1     -11.006  10.160  68.482  1.00  0.00    -0.278 A  
HETATM   11  C   UNL     1     -11.775  12.484  68.657  1.00  0.00    -0.368 A  
HETATM   12  C   UNL     1     -10.742  10.403  67.119  1.00  0.00    -0.256 A  
HETATM   13  C   UNL     1     -11.505  11.242  69.240  1.00  0.00    -0.369 A  
HETATM   14 CL   UNL     1      -9.990   9.230  66.094  1.00  0.00    -0.360 Cl 
HETATM   15 CL   UNL     1     -11.930  14.184  66.572  1.00  0.00    -0.446 Cl 
HETATM   16  C   UNL     1     -11.047  11.636  66.526  1.00  0.00    -0.357 A  
HETATM   17  C   UNL     1     -11.566  12.668  67.298  1.00  0.00    -0.364 A  
ENDBRANCH   9  10
BRANCH   9  18
HETATM   18  C   UNL     1     -10.964   8.813  70.690  1.00  0.00    -0.238 C  
BRANCH  18  19
HETATM   19  N   UNL     1     -12.254   8.341  71.144  1.00  0.00    -0.273 NA 
HETATM   20  N   UNL     1     -13.828   6.920  71.784  1.00  0.00    -0.227 NA 
HETATM   21  C   UNL     1     -13.289   9.106  71.601  1.00  0.00    -0.383 A  
HETATM   22  C   UNL     1     -14.253   8.206  71.988  1.00  0.00    -0.398 A  
HETATM   23  C   UNL     1     -12.620   7.030  71.285  1.00  0.00    -0.373 A  
ENDBRANCH  18  19
ENDBRANCH   9  18
ENDBRANCH   8   9
ENDBRANCH   7   8
ENDBRANCH   3   7
TORSDOF 6
ENDMDL
MODEL      217
REMARK 921   NORMALIZED FREE ENERGY PREDICTED BY IDOCK:   -3.55 KCAL/MOL
REMARK 922        TOTAL FREE ENERGY PREDICTED BY IDOCK:   -5.84 KCAL/MOL
REMARK 923 INTER-LIGAND FREE ENERGY PREDICTED BY IDOCK:   -5.28 KCAL/MOL
REMARK 924 INTRA-LIGAND FREE ENERGY PREDICTED BY IDOCK:   -0.56 KCAL/MOL
REMARK 927      BINDING AFFINITY PREDICTED BY RF-SCORE:    0.00 PKD
ROOT
HETATM    1 CL   UNL     1     -10.296  10.505  63.898  1.00  0.00    -0.235 Cl 
HETATM    2  C   UNL     1     -11.193  11.829  64.538  1.00  0.00    -0.305 A  
HETATM    3  C   UNL     1     -11.579  12.015  65.848  1.00  0.00    -0.364 A  
HETATM    4  C   UNL     1     -12.272  13.272  65.972  1.00  0.00    -0.483 A  
HETATM    5  S   UNL     1     -11.663  13.072  63.490  1.00  0.00    -0.399 SA 
HETATM    6  C   UNL     1     -12.392  13.939  64.771  1.00  0.00    -0.400 A  
ENDROOT
BRANCH   3   7
HETATM    7  C   UNL     1     -11.278  11.082  66.985  1.00  0.00    -0.181 C  
BRANCH   7   8
HETATM    8  O   UNL     1      -9.878  10.825  67.077  1.00  0.00    -0.179 OA 
BRANCH   8   9
HETATM    9  C   UNL     1      -9.174  11.511  68.131  1.00  0.00    -0.181 C  
BRANCH   9  10
HETATM   10  C   UNL     1      -8.826  10.497  69.233  1.00  0.00    -0.135 A  
HETATM   11  C   UNL     1      -9.584   8.969  70.997  1.00  0.00    -0.348 A  
HETATM   12  C   UNL     1      -7.503  10.156  69.575  1.00  0.00    -0.133 A  
HETATM   13  C   UNL     1      -9.858   9.859  69.954  1.00  0.00    -0.285 A  
HETATM   14 CL   UNL     1      -6.134  10.733  68.688  1.00  0.00    -0.040 Cl 
HETATM   15 CL   UNL     1      -7.928   7.639  72.656  1.00  0.00    -0.119 Cl 
HETATM   16  C   UNL     1      -7.226   9.293  70.644  1.00  0.00    -0.120 A  
HETATM   17  C   UNL     1      -8.268   8.707  71.351  1.00  0.00    -0.160 A  
ENDBRANCH   9  10
BRANCH   9  18
HETATM   18  C   UNL     1      -9.986  12.731  68.636  1.00  0.00    -0.091 C  
BRANCH  18  19
HETATM   19  N   UNL     1      -9.545  14.006  68.111  1.00  0.00    -0.214 NA 
HETATM   20  N   UNL     1      -8.498  15.452  66.800  1.00  0.00    -0.257 NA 
HETATM   21  C   UNL     1     -10.022  15.238  68.454  1.00  0.00    -0.220 A  
HETATM   22  C   UNL     1      -9.357  16.118  67.634  1.00  0.00    -0.214 A  
HETATM   23  C   UNL     1      -8.638  14.183  67.102  1.00  0.00    -0.214 A  
ENDBRANCH  18  19
ENDBRANCH   9  18
ENDBRANCH   8   9
ENDBRANCH   7   8
ENDBRANCH   3   7
TORSDOF 6
ENDMDL
MODEL      218
REMARK 921   NORMALIZED FREE ENERGY PREDICTED BY IDOCK:   -3.55 KCAL/MOL
REMARK 922        TOTAL FREE ENERGY PREDICTED BY IDOCK:   -5.84 KCAL/MOL
REMARK 923 INTER-LIGAND FREE ENERGY PREDICTED BY IDOCK:   -5.10 KCAL/MOL
REMARK 924 INTRA-LIGAND FREE ENERGY PREDICTED BY IDOCK:   -0.74 KCAL/MOL
REMARK 927      BINDING AFFINITY PREDICTED BY RF-SCORE:    0.00 PKD
ROOT
HETATM    1 CL   UNL     1     -11.003   5.721  68.381  1.00  0.00    -0.256 Cl 
HETATM    2  C   UNL     1      -9.693   6.068  67.317  1.00  0.00    -0.125 A  
HETATM    3  C   UNL     1      -8.945   7.224  67.269  1.00  0.00    -0.126 A  
HETATM    4  C   UNL     1      -7.916   7.091  66.269  1.00  0.00    -0.114 A  
HETATM    5  S   UNL     1      -9.222   4.887  66.199  1.00  0.00    -0.155 SA 
HETATM    6  C   UNL     1      -7.959   5.879  65.612  1.00  0.00    -0.118 A  
ENDROOT
BRANCH   3   7
HETATM    7  C   UNL     1      -9.132   8.419  68.158  1.00  0.00    -0.138 C  
BRANCH   7   8
HETATM    8  O   UNL     1      -9.712   9.505  67.436  1.00  0.00    -0.147 OA 
BRANCH   8   9
HETATM    9  C   UNL     1     -10.240  10.585  68.231  1.00  0.00    -0.163 C  
BRANCH   9  10
HETATM   10  C   UNL     1      -9.599  11.901  67.763  1.00  0.00    -0.190 A  
HETATM   11  C   UNL     1      -7.817  13.571  68.002  1.00  0.00    -0.147 A  
HETATM   12  C   UNL     1     -10.148  12.705  66.744  1.00  0.00    -0.237 A  
HETATM   13  C   UNL     1      -8.405  12.355  68.363  1.00  0.00    -0.137 A  
HETATM   14 CL   UNL     1     -11.519  12.216  65.810  1.00  0.00    -0.408 Cl 
HETATM   15 CL   UNL     1      -7.719  15.882  66.618  1.00  0.00    -0.249 Cl 
HETATM   16  C   UNL     1      -9.581  13.941  66.406  1.00  0.00    -0.292 A  
HETATM   17  C   UNL     1      -8.420  14.369  67.040  1.00  0.00    -0.181 A  
ENDBRANCH   9  10
BRANCH   9  18
HETATM   18  C   UNL     1     -10.057  10.301  69.743  1.00  0.00    -0.203 C  
BRANCH  18  19
HETATM   19  N   UNL     1     -11.288  10.052  70.463  1.00  0.00    -0.310 NA 
HETATM   20  N   UNL     1     -12.751   9.008  71.758  1.00  0.00    -0.342 NA 
HETATM   21  C   UNL     1     -12.307  10.937  70.668  1.00  0.00    -0.376 A  
HETATM   22  C   UNL     1     -13.203  10.268  71.468  1.00  0.00    -0.386 A  
HETATM   23  C   UNL     1     -11.593   8.908  71.149  1.00  0.00    -0.300 A  
ENDBRANCH  18  19
ENDBRANCH   9  18
ENDBRANCH   8   9
ENDBRANCH   7   8
ENDBRANCH   3   7
TORSDOF 6
ENDMDL
MODEL      219
REMARK 921   NORMALIZED FREE ENERGY PREDICTED BY IDOCK:   -3.54 KCAL/MOL
REMARK 922        TOTAL FREE ENERGY PREDICTED BY IDOCK:   -5.83 KCAL/MOL
REMARK 923 INTER-LIGAND FREE ENERGY PREDICTED BY IDOCK:   -4.96 KCAL/MOL
REMARK 924 INTRA-LIGAND FREE ENERGY PREDICTED BY IDOCK:   -0.86 KCAL/MOL
REMARK 927      BINDING AFFINITY PREDICTED BY RF-SCORE:    0.00 PKD
ROOT
HETATM    1 CL   UNL     1     -11.613  11.694  65.539  1.00  0.00    -0.187 Cl 
HETATM    2  C   UNL     1     -11.710  12.896  66.768  1.00  0.00    -0.383 A  
HETATM    3  C   UNL     1     -11.619  12.702  68.129  1.00  0.00    -0.386 A  
HETATM    4  C   UNL     1     -11.703  13.972  68.804  1.00  0.00    -0.388 A  
HETATM    5  S   UNL     1     -11.925  14.512  66.308  1.00  0.00    -0.266 SA 
HETATM    6  C   UNL     1     -11.877  15.030  67.937  1.00  0.00    -0.218 A  
ENDROOT
BRANCH   3   7
HETATM    7  C   UNL     1     -11.407  11.380  68.808  1.00  0.00    -0.271 C  
BRANCH   7   8
HETATM    8  O   UNL     1     -10.034  11.197  69.152  1.00  0.00    -0.179 OA 
BRANCH   8   9
HETATM    9  C   UNL     1      -9.579   9.833  69.242  1.00  0.00    -0.197 C  
BRANCH   9  10
HETATM   10  C   UNL     1      -8.598   9.564  68.089  1.00  0.00    -0.120 A  
HETATM   11  C   UNL     1      -8.092   9.685  65.691  1.00  0.00    -0.117 A  
HETATM   12  C   UNL     1      -7.352   8.933  68.270  1.00  0.00    -0.083 A  
HETATM   13  C   UNL     1      -8.933   9.956  66.774  1.00  0.00    -0.155 A  
HETATM   14 CL   UNL     1      -6.731   8.529  69.833  1.00  0.00    -0.042 Cl 
HETATM   15 CL   UNL     1      -5.881   8.637  64.561  1.00  0.00    -0.063 Cl 
HETATM   16  C   UNL     1      -6.525   8.627  67.180  1.00  0.00    -0.058 A  
HETATM   17  C   UNL     1      -6.901   9.002  65.896  1.00  0.00    -0.080 A  
ENDBRANCH   9  10
BRANCH   9  18
HETATM   18  C   UNL     1     -10.776   8.851  69.288  1.00  0.00    -0.162 C  
BRANCH  18  19
HETATM   19  N   UNL     1     -10.984   8.215  70.571  1.00  0.00    -0.242 NA 
HETATM   20  N   UNL     1     -11.181   8.005  72.768  1.00  0.00    -0.400 NA 
HETATM   21  C   UNL     1     -11.433   6.944  70.789  1.00  0.00    -0.335 A  
HETATM   22  C   UNL     1     -11.543   6.835  72.155  1.00  0.00    -0.288 A  
HETATM   23  C   UNL     1     -10.859   8.821  71.792  1.00  0.00    -0.345 A  
ENDBRANCH  18  19
ENDBRANCH   9  18
ENDBRANCH   8   9
ENDBRANCH   7   8
ENDBRANCH   3   7
TORSDOF 6
ENDMDL
MODEL      220
REMARK 921   NORMALIZED FREE ENERGY PREDICTED BY IDOCK:   -3.53 KCAL/MOL
REMARK 922        TOTAL FREE ENERGY PREDICTED BY IDOCK:   -5.81 KCAL/MOL
REMARK 923 INTER-LIGAND FREE ENERGY PREDICTED BY IDOCK:   -5.78 KCAL/MOL
REMARK 924 INTRA-LIGAND FREE ENERGY PREDICTED BY IDOCK:   -0.03 KCAL/MOL
REMARK 927      BINDING AFFINITY PREDICTED BY RF-SCORE:    0.00 PKD
ROOT
HETATM    1 CL   UNL     1      -9.771  10.199  68.040  1.00  0.00    -0.156 Cl 
HETATM    2  C   UNL     1      -8.110  10.645  67.951  1.00  0.00    -0.111 A  
HETATM    3  C   UNL     1      -7.599  11.905  67.721  1.00  0.00    -0.130 A  
HETATM    4  C   UNL     1      -6.160  11.858  67.771  1.00  0.00    -0.067 A  
HETATM    5  S   UNL     1      -6.934   9.448  68.179  1.00  0.00    -0.076 SA 
HETATM    6  C   UNL     1      -5.672  10.589  68.003  1.00  0.00    -0.040 A  
ENDROOT
BRANCH   3   7
HETATM    7  C   UNL     1      -8.413  13.148  67.508  1.00  0.00    -0.198 C  
BRANCH   7   8
HETATM    8  O   UNL     1      -8.949  13.625  68.741  1.00  0.00    -0.075 OA 
BRANCH   8   9
HETATM    9  C   UNL     1     -10.375  13.827  68.777  1.00  0.00    -0.192 C  
BRANCH   9  10
HETATM   10  C   UNL     1     -10.914  13.798  67.338  1.00  0.00    -0.296 A  
HETATM   11  C   UNL     1     -12.059  12.572  65.548  1.00  0.00    -0.481 A  
HETATM   12  C   UNL     1     -10.760  14.871  66.437  1.00  0.00    -0.316 A  
HETATM   13  C   UNL     1     -11.599  12.658  66.865  1.00  0.00    -0.438 A  
HETATM   14 CL   UNL     1     -10.080  16.390  66.906  1.00  0.00    -0.274 Cl 
HETATM   15 CL   UNL     1     -12.367  13.504  63.037  1.00  0.00    -0.103 Cl 
HETATM   16  C   UNL     1     -11.188  14.771  65.106  1.00  0.00    -0.384 A  
HETATM   17  C   UNL     1     -11.832  13.621  64.668  1.00  0.00    -0.397 A  
ENDBRANCH   9  10
BRANCH   9  18
HETATM   18  C   UNL     1     -10.732  15.119  69.555  1.00  0.00    -0.266 C  
BRANCH  18  19
HETATM   19  N   UNL     1     -11.577  14.911  70.712  1.00  0.00    -0.294 NA 
HETATM   20  N   UNL     1     -12.878  13.854  72.160  1.00  0.00    -0.319 NA 
HETATM   21  C   UNL     1     -11.764  15.777  71.751  1.00  0.00    -0.478 A  
HETATM   22  C   UNL     1     -12.576  15.103  72.633  1.00  0.00    -0.375 A  
HETATM   23  C   UNL     1     -12.256  13.761  71.008  1.00  0.00    -0.319 A  
ENDBRANCH  18  19
ENDBRANCH   9  18
ENDBRANCH   8   9
ENDBRANCH   7   8
ENDBRANCH   3   7
TORSDOF 6
ENDMDL
MODEL      221
REMARK 921   NORMALIZED FREE ENERGY PREDICTED BY IDOCK:   -3.52 KCAL/MOL
REMARK 922        TOTAL FREE ENERGY PREDICTED BY IDOCK:   -5.80 KCAL/MOL
REMARK 923 INTER-LIGAND FREE ENERGY PREDICTED BY IDOCK:   -4.99 KCAL/MOL
REMARK 924 INTRA-LIGAND FREE ENERGY PREDICTED BY IDOCK:   -0.81 KCAL/MOL
REMARK 927      BINDING AFFINITY PREDICTED BY RF-SCORE:    0.00 PKD
ROOT
HETATM    1 CL   UNL     1      -9.544   4.575  70.116  1.00  0.00    -0.245 Cl 
HETATM    2  C   UNL     1      -9.771   4.416  68.416  1.00  0.00    -0.105 A  
HETATM    3  C   UNL     1     -10.469   5.268  67.588  1.00  0.00    -0.176 A  
HETATM    4  C   UNL     1     -10.378   4.800  66.228  1.00  0.00    -0.329 A  
HETATM    5  S   UNL     1      -9.067   3.096  67.624  1.00  0.00    -0.193 SA 
HETATM    6  C   UNL     1      -9.654   3.632  66.110  1.00  0.00    -0.129 A  
ENDROOT
BRANCH   3   7
HETATM    7  C   UNL     1     -11.171   6.522  68.021  1.00  0.00    -0.148 C  
BRANCH   7   8
HETATM    8  O   UNL     1     -10.801   7.625  67.195  1.00  0.00    -0.317 OA 
BRANCH   8   9
HETATM    9  C   UNL     1      -9.859   8.556  67.763  1.00  0.00    -0.175 C  
BRANCH   9  10
HETATM   10  C   UNL     1     -10.625   9.554  68.647  1.00  0.00    -0.239 A  
HETATM   11  C   UNL     1     -11.949  11.612  68.829  1.00  0.00    -0.326 A  
HETATM   12  C   UNL     1     -10.711   9.434  70.048  1.00  0.00    -0.239 A  
HETATM   13  C   UNL     1     -11.284  10.655  68.057  1.00  0.00    -0.373 A  
HETATM   14 CL   UNL     1     -10.088   8.066  70.904  1.00  0.00    -0.204 Cl 
HETATM   15 CL   UNL     1     -12.744  12.693  71.166  1.00  0.00    -0.413 Cl 
HETATM   16  C   UNL     1     -11.345  10.412  70.826  1.00  0.00    -0.370 A  
HETATM   17  C   UNL     1     -11.957  11.498  70.212  1.00  0.00    -0.368 A  
ENDBRANCH   9  10
BRANCH   9  18
HETATM   18  C   UNL     1      -9.005   9.224  66.658  1.00  0.00    -0.140 C  
BRANCH  18  19
HETATM   19  N   UNL     1      -8.033  10.181  67.143  1.00  0.00    -0.109 NA 
HETATM   20  N   UNL     1      -6.301  10.978  68.271  1.00  0.00    -0.056 NA 
HETATM   21  C   UNL     1      -7.829  11.447  66.674  1.00  0.00    -0.137 A  
HETATM   22  C   UNL     1      -6.755  11.922  67.390  1.00  0.00    -0.126 A  
HETATM   23  C   UNL     1      -7.081   9.937  68.095  1.00  0.00    -0.077 A  
ENDBRANCH  18  19
ENDBRANCH   9  18
ENDBRANCH   8   9
ENDBRANCH   7   8
ENDBRANCH   3   7
TORSDOF 6
ENDMDL
MODEL      222
REMARK 921   NORMALIZED FREE ENERGY PREDICTED BY IDOCK:   -3.52 KCAL/MOL
REMARK 922        TOTAL FREE ENERGY PREDICTED BY IDOCK:   -5.79 KCAL/MOL
REMARK 923 INTER-LIGAND FREE ENERGY PREDICTED BY IDOCK:   -4.75 KCAL/MOL
REMARK 924 INTRA-LIGAND FREE ENERGY PREDICTED BY IDOCK:   -1.05 KCAL/MOL
REMARK 927      BINDING AFFINITY PREDICTED BY RF-SCORE:    0.00 PKD
ROOT
HETATM    1 CL   UNL     1      -7.196   6.541  72.965  1.00  0.00    -0.081 Cl 
HETATM    2  C   UNL     1      -8.538   5.561  73.419  1.00  0.00    -0.115 A  
HETATM    3  C   UNL     1      -9.821   5.984  73.692  1.00  0.00    -0.180 A  
HETATM    4  C   UNL     1     -10.652   4.844  73.986  1.00  0.00    -0.350 A  
HETATM    5  S   UNL     1      -8.316   3.887  73.540  1.00  0.00    -0.088 SA 
HETATM    6  C   UNL     1      -9.961   3.651  73.945  1.00  0.00    -0.118 A  
ENDROOT
BRANCH   3   7
HETATM    7  C   UNL     1     -10.298   7.406  73.640  1.00  0.00    -0.316 C  
BRANCH   7   8
HETATM    8  O   UNL     1     -10.034   7.986  72.363  1.00  0.00    -0.204 OA 
BRANCH   8   9
HETATM    9  C   UNL     1     -10.445   7.213  71.217  1.00  0.00    -0.205 C  
BRANCH   9  10
HETATM   10  C   UNL     1      -9.343   7.292  70.149  1.00  0.00    -0.155 A  
HETATM   11  C   UNL     1      -7.576   8.589  69.045  1.00  0.00    -0.094 A  
HETATM   12  C   UNL     1      -9.066   6.243  69.250  1.00  0.00    -0.134 A  
HETATM   13  C   UNL     1      -8.554   8.457  70.036  1.00  0.00    -0.131 A  
HETATM   14 CL   UNL     1      -9.839   4.699  69.355  1.00  0.00    -0.276 Cl 
HETATM   15 CL   UNL     1      -6.196   7.734  66.894  1.00  0.00    -0.052 Cl 
HETATM   16  C   UNL     1      -8.112   6.388  68.233  1.00  0.00    -0.113 A  
HETATM   17  C   UNL     1      -7.375   7.561  68.135  1.00  0.00    -0.096 A  
ENDBRANCH   9  10
BRANCH   9  18
HETATM   18  C   UNL     1     -11.839   7.666  70.715  1.00  0.00    -0.205 C  
BRANCH  18  19
HETATM   19  N   UNL     1     -12.180   9.035  71.037  1.00  0.00    -0.265 NA 
HETATM   20  N   UNL     1     -12.302  11.238  70.835  1.00  0.00    -0.387 NA 
HETATM   21  C   UNL     1     -13.036   9.456  72.014  1.00  0.00    -0.423 A  
HETATM   22  C   UNL     1     -13.093  10.822  71.873  1.00  0.00    -0.451 A  
HETATM   23  C   UNL     1     -11.772  10.143  70.344  1.00  0.00    -0.308 A  
ENDBRANCH  18  19
ENDBRANCH   9  18
ENDBRANCH   8   9
ENDBRANCH   7   8
ENDBRANCH   3   7
TORSDOF 6
ENDMDL
MODEL      223
REMARK 921   NORMALIZED FREE ENERGY PREDICTED BY IDOCK:   -3.51 KCAL/MOL
REMARK 922        TOTAL FREE ENERGY PREDICTED BY IDOCK:   -5.79 KCAL/MOL
REMARK 923 INTER-LIGAND FREE ENERGY PREDICTED BY IDOCK:   -4.77 KCAL/MOL
REMARK 924 INTRA-LIGAND FREE ENERGY PREDICTED BY IDOCK:   -1.02 KCAL/MOL
REMARK 927      BINDING AFFINITY PREDICTED BY RF-SCORE:    0.00 PKD
ROOT
HETATM    1 CL   UNL     1     -12.538   6.892  70.677  1.00  0.00    -0.230 Cl 
HETATM    2  C   UNL     1     -11.157   7.230  71.650  1.00  0.00    -0.233 A  
HETATM    3  C   UNL     1     -10.381   8.368  71.623  1.00  0.00    -0.312 A  
HETATM    4  C   UNL     1      -9.352   8.273  72.627  1.00  0.00    -0.350 A  
HETATM    5  S   UNL     1     -10.667   6.079  72.791  1.00  0.00    -0.252 SA 
HETATM    6  C   UNL     1      -9.390   7.084  73.324  1.00  0.00    -0.153 A  
ENDROOT
BRANCH   3   7
HETATM    7  C   UNL     1     -10.602   9.552  70.727  1.00  0.00    -0.317 C  
BRANCH   7   8
HETATM    8  O   UNL     1      -9.423   9.856  69.983  1.00  0.00    -0.231 OA 
BRANCH   8   9
HETATM    9  C   UNL     1      -9.520   9.709  68.552  1.00  0.00    -0.141 C  
BRANCH   9  10
HETATM   10  C   UNL     1      -8.669   8.503  68.121  1.00  0.00    -0.142 A  
HETATM   11  C   UNL     1      -6.455   7.472  67.881  1.00  0.00    -0.054 A  
HETATM   12  C   UNL     1      -9.218   7.344  67.538  1.00  0.00    -0.130 A  
HETATM   13  C   UNL     1      -7.270   8.527  68.305  1.00  0.00    -0.086 A  
HETATM   14 CL   UNL     1     -10.923   7.097  67.384  1.00  0.00    -0.330 Cl 
HETATM   15 CL   UNL     1      -6.020   5.091  66.696  1.00  0.00    -0.022 Cl 
HETATM   16  C   UNL     1      -8.400   6.302  67.079  1.00  0.00    -0.109 A  
HETATM   17  C   UNL     1      -7.023   6.374  67.250  1.00  0.00    -0.072 A  
ENDBRANCH   9  10
BRANCH   9  18
HETATM   18  C   UNL     1      -9.144  11.030  67.834  1.00  0.00    -0.147 C  
BRANCH  18  19
HETATM   19  N   UNL     1     -10.270  11.877  67.504  1.00  0.00    -0.195 NA 
HETATM   20  N   UNL     1     -11.856  12.826  66.283  1.00  0.00    -0.411 NA 
HETATM   21  C   UNL     1     -11.061  12.562  68.381  1.00  0.00    -0.258 A  
HETATM   22  C   UNL     1     -12.033  13.145  67.603  1.00  0.00    -0.315 A  
HETATM   23  C   UNL     1     -10.795  12.055  66.253  1.00  0.00    -0.279 A  
ENDBRANCH  18  19
ENDBRANCH   9  18
ENDBRANCH   8   9
ENDBRANCH   7   8
ENDBRANCH   3   7
TORSDOF 6
ENDMDL
MODEL      224
REMARK 921   NORMALIZED FREE ENERGY PREDICTED BY IDOCK:   -3.50 KCAL/MOL
REMARK 922        TOTAL FREE ENERGY PREDICTED BY IDOCK:   -5.77 KCAL/MOL
REMARK 923 INTER-LIGAND FREE ENERGY PREDICTED BY IDOCK:   -5.21 KCAL/MOL
REMARK 924 INTRA-LIGAND FREE ENERGY PREDICTED BY IDOCK:   -0.55 KCAL/MOL
REMARK 927      BINDING AFFINITY PREDICTED BY RF-SCORE:    0.00 PKD
ROOT
HETATM    1 CL   UNL     1     -11.347  13.640  67.364  1.00  0.00    -0.323 Cl 
HETATM    2  C   UNL     1     -10.881  12.560  66.105  1.00  0.00    -0.272 A  
HETATM    3  C   UNL     1     -10.609  11.214  66.224  1.00  0.00    -0.309 A  
HETATM    4  C   UNL     1     -10.303  10.669  64.926  1.00  0.00    -0.347 A  
HETATM    5  S   UNL     1     -10.745  13.162  64.529  1.00  0.00    -0.414 SA 
HETATM    6  C   UNL     1     -10.335  11.616  63.924  1.00  0.00    -0.369 A  
ENDROOT
BRANCH   3   7
HETATM    7  C   UNL     1     -10.674  10.422  67.496  1.00  0.00    -0.287 C  
BRANCH   7   8
HETATM    8  O   UNL     1      -9.473   9.677  67.696  1.00  0.00    -0.133 OA 
BRANCH   8   9
HETATM    9  C   UNL     1      -9.455   8.795  68.835  1.00  0.00    -0.145 C  
BRANCH   9  10
HETATM   10  C   UNL     1      -8.799   7.468  68.420  1.00  0.00    -0.126 A  
HETATM   11  C   UNL     1      -6.879   5.945  68.543  1.00  0.00    -0.070 A  
HETATM   12  C   UNL     1      -9.404   6.555  67.534  1.00  0.00    -0.122 A  
HETATM   13  C   UNL     1      -7.532   7.118  68.934  1.00  0.00    -0.099 A  
HETATM   14 CL   UNL     1     -11.014   6.765  66.937  1.00  0.00    -0.440 Cl 
HETATM   15 CL   UNL     1      -6.661   3.674  67.107  1.00  0.00    -0.041 Cl 
HETATM   16  C   UNL     1      -8.736   5.397  67.112  1.00  0.00    -0.107 A  
HETATM   17  C   UNL     1      -7.476   5.101  67.617  1.00  0.00    -0.083 A  
ENDBRANCH   9  10
BRANCH   9  18
HETATM   18  C   UNL     1     -10.874   8.633  69.433  1.00  0.00    -0.095 C  
BRANCH  18  19
HETATM   19  N   UNL     1     -10.900   8.280  70.837  1.00  0.00    -0.225 NA 
HETATM   20  N   UNL     1     -10.251   8.159  72.951  1.00  0.00    -0.306 NA 
HETATM   21  C   UNL     1     -11.946   7.728  71.520  1.00  0.00    -0.300 A  
HETATM   22  C   UNL     1     -11.519   7.658  72.825  1.00  0.00    -0.332 A  
HETATM   23  C   UNL     1      -9.906   8.534  71.742  1.00  0.00    -0.269 A  
ENDBRANCH  18  19
ENDBRANCH   9  18
ENDBRANCH   8   9
ENDBRANCH   7   8
ENDBRANCH   3   7
TORSDOF 6
ENDMDL
MODEL      225
REMARK 921   NORMALIZED FREE ENERGY PREDICTED BY IDOCK:   -3.47 KCAL/MOL
REMARK 922        TOTAL FREE ENERGY PREDICTED BY IDOCK:   -5.73 KCAL/MOL
REMARK 923 INTER-LIGAND FREE ENERGY PREDICTED BY IDOCK:   -5.62 KCAL/MOL
REMARK 924 INTRA-LIGAND FREE ENERGY PREDICTED BY IDOCK:   -0.11 KCAL/MOL
REMARK 927      BINDING AFFINITY PREDICTED BY RF-SCORE:    0.00 PKD
ROOT
HETATM    1 CL   UNL     1     -12.245  13.077  70.028  1.00  0.00    -0.345 Cl 
HETATM    2  C   UNL     1     -12.206  11.465  70.635  1.00  0.00    -0.389 A  
HETATM    3  C   UNL     1     -11.523  10.393  70.103  1.00  0.00    -0.396 A  
HETATM    4  C   UNL     1     -11.716   9.236  70.939  1.00  0.00    -0.360 A  
HETATM    5  S   UNL     1     -13.071  11.109  72.047  1.00  0.00    -0.121 SA 
HETATM    6  C   UNL     1     -12.538   9.485  72.019  1.00  0.00    -0.376 A  
ENDROOT
BRANCH   3   7
HETATM    7  C   UNL     1     -10.664  10.432  68.873  1.00  0.00    -0.224 C  
BRANCH   7   8
HETATM    8  O   UNL     1     -11.269   9.707  67.804  1.00  0.00    -0.142 OA 
BRANCH   8   9
HETATM    9  C   UNL     1     -10.419   8.774  67.108  1.00  0.00    -0.283 C  
BRANCH   9  10
HETATM   10  C   UNL     1     -10.062   7.625  68.064  1.00  0.00    -0.226 A  
HETATM   11  C   UNL     1     -10.772   5.640  69.320  1.00  0.00    -0.350 A  
HETATM   12  C   UNL     1      -8.780   7.462  68.627  1.00  0.00    -0.128 A  
HETATM   13  C   UNL     1     -11.041   6.671  68.415  1.00  0.00    -0.281 A  
HETATM   14 CL   UNL     1      -7.435   8.454  68.182  1.00  0.00    -0.095 Cl 
HETATM   15 CL   UNL     1      -9.193   4.302  71.046  1.00  0.00    -0.189 Cl 
HETATM   16  C   UNL     1      -8.519   6.451  69.563  1.00  0.00    -0.133 A  
HETATM   17  C   UNL     1      -9.517   5.549  69.906  1.00  0.00    -0.157 A  
ENDBRANCH   9  10
BRANCH   9  18
HETATM   18  C   UNL     1      -9.187   9.493  66.504  1.00  0.00    -0.160 C  
BRANCH  18  19
HETATM   19  N   UNL     1      -9.402  10.055  65.187  1.00  0.00    -0.224 NA 
HETATM   20  N   UNL     1      -9.118  10.412  63.020  1.00  0.00    -0.237 NA 
HETATM   21  C   UNL     1     -10.456  10.828  64.792  1.00  0.00    -0.265 A  
HETATM   22  C   UNL     1     -10.257  11.040  63.449  1.00  0.00    -0.346 A  
HETATM   23  C   UNL     1      -8.629   9.819  64.083  1.00  0.00    -0.194 A  
ENDBRANCH  18  19
ENDBRANCH   9  18
ENDBRANCH   8   9
ENDBRANCH   7   8
ENDBRANCH   3   7
TORSDOF 6
ENDMDL
MODEL      226
REMARK 921   NORMALIZED FREE ENERGY PREDICTED BY IDOCK:   -3.46 KCAL/MOL
REMARK 922        TOTAL FREE ENERGY PREDICTED BY IDOCK:   -5.71 KCAL/MOL
REMARK 923 INTER-LIGAND FREE ENERGY PREDICTED BY IDOCK:   -5.70 KCAL/MOL
REMARK 924 INTRA-LIGAND FREE ENERGY PREDICTED BY IDOCK:   -0.02 KCAL/MOL
REMARK 927      BINDING AFFINITY PREDICTED BY RF-SCORE:    0.00 PKD
ROOT
HETATM    1 CL   UNL     1     -11.904  14.590  69.066  1.00  0.00    -0.349 Cl 
HETATM    2  C   UNL     1     -12.247  13.224  70.058  1.00  0.00    -0.275 A  
HETATM    3  C   UNL     1     -11.909  11.911  69.810  1.00  0.00    -0.411 A  
HETATM    4  C   UNL     1     -12.339  11.086  70.910  1.00  0.00    -0.503 A  
HETATM    5  S   UNL     1     -13.072  13.467  71.517  1.00  0.00    -0.297 SA 
HETATM    6  C   UNL     1     -12.987  11.801  71.896  1.00  0.00    -0.330 A  
ENDROOT
BRANCH   3   7
HETATM    7  C   UNL     1     -11.160  11.418  68.607  1.00  0.00    -0.236 C  
BRANCH   7   8
HETATM    8  O   UNL     1      -9.752  11.572  68.783  1.00  0.00    -0.196 OA 
BRANCH   8   9
HETATM    9  C   UNL     1      -8.963  11.621  67.578  1.00  0.00    -0.165 C  
BRANCH   9  10
HETATM   10  C   UNL     1      -9.521  12.728  66.669  1.00  0.00    -0.249 A  
HETATM   11  C   UNL     1      -9.770  15.120  66.181  1.00  0.00    -0.338 A  
HETATM   12  C   UNL     1     -10.318  12.465  65.537  1.00  0.00    -0.271 A  
HETATM   13  C   UNL     1      -9.240  14.082  66.953  1.00  0.00    -0.271 A  
HETATM   14 CL   UNL     1     -10.627  10.861  64.969  1.00  0.00    -0.329 Cl 
HETATM   15 CL   UNL     1     -11.286  16.103  64.181  1.00  0.00    -0.182 Cl 
HETATM   16  C   UNL     1     -10.880  13.505  64.784  1.00  0.00    -0.392 A  
HETATM   17  C   UNL     1     -10.605  14.827  65.113  1.00  0.00    -0.417 A  
ENDBRANCH   9  10
BRANCH   9  18
HETATM   18  C   UNL     1      -8.896  10.229  66.903  1.00  0.00    -0.132 C  
BRANCH  18  19
HETATM   19  N   UNL     1      -7.577   9.841  66.452  1.00  0.00    -0.098 NA 
HETATM   20  N   UNL     1      -5.389   9.500  66.509  1.00  0.00    -0.044 NA 
HETATM   21  C   UNL     1      -7.273   9.149  65.314  1.00  0.00    -0.089 A  
HETATM   22  C   UNL     1      -5.914   8.954  65.369  1.00  0.00    -0.052 A  
HETATM   23  C   UNL     1      -6.412  10.019  67.147  1.00  0.00    -0.069 A  
ENDBRANCH  18  19
ENDBRANCH   9  18
ENDBRANCH   8   9
ENDBRANCH   7   8
ENDBRANCH   3   7
TORSDOF 6
ENDMDL
MODEL      227
REMARK 921   NORMALIZED FREE ENERGY PREDICTED BY IDOCK:   -3.43 KCAL/MOL
REMARK 922        TOTAL FREE ENERGY PREDICTED BY IDOCK:   -5.68 KCAL/MOL
REMARK 923 INTER-LIGAND FREE ENERGY PREDICTED BY IDOCK:   -4.90 KCAL/MOL
REMARK 924 INTRA-LIGAND FREE ENERGY PREDICTED BY IDOCK:   -0.78 KCAL/MOL
REMARK 927      BINDING AFFINITY PREDICTED BY RF-SCORE:    0.00 PKD
ROOT
HETATM    1 CL   UNL     1      -6.036  13.974  70.555  1.00  0.00    -0.174 Cl 
HETATM    2  C   UNL     1      -6.780  14.770  69.221  1.00  0.00    -0.137 A  
HETATM    3  C   UNL     1      -7.622  14.211  68.285  1.00  0.00    -0.130 A  
HETATM    4  C   UNL     1      -8.063  15.229  67.365  1.00  0.00    -0.205 A  
HETATM    5  S   UNL     1      -6.492  16.424  69.000  1.00  0.00    -0.183 SA 
HETATM    6  C   UNL     1      -7.521  16.468  67.635  1.00  0.00    -0.144 A  
ENDROOT
BRANCH   3   7
HETATM    7  C   UNL     1      -8.061  12.776  68.255  1.00  0.00    -0.154 C  
BRANCH   7   8
HETATM    8  O   UNL     1      -9.426  12.668  67.853  1.00  0.00    -0.191 OA 
BRANCH   8   9
HETATM    9  C   UNL     1      -9.991  11.342  67.874  1.00  0.00    -0.177 C  
BRANCH   9  10
HETATM   10  C   UNL     1      -9.540  10.595  66.609  1.00  0.00    -0.209 A  
HETATM   11  C   UNL     1      -9.483  10.456  64.159  1.00  0.00    -0.353 A  
HETATM   12  C   UNL     1      -8.836   9.375  66.645  1.00  0.00    -0.135 A  
HETATM   13  C   UNL     1      -9.831  11.129  65.334  1.00  0.00    -0.289 A  
HETATM   14 CL   UNL     1      -8.274   8.668  68.120  1.00  0.00    -0.115 Cl 
HETATM   15 CL   UNL     1      -8.451   8.378  62.789  1.00  0.00    -0.133 Cl 
HETATM   16  C   UNL     1      -8.520   8.681  65.469  1.00  0.00    -0.181 A  
HETATM   17  C   UNL     1      -8.849   9.224  64.233  1.00  0.00    -0.148 A  
ENDBRANCH   9  10
BRANCH   9  18
HETATM   18  C   UNL     1     -11.528  11.398  68.056  1.00  0.00    -0.307 C  
BRANCH  18  19
HETATM   19  N   UNL     1     -11.971  11.441  69.433  1.00  0.00    -0.336 NA 
HETATM   20  N   UNL     1     -12.623  12.295  71.370  1.00  0.00    -0.266 NA 
HETATM   21  C   UNL     1     -12.385  10.383  70.190  1.00  0.00    -0.208 A  
HETATM   22  C   UNL     1     -12.779  10.934  71.386  1.00  0.00    -0.434 A  
HETATM   23  C   UNL     1     -12.144  12.573  70.180  1.00  0.00    -0.292 A  
ENDBRANCH  18  19
ENDBRANCH   9  18
ENDBRANCH   8   9
ENDBRANCH   7   8
ENDBRANCH   3   7
TORSDOF 6
ENDMDL
MODEL      228
REMARK 921   NORMALIZED FREE ENERGY PREDICTED BY IDOCK:   -3.42 KCAL/MOL
REMARK 922        TOTAL FREE ENERGY PREDICTED BY IDOCK:   -5.66 KCAL/MOL
REMARK 923 INTER-LIGAND FREE ENERGY PREDICTED BY IDOCK:   -4.78 KCAL/MOL
REMARK 924 INTRA-LIGAND FREE ENERGY PREDICTED BY IDOCK:   -0.88 KCAL/MOL
REMARK 927      BINDING AFFINITY PREDICTED BY RF-SCORE:    0.00 PKD
ROOT
HETATM    1 CL   UNL     1      -8.096   4.166  69.919  1.00  0.00    -0.056 Cl 
HETATM    2  C   UNL     1      -7.569   5.241  71.158  1.00  0.00    -0.096 A  
HETATM    3  C   UNL     1      -7.519   6.616  71.098  1.00  0.00    -0.084 A  
HETATM    4  C   UNL     1      -7.064   7.137  72.362  1.00  0.00    -0.068 A  
HETATM    5  S   UNL     1      -7.064   4.588  72.636  1.00  0.00    -0.073 SA 
HETATM    6  C   UNL     1      -6.777   6.147  73.279  1.00  0.00    -0.075 A  
ENDROOT
BRANCH   3   7
HETATM    7  C   UNL     1      -7.927   7.452  69.921  1.00  0.00    -0.121 C  
BRANCH   7   8
HETATM    8  O   UNL     1      -9.070   8.248  70.231  1.00  0.00    -0.147 OA 
BRANCH   8   9
HETATM    9  C   UNL     1     -10.272   7.947  69.494  1.00  0.00    -0.208 C  
BRANCH   9  10
HETATM   10  C   UNL     1     -10.481   9.034  68.428  1.00  0.00    -0.234 A  
HETATM   11  C   UNL     1     -10.407   9.703  66.068  1.00  0.00    -0.160 A  
HETATM   12  C   UNL     1     -10.874  10.351  68.738  1.00  0.00    -0.232 A  
HETATM   13  C   UNL     1     -10.277   8.731  67.064  1.00  0.00    -0.351 A  
HETATM   14 CL   UNL     1     -11.308  10.841  70.339  1.00  0.00    -0.374 Cl 
HETATM   15 CL   UNL     1     -10.859  12.213  65.196  1.00  0.00    -0.330 Cl 
HETATM   16  C   UNL     1     -10.969  11.336  67.745  1.00  0.00    -0.305 A  
HETATM   17  C   UNL     1     -10.732  11.007  66.416  1.00  0.00    -0.227 A  
ENDBRANCH   9  10
BRANCH   9  18
HETATM   18  C   UNL     1     -11.477   7.767  70.451  1.00  0.00    -0.158 C  
BRANCH  18  19
HETATM   19  N   UNL     1     -11.154   7.144  71.716  1.00  0.00    -0.233 NA 
HETATM   20  N   UNL     1     -10.662   5.544  73.168  1.00  0.00    -0.247 NA 
HETATM   21  C   UNL     1     -10.817   7.780  72.877  1.00  0.00    -0.392 A  
HETATM   22  C   UNL     1     -10.522   6.770  73.762  1.00  0.00    -0.354 A  
HETATM   23  C   UNL     1     -11.034   5.799  71.936  1.00  0.00    -0.259 A  
ENDBRANCH  18  19
ENDBRANCH   9  18
ENDBRANCH   8   9
ENDBRANCH   7   8
ENDBRANCH   3   7
TORSDOF 6
ENDMDL
MODEL      229
REMARK 921   NORMALIZED FREE ENERGY PREDICTED BY IDOCK:   -3.42 KCAL/MOL
REMARK 922        TOTAL FREE ENERGY PREDICTED BY IDOCK:   -5.66 KCAL/MOL
REMARK 923 INTER-LIGAND FREE ENERGY PREDICTED BY IDOCK:   -4.75 KCAL/MOL
REMARK 924 INTRA-LIGAND FREE ENERGY PREDICTED BY IDOCK:   -0.91 KCAL/MOL
REMARK 927      BINDING AFFINITY PREDICTED BY RF-SCORE:    0.00 PKD
ROOT
HETATM    1 CL   UNL     1      -7.266   8.216  68.142  1.00  0.00    -0.092 Cl 
HETATM    2  C   UNL     1      -8.169   8.426  69.593  1.00  0.00    -0.117 A  
HETATM    3  C   UNL     1      -9.220   9.293  69.800  1.00  0.00    -0.191 A  
HETATM    4  C   UNL     1      -9.727   9.125  71.137  1.00  0.00    -0.360 A  
HETATM    5  S   UNL     1      -7.774   7.477  70.939  1.00  0.00    -0.091 SA 
HETATM    6  C   UNL     1      -9.031   8.180  71.861  1.00  0.00    -0.167 A  
ENDROOT
BRANCH   3   7
HETATM    7  C   UNL     1      -9.789  10.230  68.775  1.00  0.00    -0.180 C  
BRANCH   7   8
HETATM    8  O   UNL     1     -10.132  11.484  69.365  1.00  0.00     0.034 OA 
BRANCH   8   9
HETATM    9  C   UNL     1     -11.379  12.066  68.938  1.00  0.00    -0.278 C  
BRANCH   9  10
HETATM   10  C   UNL     1     -11.081  13.373  68.186  1.00  0.00    -0.284 A  
HETATM   11  C   UNL     1     -10.328  15.708  68.248  1.00  0.00    -0.244 A  
HETATM   12  C   UNL     1     -11.298  13.532  66.803  1.00  0.00    -0.328 A  
HETATM   13  C   UNL     1     -10.565  14.486  68.885  1.00  0.00    -0.249 A  
HETATM   14 CL   UNL     1     -11.781  12.223  65.780  1.00  0.00    -0.454 Cl 
HETATM   15 CL   UNL     1     -10.358  17.360  66.119  1.00  0.00    -0.357 Cl 
HETATM   16  C   UNL     1     -11.096  14.766  66.171  1.00  0.00    -0.339 A  
HETATM   17  C   UNL     1     -10.616  15.848  66.898  1.00  0.00    -0.309 A  
ENDBRANCH   9  10
BRANCH   9  18
HETATM   18  C   UNL     1     -12.348  12.238  70.135  1.00  0.00    -0.138 C  
BRANCH  18  19
HETATM   19  N   UNL     1     -12.753  11.000  70.764  1.00  0.00    -0.339 NA 
HETATM   20  N   UNL     1     -13.369   9.599  72.366  1.00  0.00    -0.401 NA 
HETATM   21  C   UNL     1     -13.124   9.847  70.134  1.00  0.00     0.430 A  
HETATM   22  C   UNL     1     -13.497   8.993  71.145  1.00  0.00    -0.098 A  
HETATM   23  C   UNL     1     -12.929  10.808  72.108  1.00  0.00    -0.195 A  
ENDBRANCH  18  19
ENDBRANCH   9  18
ENDBRANCH   8   9
ENDBRANCH   7   8
ENDBRANCH   3   7
TORSDOF 6
ENDMDL
MODEL      230
REMARK 921   NORMALIZED FREE ENERGY PREDICTED BY IDOCK:   -3.40 KCAL/MOL
REMARK 922        TOTAL FREE ENERGY PREDICTED BY IDOCK:   -5.64 KCAL/MOL
REMARK 923 INTER-LIGAND FREE ENERGY PREDICTED BY IDOCK:   -5.89 KCAL/MOL
REMARK 924 INTRA-LIGAND FREE ENERGY PREDICTED BY IDOCK:    0.25 KCAL/MOL
REMARK 927      BINDING AFFINITY PREDICTED BY RF-SCORE:    0.00 PKD
ROOT
HETATM    1 CL   UNL     1     -11.250  15.299  68.799  1.00  0.00    -0.272 Cl 
HETATM    2  C   UNL     1     -11.968  14.220  69.934  1.00  0.00    -0.339 A  
HETATM    3  C   UNL     1     -11.913  12.843  69.921  1.00  0.00    -0.377 A  
HETATM    4  C   UNL     1     -12.604  12.323  71.073  1.00  0.00    -0.352 A  
HETATM    5  S   UNL     1     -12.832  14.871  71.236  1.00  0.00    -0.382 SA 
HETATM    6  C   UNL     1     -13.152  13.312  71.862  1.00  0.00    -0.388 A  
ENDROOT
BRANCH   3   7
HETATM    7  C   UNL     1     -11.199  12.010  68.897  1.00  0.00    -0.261 C  
BRANCH   7   8
HETATM    8  O   UNL     1      -9.784  12.108  69.057  1.00  0.00     0.044 OA 
BRANCH   8   9
HETATM    9  C   UNL     1      -8.988  11.696  67.928  1.00  0.00    -0.170 C  
BRANCH   9  10
HETATM   10  C   UNL     1      -9.712  12.110  66.637  1.00  0.00    -0.228 A  
HETATM   11  C   UNL     1     -10.451  13.895  65.124  1.00  0.00    -0.409 A  
HETATM   12  C   UNL     1     -10.348  11.189  65.782  1.00  0.00    -0.260 A  
HETATM   13  C   UNL     1      -9.760  13.471  66.263  1.00  0.00    -0.287 A  
HETATM   14 CL   UNL     1     -10.251   9.479  66.019  1.00  0.00    -0.307 Cl 
HETATM   15 CL   UNL     1     -12.003  13.490  62.957  1.00  0.00    -0.035 Cl 
HETATM   16  C   UNL     1     -11.073  11.616  64.660  1.00  0.00    -0.342 A  
HETATM   17  C   UNL     1     -11.123  12.967  64.340  1.00  0.00    -0.370 A  
ENDBRANCH   9  10
BRANCH   9  18
HETATM   18  C   UNL     1      -8.658  10.184  68.005  1.00  0.00    -0.118 C  
BRANCH  18  19
HETATM   19  N   UNL     1      -8.426   9.685  69.343  1.00  0.00    -0.142 NA 
HETATM   20  N   UNL     1      -7.407   9.371  71.285  1.00  0.00    -0.331 NA 
HETATM   21  C   UNL     1      -9.320   9.022  70.134  1.00  0.00    -0.192 A  
HETATM   22  C   UNL     1      -8.666   8.834  71.329  1.00  0.00    -0.215 A  
HETATM   23  C   UNL     1      -7.292   9.885  70.083  1.00  0.00    -0.160 A  
ENDBRANCH  18  19
ENDBRANCH   9  18
ENDBRANCH   8   9
ENDBRANCH   7   8
ENDBRANCH   3   7
TORSDOF 6
ENDMDL
MODEL      231
REMARK 921   NORMALIZED FREE ENERGY PREDICTED BY IDOCK:   -3.38 KCAL/MOL
REMARK 922        TOTAL FREE ENERGY PREDICTED BY IDOCK:   -5.61 KCAL/MOL
REMARK 923 INTER-LIGAND FREE ENERGY PREDICTED BY IDOCK:   -4.76 KCAL/MOL
REMARK 924 INTRA-LIGAND FREE ENERGY PREDICTED BY IDOCK:   -0.85 KCAL/MOL
REMARK 927      BINDING AFFINITY PREDICTED BY RF-SCORE:    0.00 PKD
ROOT
HETATM    1 CL   UNL     1      -7.540   5.222  74.364  1.00  0.00    -0.089 Cl 
HETATM    2  C   UNL     1      -9.117   4.621  74.019  1.00  0.00    -0.108 A  
HETATM    3  C   UNL     1     -10.220   5.354  73.635  1.00  0.00    -0.237 A  
HETATM    4  C   UNL     1     -11.330   4.466  73.400  1.00  0.00    -0.353 A  
HETATM    5  S   UNL     1      -9.393   2.955  74.132  1.00  0.00    -0.081 SA 
HETATM    6  C   UNL     1     -11.020   3.144  73.639  1.00  0.00    -0.233 A  
ENDROOT
BRANCH   3   7
HETATM    7  C   UNL     1     -10.251   6.841  73.437  1.00  0.00    -0.268 C  
BRANCH   7   8
HETATM    8  O   UNL     1      -9.712   7.198  72.165  1.00  0.00    -0.148 OA 
BRANCH   8   9
HETATM    9  C   UNL     1     -10.506   6.841  71.017  1.00  0.00    -0.212 C  
BRANCH   9  10
HETATM   10  C   UNL     1      -9.652   5.975  70.077  1.00  0.00    -0.194 A  
HETATM   11  C   UNL     1      -9.267   3.812  68.985  1.00  0.00    -0.221 A  
HETATM   12  C   UNL     1      -8.471   6.439  69.464  1.00  0.00    -0.133 A  
HETATM   13  C   UNL     1     -10.042   4.648  69.794  1.00  0.00    -0.243 A  
HETATM   14 CL   UNL     1      -7.940   8.080  69.589  1.00  0.00    -0.114 Cl 
HETATM   15 CL   UNL     1      -7.102   3.243  67.484  1.00  0.00    -0.053 Cl 
HETATM   16  C   UNL     1      -7.674   5.590  68.684  1.00  0.00    -0.088 A  
HETATM   17  C   UNL     1      -8.075   4.280  68.451  1.00  0.00    -0.081 A  
ENDBRANCH   9  10
BRANCH   9  18
HETATM   18  C   UNL     1     -11.100   8.103  70.340  1.00  0.00    -0.239 C  
BRANCH  18  19
HETATM   19  N   UNL     1     -12.186   8.722  71.069  1.00  0.00    -0.242 NA 
HETATM   20  N   UNL     1     -14.101   8.902  72.169  1.00  0.00    -0.441 NA 
HETATM   21  C   UNL     1     -12.213   9.991  71.573  1.00  0.00    -0.405 A  
HETATM   22  C   UNL     1     -13.408  10.081  72.245  1.00  0.00    -0.289 A  
HETATM   23  C   UNL     1     -13.339   8.099  71.464  1.00  0.00    -0.284 A  
ENDBRANCH  18  19
ENDBRANCH   9  18
ENDBRANCH   8   9
ENDBRANCH   7   8
ENDBRANCH   3   7
TORSDOF 6
ENDMDL
MODEL      232
REMARK 921   NORMALIZED FREE ENERGY PREDICTED BY IDOCK:   -3.37 KCAL/MOL
REMARK 922        TOTAL FREE ENERGY PREDICTED BY IDOCK:   -5.59 KCAL/MOL
REMARK 923 INTER-LIGAND FREE ENERGY PREDICTED BY IDOCK:   -4.36 KCAL/MOL
REMARK 924 INTRA-LIGAND FREE ENERGY PREDICTED BY IDOCK:   -1.23 KCAL/MOL
REMARK 927      BINDING AFFINITY PREDICTED BY RF-SCORE:    0.00 PKD
ROOT
HETATM    1 CL   UNL     1      -5.849   9.631  65.848  1.00  0.00    -0.053 Cl 
HETATM    2  C   UNL     1      -6.682   8.156  65.534  1.00  0.00    -0.052 A  
HETATM    3  C   UNL     1      -7.988   8.012  65.119  1.00  0.00    -0.127 A  
HETATM    4  C   UNL     1      -8.281   6.614  64.928  1.00  0.00    -0.085 A  
HETATM    5  S   UNL     1      -5.846   6.696  65.724  1.00  0.00    -0.027 SA 
HETATM    6  C   UNL     1      -7.212   5.796  65.227  1.00  0.00    -0.070 A  
ENDROOT
BRANCH   3   7
HETATM    7  C   UNL     1      -8.946   9.136  64.853  1.00  0.00    -0.151 C  
BRANCH   7   8
HETATM    8  O   UNL     1      -9.904   9.250  65.904  1.00  0.00    -0.281 OA 
BRANCH   8   9
HETATM    9  C   UNL     1      -9.868  10.474  66.666  1.00  0.00    -0.199 C  
BRANCH   9  10
HETATM   10  C   UNL     1      -8.785  10.348  67.749  1.00  0.00    -0.122 A  
HETATM   11  C   UNL     1      -7.645   8.971  69.431  1.00  0.00    -0.078 A  
HETATM   12  C   UNL     1      -7.957  11.420  68.138  1.00  0.00    -0.133 A  
HETATM   13  C   UNL     1      -8.585   9.114  68.405  1.00  0.00    -0.129 A  
HETATM   14 CL   UNL     1      -7.973  12.949  67.330  1.00  0.00    -0.177 Cl 
HETATM   15 CL   UNL     1      -5.761   9.901  71.118  1.00  0.00    -0.076 Cl 
HETATM   16  C   UNL     1      -7.041  11.288  69.191  1.00  0.00    -0.122 A  
HETATM   17  C   UNL     1      -6.893  10.065  69.833  1.00  0.00    -0.108 A  
ENDBRANCH   9  10
BRANCH   9  18
HETATM   18  C   UNL     1     -11.272  10.822  67.220  1.00  0.00    -0.197 C  
BRANCH  18  19
HETATM   19  N   UNL     1     -11.772  12.120  66.820  1.00  0.00    -0.557 NA 
HETATM   20  N   UNL     1     -12.224  14.286  66.929  1.00  0.00    -0.411 NA 
HETATM   21  C   UNL     1     -12.236  12.470  65.584  1.00  0.00    -0.335 A  
HETATM   22  C   UNL     1     -12.514  13.814  65.677  1.00  0.00    -0.503 A  
HETATM   23  C   UNL     1     -11.771  13.249  67.593  1.00  0.00    -0.366 A  
ENDBRANCH  18  19
ENDBRANCH   9  18
ENDBRANCH   8   9
ENDBRANCH   7   8
ENDBRANCH   3   7
TORSDOF 6
ENDMDL
MODEL      233
REMARK 921   NORMALIZED FREE ENERGY PREDICTED BY IDOCK:   -3.36 KCAL/MOL
REMARK 922        TOTAL FREE ENERGY PREDICTED BY IDOCK:   -5.58 KCAL/MOL
REMARK 923 INTER-LIGAND FREE ENERGY PREDICTED BY IDOCK:   -5.12 KCAL/MOL
REMARK 924 INTRA-LIGAND FREE ENERGY PREDICTED BY IDOCK:   -0.45 KCAL/MOL
REMARK 927      BINDING AFFINITY PREDICTED BY RF-SCORE:    0.00 PKD
ROOT
HETATM    1 CL   UNL     1      -8.158   8.813  71.157  1.00  0.00    -0.173 Cl 
HETATM    2  C   UNL     1      -7.448   9.368  69.690  1.00  0.00    -0.084 A  
HETATM    3  C   UNL     1      -7.888  10.402  68.893  1.00  0.00    -0.115 A  
HETATM    4  C   UNL     1      -6.985  10.573  67.783  1.00  0.00    -0.078 A  
HETATM    5  S   UNL     1      -6.044   8.605  69.129  1.00  0.00    -0.043 SA 
HETATM    6  C   UNL     1      -5.950   9.661  67.788  1.00  0.00    -0.051 A  
ENDROOT
BRANCH   3   7
HETATM    7  C   UNL     1      -9.090  11.259  69.164  1.00  0.00     0.124 C  
BRANCH   7   8
HETATM    8  O   UNL     1      -9.140  12.367  68.265  1.00  0.00    -0.195 OA 
BRANCH   8   9
HETATM    9  C   UNL     1     -10.447  12.734  67.782  1.00  0.00    -0.223 C  
BRANCH   9  10
HETATM   10  C   UNL     1     -11.184  13.503  68.890  1.00  0.00    -0.316 A  
HETATM   11  C   UNL     1     -12.577  13.456  70.910  1.00  0.00    -0.406 A  
HETATM   12  C   UNL     1     -11.235  14.910  68.948  1.00  0.00    -0.269 A  
HETATM   13  C   UNL     1     -11.853  12.796  69.913  1.00  0.00    -0.371 A  
HETATM   14 CL   UNL     1     -10.346  15.918  67.860  1.00  0.00    -0.262 Cl 
HETATM   15 CL   UNL     1     -13.579  15.654  72.104  1.00  0.00    -0.563 Cl 
HETATM   16  C   UNL     1     -11.991  15.572  69.925  1.00  0.00    -0.381 A  
HETATM   17  C   UNL     1     -12.660  14.841  70.898  1.00  0.00    -0.336 A  
ENDBRANCH   9  10
BRANCH   9  18
HETATM   18  C   UNL     1     -11.214  11.492  67.263  1.00  0.00    -0.301 C  
BRANCH  18  19
HETATM   19  N   UNL     1     -10.461  10.655  66.353  1.00  0.00    -0.235 NA 
HETATM   20  N   UNL     1      -9.602   8.817  65.465  1.00  0.00    -0.055 NA 
HETATM   21  C   UNL     1      -9.904  11.036  65.166  1.00  0.00    -0.268 A  
HETATM   22  C   UNL     1      -9.374   9.883  64.636  1.00  0.00    -0.277 A  
HETATM   23  C   UNL     1     -10.266   9.308  66.485  1.00  0.00    -0.246 A  
ENDBRANCH  18  19
ENDBRANCH   9  18
ENDBRANCH   8   9
ENDBRANCH   7   8
ENDBRANCH   3   7
TORSDOF 6
ENDMDL
MODEL      234
REMARK 921   NORMALIZED FREE ENERGY PREDICTED BY IDOCK:   -3.35 KCAL/MOL
REMARK 922        TOTAL FREE ENERGY PREDICTED BY IDOCK:   -5.57 KCAL/MOL
REMARK 923 INTER-LIGAND FREE ENERGY PREDICTED BY IDOCK:   -4.67 KCAL/MOL
REMARK 924 INTRA-LIGAND FREE ENERGY PREDICTED BY IDOCK:   -0.90 KCAL/MOL
REMARK 927      BINDING AFFINITY PREDICTED BY RF-SCORE:    0.00 PKD
ROOT
HETATM    1 CL   UNL     1      -7.008   9.108  70.573  1.00  0.00    -0.071 Cl 
HETATM    2  C   UNL     1      -8.508   8.718  71.325  1.00  0.00    -0.186 A  
HETATM    3  C   UNL     1      -9.762   8.779  70.757  1.00  0.00    -0.257 A  
HETATM    4  C   UNL     1     -10.744   8.325  71.708  1.00  0.00    -0.332 A  
HETATM    5  S   UNL     1      -8.496   8.181  72.930  1.00  0.00    -0.195 SA 
HETATM    6  C   UNL     1     -10.194   7.978  72.924  1.00  0.00    -0.314 A  
ENDROOT
BRANCH   3   7
HETATM    7  C   UNL     1     -10.060   9.199  69.347  1.00  0.00    -0.197 C  
BRANCH   7   8
HETATM    8  O   UNL     1      -9.642  10.544  69.117  1.00  0.00    -0.198 OA 
BRANCH   8   9
HETATM    9  C   UNL     1      -8.970  10.794  67.866  1.00  0.00    -0.139 C  
BRANCH   9  10
HETATM   10  C   UNL     1      -9.835  11.746  67.024  1.00  0.00    -0.213 A  
HETATM   11  C   UNL     1     -11.625  12.052  65.373  1.00  0.00    -0.343 A  
HETATM   12  C   UNL     1      -9.672  13.145  67.033  1.00  0.00    -0.241 A  
HETATM   13  C   UNL     1     -10.850  11.225  66.192  1.00  0.00    -0.281 A  
HETATM   14 CL   UNL     1      -8.579  13.948  68.106  1.00  0.00    -0.173 Cl 
HETATM   15 CL   UNL     1     -12.320  14.435  64.325  1.00  0.00    -0.464 Cl 
HETATM   16  C   UNL     1     -10.422  13.972  66.185  1.00  0.00    -0.297 A  
HETATM   17  C   UNL     1     -11.392  13.419  65.357  1.00  0.00    -0.291 A  
ENDBRANCH   9  10
BRANCH   9  18
HETATM   18  C   UNL     1      -8.620   9.466  67.150  1.00  0.00    -0.128 C  
BRANCH  18  19
HETATM   19  N   UNL     1      -7.298   9.429  66.562  1.00  0.00    -0.092 NA 
HETATM   20  N   UNL     1      -5.153   8.930  66.327  1.00  0.00    -0.029 NA 
HETATM   21  C   UNL     1      -6.950   9.848  65.310  1.00  0.00    -0.122 A  
HETATM   22  C   UNL     1      -5.617   9.533  65.188  1.00  0.00    -0.051 A  
HETATM   23  C   UNL     1      -6.187   8.871  67.133  1.00  0.00    -0.059 A  
ENDBRANCH  18  19
ENDBRANCH   9  18
ENDBRANCH   8   9
ENDBRANCH   7   8
ENDBRANCH   3   7
TORSDOF 6
ENDMDL
MODEL      235
REMARK 921   NORMALIZED FREE ENERGY PREDICTED BY IDOCK:   -3.34 KCAL/MOL
REMARK 922        TOTAL FREE ENERGY PREDICTED BY IDOCK:   -5.56 KCAL/MOL
REMARK 923 INTER-LIGAND FREE ENERGY PREDICTED BY IDOCK:   -5.07 KCAL/MOL
REMARK 924 INTRA-LIGAND FREE ENERGY PREDICTED BY IDOCK:   -0.49 KCAL/MOL
REMARK 927      BINDING AFFINITY PREDICTED BY RF-SCORE:    0.00 PKD
ROOT
HETATM    1 CL   UNL     1      -8.779   6.928  69.699  1.00  0.00    -0.140 Cl 
HETATM    2  C   UNL     1      -7.806   8.337  69.878  1.00  0.00    -0.102 A  
HETATM    3  C   UNL     1      -7.716   9.401  69.006  1.00  0.00    -0.075 A  
HETATM    4  C   UNL     1      -6.826  10.395  69.549  1.00  0.00    -0.093 A  
HETATM    5  S   UNL     1      -6.847   8.491  71.265  1.00  0.00    -0.076 SA 
HETATM    6  C   UNL     1      -6.283  10.024  70.761  1.00  0.00    -0.084 A  
ENDROOT
BRANCH   3   7
HETATM    7  C   UNL     1      -8.470   9.534  67.715  1.00  0.00    -0.119 C  
BRANCH   7   8
HETATM    8  O   UNL     1      -8.841  10.892  67.479  1.00  0.00    -0.132 OA 
BRANCH   8   9
HETATM    9  C   UNL     1     -10.197  11.247  67.816  1.00  0.00    -0.180 C  
BRANCH   9  10
HETATM   10  C   UNL     1     -10.652  12.386  66.889  1.00  0.00    -0.251 A  
HETATM   11  C   UNL     1     -12.319  13.284  65.328  1.00  0.00    -0.525 A  
HETATM   12  C   UNL     1      -9.887  13.547  66.662  1.00  0.00    -0.279 A  
HETATM   13  C   UNL     1     -11.891  12.295  66.218  1.00  0.00    -0.387 A  
HETATM   14 CL   UNL     1      -8.422  13.879  67.521  1.00  0.00    -0.184 Cl 
HETATM   15 CL   UNL     1     -12.016  15.585  63.957  1.00  0.00    -0.142 Cl 
HETATM   16  C   UNL     1     -10.297  14.522  65.743  1.00  0.00    -0.347 A  
HETATM   17  C   UNL     1     -11.509  14.383  65.078  1.00  0.00    -0.372 A  
ENDBRANCH   9  10
BRANCH   9  18
HETATM   18  C   UNL     1     -10.324  11.578  69.324  1.00  0.00     0.024 C  
BRANCH  18  19
HETATM   19  N   UNL     1     -11.264  10.746  70.046  1.00  0.00    -0.294 NA 
HETATM   20  N   UNL     1     -12.074   8.969  71.091  1.00  0.00    -0.295 NA 
HETATM   21  C   UNL     1     -12.444  11.144  70.605  1.00  0.00    -0.356 A  
HETATM   22  C   UNL     1     -12.930  10.028  71.242  1.00  0.00    -0.400 A  
HETATM   23  C   UNL     1     -11.076   9.432  70.375  1.00  0.00    -0.261 A  
ENDBRANCH  18  19
ENDBRANCH   9  18
ENDBRANCH   8   9
ENDBRANCH   7   8
ENDBRANCH   3   7
TORSDOF 6
ENDMDL
MODEL      236
REMARK 921   NORMALIZED FREE ENERGY PREDICTED BY IDOCK:   -3.32 KCAL/MOL
REMARK 922        TOTAL FREE ENERGY PREDICTED BY IDOCK:   -5.53 KCAL/MOL
REMARK 923 INTER-LIGAND FREE ENERGY PREDICTED BY IDOCK:   -4.68 KCAL/MOL
REMARK 924 INTRA-LIGAND FREE ENERGY PREDICTED BY IDOCK:   -0.85 KCAL/MOL
REMARK 927      BINDING AFFINITY PREDICTED BY RF-SCORE:    0.00 PKD
ROOT
HETATM    1 CL   UNL     1     -11.246  11.360  66.338  1.00  0.00    -0.308 Cl 
HETATM    2  C   UNL     1     -11.653  12.300  67.723  1.00  0.00    -0.351 A  
HETATM    3  C   UNL     1     -11.837  11.845  69.010  1.00  0.00    -0.368 A  
HETATM    4  C   UNL     1     -12.120  12.959  69.879  1.00  0.00    -0.335 A  
HETATM    5  S   UNL     1     -11.843  13.973  67.541  1.00  0.00    -0.402 SA 
HETATM    6  C   UNL     1     -12.159  14.165  69.210  1.00  0.00    -0.324 A  
ENDROOT
BRANCH   3   7
HETATM    7  C   UNL     1     -11.708  10.418  69.456  1.00  0.00    -0.188 C  
BRANCH   7   8
HETATM    8  O   UNL     1     -10.467  10.202  70.126  1.00  0.00    -0.271 OA 
BRANCH   8   9
HETATM    9  C   UNL     1      -9.567   9.260  69.509  1.00  0.00    -0.173 C  
BRANCH   9  10
HETATM   10  C   UNL     1      -9.594   7.952  70.316  1.00  0.00    -0.171 A  
HETATM   11  C   UNL     1      -9.407   6.817  72.484  1.00  0.00    -0.151 A  
HETATM   12  C   UNL     1      -9.769   6.685  69.724  1.00  0.00    -0.159 A  
HETATM   13  C   UNL     1      -9.439   7.987  71.719  1.00  0.00    -0.223 A  
HETATM   14 CL   UNL     1     -10.121   6.485  68.042  1.00  0.00    -0.152 Cl 
HETATM   15 CL   UNL     1      -9.443   4.140  72.793  1.00  0.00    -0.151 Cl 
HETATM   16  C   UNL     1      -9.700   5.510  70.484  1.00  0.00    -0.241 A  
HETATM   17  C   UNL     1      -9.516   5.582  71.859  1.00  0.00    -0.148 A  
ENDBRANCH   9  10
BRANCH   9  18
HETATM   18  C   UNL     1      -8.152   9.869  69.349  1.00  0.00    -0.139 C  
BRANCH  18  19
HETATM   19  N   UNL     1      -7.641   9.856  67.995  1.00  0.00    -0.085 NA 
HETATM   20  N   UNL     1      -6.239  10.180  66.311  1.00  0.00    -0.073 NA 
HETATM   21  C   UNL     1      -8.182   9.205  66.924  1.00  0.00    -0.116 A  
HETATM   22  C   UNL     1      -7.300   9.423  65.892  1.00  0.00    -0.095 A  
HETATM   23  C   UNL     1      -6.464  10.419  67.581  1.00  0.00    -0.058 A  
ENDBRANCH  18  19
ENDBRANCH   9  18
ENDBRANCH   8   9
ENDBRANCH   7   8
ENDBRANCH   3   7
TORSDOF 6
ENDMDL
MODEL      237
REMARK 921   NORMALIZED FREE ENERGY PREDICTED BY IDOCK:   -3.31 KCAL/MOL
REMARK 922        TOTAL FREE ENERGY PREDICTED BY IDOCK:   -5.52 KCAL/MOL
REMARK 923 INTER-LIGAND FREE ENERGY PREDICTED BY IDOCK:   -4.41 KCAL/MOL
REMARK 924 INTRA-LIGAND FREE ENERGY PREDICTED BY IDOCK:   -1.10 KCAL/MOL
REMARK 927      BINDING AFFINITY PREDICTED BY RF-SCORE:    0.00 PKD
ROOT
HETATM    1 CL   UNL     1      -5.718   8.935  66.302  1.00  0.00    -0.049 Cl 
HETATM    2  C   UNL     1      -6.886   7.683  66.494  1.00  0.00    -0.062 A  
HETATM    3  C   UNL     1      -8.212   7.720  66.123  1.00  0.00    -0.123 A  
HETATM    4  C   UNL     1      -8.830   6.452  66.416  1.00  0.00    -0.146 A  
HETATM    5  S   UNL     1      -6.399   6.220  67.196  1.00  0.00    -0.039 SA 
HETATM    6  C   UNL     1      -7.963   5.555  67.004  1.00  0.00    -0.102 A  
ENDROOT
BRANCH   3   7
HETATM    7  C   UNL     1      -8.899   8.879  65.463  1.00  0.00    -0.197 C  
BRANCH   7   8
HETATM    8  O   UNL     1     -10.169   9.129  66.063  1.00  0.00    -0.256 OA 
BRANCH   8   9
HETATM    9  C   UNL     1     -10.230  10.237  66.982  1.00  0.00    -0.228 C  
BRANCH   9  10
HETATM   10  C   UNL     1     -10.121   9.695  68.417  1.00  0.00    -0.199 A  
HETATM   11  C   UNL     1     -11.091   8.369  70.240  1.00  0.00    -0.216 A  
HETATM   12  C   UNL     1      -9.050  10.005  69.278  1.00  0.00    -0.200 A  
HETATM   13  C   UNL     1     -11.126   8.843  68.925  1.00  0.00     0.159 A  
HETATM   14 CL   UNL     1      -7.670  10.910  68.758  1.00  0.00    -0.120 Cl 
HETATM   15 CL   UNL     1     -10.026   8.196  72.710  1.00  0.00    -0.360 Cl 
HETATM   16  C   UNL     1      -9.032   9.562  70.607  1.00  0.00    -0.226 A  
HETATM   17  C   UNL     1     -10.055   8.749  71.082  1.00  0.00    -0.247 A  
ENDBRANCH   9  10
BRANCH   9  18
HETATM   18  C   UNL     1     -11.494  11.097  66.731  1.00  0.00     0.085 C  
BRANCH  18  19
HETATM   19  N   UNL     1     -11.417  11.957  65.570  1.00  0.00    -0.295 NA 
HETATM   20  N   UNL     1     -10.552  12.964  63.796  1.00  0.00    -0.340 NA 
HETATM   21  C   UNL     1     -12.456  12.594  64.955  1.00  0.00    -0.494 A  
HETATM   22  C   UNL     1     -11.897  13.214  63.862  1.00  0.00    -0.472 A  
HETATM   23  C   UNL     1     -10.292  12.198  64.829  1.00  0.00    -0.288 A  
ENDBRANCH  18  19
ENDBRANCH   9  18
ENDBRANCH   8   9
ENDBRANCH   7   8
ENDBRANCH   3   7
TORSDOF 6
ENDMDL
MODEL      238
REMARK 921   NORMALIZED FREE ENERGY PREDICTED BY IDOCK:   -3.30 KCAL/MOL
REMARK 922        TOTAL FREE ENERGY PREDICTED BY IDOCK:   -5.50 KCAL/MOL
REMARK 923 INTER-LIGAND FREE ENERGY PREDICTED BY IDOCK:   -4.58 KCAL/MOL
REMARK 924 INTRA-LIGAND FREE ENERGY PREDICTED BY IDOCK:   -0.92 KCAL/MOL
REMARK 927      BINDING AFFINITY PREDICTED BY RF-SCORE:    0.00 PKD
ROOT
HETATM    1 CL   UNL     1     -11.293  11.593  66.336  1.00  0.00    -0.361 Cl 
HETATM    2  C   UNL     1     -11.549  12.672  67.654  1.00  0.00    -0.357 A  
HETATM    3  C   UNL     1     -11.634  12.345  68.990  1.00  0.00    -0.362 A  
HETATM    4  C   UNL     1     -11.805  13.545  69.769  1.00  0.00    -0.395 A  
HETATM    5  S   UNL     1     -11.702  14.327  67.330  1.00  0.00    -0.404 SA 
HETATM    6  C   UNL     1     -11.865  14.685  68.995  1.00  0.00    -0.310 A  
ENDROOT
BRANCH   3   7
HETATM    7  C   UNL     1     -11.512  10.961  69.557  1.00  0.00    -0.301 C  
BRANCH   7   8
HETATM    8  O   UNL     1     -10.142  10.601  69.735  1.00  0.00    -0.162 OA 
BRANCH   8   9
HETATM    9  C   UNL     1      -9.719   9.380  69.096  1.00  0.00    -0.165 C  
BRANCH   9  10
HETATM   10  C   UNL     1      -8.521   9.691  68.184  1.00  0.00    -0.118 A  
HETATM   11  C   UNL     1      -7.434  11.203  66.586  1.00  0.00    -0.146 A  
HETATM   12  C   UNL     1      -7.432   8.813  68.018  1.00  0.00    -0.093 A  
HETATM   13  C   UNL     1      -8.480  10.905  67.464  1.00  0.00    -0.123 A  
HETATM   14 CL   UNL     1      -7.259   7.360  68.940  1.00  0.00    -0.086 Cl 
HETATM   15 CL   UNL     1      -5.140  10.634  65.291  1.00  0.00    -0.116 Cl 
HETATM   16  C   UNL     1      -6.402   9.093  67.110  1.00  0.00    -0.059 A  
HETATM   17  C   UNL     1      -6.411  10.285  66.397  1.00  0.00    -0.085 A  
ENDBRANCH   9  10
BRANCH   9  18
HETATM   18  C   UNL     1     -10.903   8.698  68.365  1.00  0.00     0.057 C  
BRANCH  18  19
HETATM   19  N   UNL     1     -10.688   7.304  68.041  1.00  0.00    -0.179 NA 
HETATM   20  N   UNL     1     -10.370   5.134  68.351  1.00  0.00    -0.115 NA 
HETATM   21  C   UNL     1     -10.779   6.730  66.805  1.00  0.00    -0.242 A  
HETATM   22  C   UNL     1     -10.574   5.388  67.021  1.00  0.00    -0.226 A  
HETATM   23  C   UNL     1     -10.453   6.303  68.943  1.00  0.00    -0.232 A  
ENDBRANCH  18  19
ENDBRANCH   9  18
ENDBRANCH   8   9
ENDBRANCH   7   8
ENDBRANCH   3   7
TORSDOF 6
ENDMDL
MODEL      239
REMARK 921   NORMALIZED FREE ENERGY PREDICTED BY IDOCK:   -3.29 KCAL/MOL
REMARK 922        TOTAL FREE ENERGY PREDICTED BY IDOCK:   -5.49 KCAL/MOL
REMARK 923 INTER-LIGAND FREE ENERGY PREDICTED BY IDOCK:   -4.58 KCAL/MOL
REMARK 924 INTRA-LIGAND FREE ENERGY PREDICTED BY IDOCK:   -0.91 KCAL/MOL
REMARK 927      BINDING AFFINITY PREDICTED BY RF-SCORE:    0.00 PKD
ROOT
HETATM    1 CL   UNL     1      -8.541   4.120  69.672  1.00  0.00    -0.097 Cl 
HETATM    2  C   UNL     1      -8.282   5.211  70.979  1.00  0.00    -0.111 A  
HETATM    3  C   UNL     1      -8.040   6.565  70.896  1.00  0.00    -0.123 A  
HETATM    4  C   UNL     1      -7.927   7.116  72.223  1.00  0.00    -0.101 A  
HETATM    5  S   UNL     1      -8.336   4.608  72.561  1.00  0.00    -0.116 SA 
HETATM    6  C   UNL     1      -8.060   6.165  73.213  1.00  0.00    -0.113 A  
ENDROOT
BRANCH   3   7
HETATM    7  C   UNL     1      -7.962   7.359  69.625  1.00  0.00    -0.126 C  
BRANCH   7   8
HETATM    8  O   UNL     1      -9.124   8.169  69.457  1.00  0.00    -0.150 OA 
BRANCH   8   9
HETATM    9  C   UNL     1     -10.030   7.769  68.409  1.00  0.00    -0.178 C  
BRANCH   9  10
HETATM   10  C   UNL     1     -10.165   8.927  67.407  1.00  0.00    -0.313 A  
HETATM   11  C   UNL     1     -11.011  11.172  66.893  1.00  0.00    -0.333 A  
HETATM   12  C   UNL     1      -9.660   8.870  66.093  1.00  0.00    -0.265 A  
HETATM   13  C   UNL     1     -10.822  10.116  67.789  1.00  0.00    -0.346 A  
HETATM   14 CL   UNL     1      -8.702   7.549  65.520  1.00  0.00    -0.109 Cl 
HETATM   15 CL   UNL     1     -10.819  12.339  64.471  1.00  0.00    -0.334 Cl 
HETATM   16  C   UNL     1      -9.880   9.913  65.182  1.00  0.00    -0.348 A  
HETATM   17  C   UNL     1     -10.558  11.056  65.586  1.00  0.00    -0.197 A  
ENDBRANCH   9  10
BRANCH   9  18
HETATM   18  C   UNL     1     -11.380   7.288  68.997  1.00  0.00     0.264 C  
BRANCH  18  19
HETATM   19  N   UNL     1     -11.493   7.423  70.434  1.00  0.00    -0.260 NA 
HETATM   20  N   UNL     1     -11.581   6.831  72.566  1.00  0.00    -0.236 NA 
HETATM   21  C   UNL     1     -11.461   8.586  71.149  1.00  0.00    -0.276 A  
HETATM   22  C   UNL     1     -11.521   8.195  72.465  1.00  0.00    -0.404 A  
HETATM   23  C   UNL     1     -11.553   6.391  71.330  1.00  0.00    -0.311 A  
ENDBRANCH  18  19
ENDBRANCH   9  18
ENDBRANCH   8   9
ENDBRANCH   7   8
ENDBRANCH   3   7
TORSDOF 6
ENDMDL
MODEL      240
REMARK 921   NORMALIZED FREE ENERGY PREDICTED BY IDOCK:   -3.29 KCAL/MOL
REMARK 922        TOTAL FREE ENERGY PREDICTED BY IDOCK:   -5.48 KCAL/MOL
REMARK 923 INTER-LIGAND FREE ENERGY PREDICTED BY IDOCK:   -5.12 KCAL/MOL
REMARK 924 INTRA-LIGAND FREE ENERGY PREDICTED BY IDOCK:   -0.36 KCAL/MOL
REMARK 927      BINDING AFFINITY PREDICTED BY RF-SCORE:    0.00 PKD
ROOT
HETATM    1 CL   UNL     1      -7.748   3.854  70.905  1.00  0.00    -0.050 Cl 
HETATM    2  C   UNL     1      -7.313   5.140  71.965  1.00  0.00    -0.090 A  
HETATM    3  C   UNL     1      -7.482   6.490  71.746  1.00  0.00    -0.093 A  
HETATM    4  C   UNL     1      -7.029   7.225  72.899  1.00  0.00    -0.068 A  
HETATM    5  S   UNL     1      -6.611   4.759  73.458  1.00  0.00    -0.068 SA 
HETATM    6  C   UNL     1      -6.528   6.410  73.893  1.00  0.00    -0.070 A  
ENDROOT
BRANCH   3   7
HETATM    7  C   UNL     1      -8.096   7.103  70.522  1.00  0.00    -0.113 C  
BRANCH   7   8
HETATM    8  O   UNL     1      -9.083   8.071  70.876  1.00  0.00    -0.144 OA 
BRANCH   8   9
HETATM    9  C   UNL     1     -10.240   8.141  70.019  1.00  0.00    -0.202 C  
BRANCH   9  10
HETATM   10  C   UNL     1     -11.171   9.248  70.538  1.00  0.00    -0.315 A  
HETATM   11  C   UNL     1     -12.087  11.511  70.290  1.00  0.00    -0.444 A  
HETATM   12  C   UNL     1     -11.936   9.122  71.715  1.00  0.00    -0.379 A  
HETATM   13  C   UNL     1     -11.290  10.461  69.825  1.00  0.00    -0.353 A  
HETATM   14 CL   UNL     1     -12.018   7.648  72.618  1.00  0.00    -0.259 Cl 
HETATM   15 CL   UNL     1     -13.728  12.680  72.080  1.00  0.00    -0.406 Cl 
HETATM   16  C   UNL     1     -12.706  10.187  72.202  1.00  0.00    -0.316 A  
HETATM   17  C   UNL     1     -12.774  11.377  71.488  1.00  0.00    -0.357 A  
ENDBRANCH   9  10
BRANCH   9  18
HETATM   18  C   UNL     1     -10.921   6.755  69.894  1.00  0.00    -0.291 C  
BRANCH  18  19
HETATM   19  N   UNL     1     -10.720   6.098  68.620  1.00  0.00    -0.276 NA 
HETATM   20  N   UNL     1     -10.665   5.818  66.423  1.00  0.00    -0.199 NA 
HETATM   21  C   UNL     1     -10.103   4.898  68.409  1.00  0.00    -0.078 A  
HETATM   22  C   UNL     1     -10.085   4.743  67.043  1.00  0.00    -0.189 A  
HETATM   23  C   UNL     1     -11.030   6.621  67.394  1.00  0.00    -0.360 A  
ENDBRANCH  18  19
ENDBRANCH   9  18
ENDBRANCH   8   9
ENDBRANCH   7   8
ENDBRANCH   3   7
TORSDOF 6
ENDMDL
MODEL      241
REMARK 921   NORMALIZED FREE ENERGY PREDICTED BY IDOCK:   -3.26 KCAL/MOL
REMARK 922        TOTAL FREE ENERGY PREDICTED BY IDOCK:   -5.45 KCAL/MOL
REMARK 923 INTER-LIGAND FREE ENERGY PREDICTED BY IDOCK:   -4.47 KCAL/MOL
REMARK 924 INTRA-LIGAND FREE ENERGY PREDICTED BY IDOCK:   -0.98 KCAL/MOL
REMARK 927      BINDING AFFINITY PREDICTED BY RF-SCORE:    0.00 PKD
ROOT
HETATM    1 CL   UNL     1     -12.406  12.539  70.107  1.00  0.00    -0.266 Cl 
HETATM    2  C   UNL     1     -12.325  10.938  70.736  1.00  0.00    -0.390 A  
HETATM    3  C   UNL     1     -11.359   9.991  70.475  1.00  0.00    -0.409 A  
HETATM    4  C   UNL     1     -11.635   8.799  71.236  1.00  0.00    -0.353 A  
HETATM    5  S   UNL     1     -13.531  10.426  71.809  1.00  0.00    -0.193 SA 
HETATM    6  C   UNL     1     -12.784   8.899  71.993  1.00  0.00    -0.394 A  
ENDROOT
BRANCH   3   7
HETATM    7  C   UNL     1     -10.169  10.184  69.581  1.00  0.00    -0.242 C  
BRANCH   7   8
HETATM    8  O   UNL     1     -10.250   9.338  68.434  1.00  0.00    -0.187 OA 
BRANCH   8   9
HETATM    9  C   UNL     1      -9.186   8.380  68.276  1.00  0.00    -0.134 C  
BRANCH   9  10
HETATM   10  C   UNL     1      -8.601   8.521  66.861  1.00  0.00    -0.121 A  
HETATM   11  C   UNL     1      -8.852   9.321  64.555  1.00  0.00    -0.203 A  
HETATM   12  C   UNL     1      -7.353   7.985  66.487  1.00  0.00    -0.084 A  
HETATM   13  C   UNL     1      -9.324   9.214  65.867  1.00  0.00    -0.306 A  
HETATM   14 CL   UNL     1      -6.281   7.242  67.623  1.00  0.00    -0.045 Cl 
HETATM   15 CL   UNL     1      -7.081   8.824  62.585  1.00  0.00    -0.097 Cl 
HETATM   16  C   UNL     1      -6.895   8.059  65.165  1.00  0.00    -0.058 A  
HETATM   17  C   UNL     1      -7.649   8.724  64.205  1.00  0.00    -0.117 A  
ENDBRANCH   9  10
BRANCH   9  18
HETATM   18  C   UNL     1      -9.675   6.949  68.613  1.00  0.00    -0.136 C  
BRANCH  18  19
HETATM   19  N   UNL     1      -9.299   6.478  69.929  1.00  0.00    -0.152 NA 
HETATM   20  N   UNL     1      -8.343   6.469  71.927  1.00  0.00    -0.115 NA 
HETATM   21  C   UNL     1      -9.816   5.400  70.589  1.00  0.00    -0.191 A  
HETATM   22  C   UNL     1      -9.207   5.412  71.821  1.00  0.00    -0.142 A  
HETATM   23  C   UNL     1      -8.425   7.099  70.779  1.00  0.00    -0.133 A  
ENDBRANCH  18  19
ENDBRANCH   9  18
ENDBRANCH   8   9
ENDBRANCH   7   8
ENDBRANCH   3   7
TORSDOF 6
ENDMDL
MODEL      242
REMARK 921   NORMALIZED FREE ENERGY PREDICTED BY IDOCK:   -3.25 KCAL/MOL
REMARK 922        TOTAL FREE ENERGY PREDICTED BY IDOCK:   -5.44 KCAL/MOL
REMARK 923 INTER-LIGAND FREE ENERGY PREDICTED BY IDOCK:   -5.48 KCAL/MOL
REMARK 924 INTRA-LIGAND FREE ENERGY PREDICTED BY IDOCK:    0.04 KCAL/MOL
REMARK 927      BINDING AFFINITY PREDICTED BY RF-SCORE:    0.00 PKD
ROOT
HETATM    1 CL   UNL     1      -6.454   7.614  71.641  1.00  0.00    -0.039 Cl 
HETATM    2  C   UNL     1      -6.415   9.170  70.904  1.00  0.00    -0.074 A  
HETATM    3  C   UNL     1      -7.251   9.642  69.915  1.00  0.00    -0.106 A  
HETATM    4  C   UNL     1      -6.913  11.009  69.611  1.00  0.00    -0.110 A  
HETATM    5  S   UNL     1      -5.253  10.286  71.425  1.00  0.00    -0.060 SA 
HETATM    6  C   UNL     1      -5.847  11.476  70.350  1.00  0.00    -0.155 A  
ENDROOT
BRANCH   3   7
HETATM    7  C   UNL     1      -8.378   8.874  69.288  1.00  0.00    -0.119 C  
BRANCH   7   8
HETATM    8  O   UNL     1      -9.421   9.752  68.866  1.00  0.00    -0.151 OA 
BRANCH   8   9
HETATM    9  C   UNL     1     -10.431  10.056  69.849  1.00  0.00    -0.274 C  
BRANCH   9  10
HETATM   10  C   UNL     1     -10.722   8.787  70.665  1.00  0.00    -0.267 A  
HETATM   11  C   UNL     1     -11.017   7.719  72.855  1.00  0.00    -0.467 A  
HETATM   12  C   UNL     1     -10.918   7.522  70.077  1.00  0.00    -0.240 A  
HETATM   13  C   UNL     1     -10.804   8.858  72.073  1.00  0.00    -0.404 A  
HETATM   14 CL   UNL     1     -10.998   7.294  68.364  1.00  0.00    -0.089 Cl 
HETATM   15 CL   UNL     1     -11.368   5.071  73.207  1.00  0.00    -0.405 Cl 
HETATM   16  C   UNL     1     -11.095   6.373  70.861  1.00  0.00    -0.354 A  
HETATM   17  C   UNL     1     -11.140   6.479  72.246  1.00  0.00    -0.263 A  
ENDBRANCH   9  10
BRANCH   9  18
HETATM   18  C   UNL     1     -11.684  10.674  69.181  1.00  0.00    -0.253 C  
BRANCH  18  19
HETATM   19  N   UNL     1     -11.771  12.116  69.280  1.00  0.00    -0.311 NA 
HETATM   20  N   UNL     1     -11.862  14.232  68.631  1.00  0.00    -0.340 NA 
HETATM   21  C   UNL     1     -12.064  12.841  70.399  1.00  0.00    -0.302 A  
HETATM   22  C   UNL     1     -12.110  14.147  69.975  1.00  0.00    -0.346 A  
HETATM   23  C   UNL     1     -11.670  12.995  68.236  1.00  0.00    -0.353 A  
ENDBRANCH  18  19
ENDBRANCH   9  18
ENDBRANCH   8   9
ENDBRANCH   7   8
ENDBRANCH   3   7
TORSDOF 6
ENDMDL
MODEL      243
REMARK 921   NORMALIZED FREE ENERGY PREDICTED BY IDOCK:   -3.25 KCAL/MOL
REMARK 922        TOTAL FREE ENERGY PREDICTED BY IDOCK:   -5.43 KCAL/MOL
REMARK 923 INTER-LIGAND FREE ENERGY PREDICTED BY IDOCK:   -4.51 KCAL/MOL
REMARK 924 INTRA-LIGAND FREE ENERGY PREDICTED BY IDOCK:   -0.92 KCAL/MOL
REMARK 927      BINDING AFFINITY PREDICTED BY RF-SCORE:    0.00 PKD
ROOT
HETATM    1 CL   UNL     1      -9.644   4.928  70.046  1.00  0.00    -0.240 Cl 
HETATM    2  C   UNL     1     -10.073   6.419  70.796  1.00  0.00    -0.187 A  
HETATM    3  C   UNL     1      -9.500   7.653  70.579  1.00  0.00    -0.164 A  
HETATM    4  C   UNL     1     -10.181   8.646  71.370  1.00  0.00    -0.324 A  
HETATM    5  S   UNL     1     -11.341   6.427  71.918  1.00  0.00    -0.307 SA 
HETATM    6  C   UNL     1     -11.191   8.116  72.144  1.00  0.00    -0.329 A  
ENDROOT
BRANCH   3   7
HETATM    7  C   UNL     1      -8.376   7.935  69.625  1.00  0.00    -0.131 C  
BRANCH   7   8
HETATM    8  O   UNL     1      -8.828   8.718  68.521  1.00  0.00    -0.137 OA 
BRANCH   8   9
HETATM    9  C   UNL     1      -8.169   9.985  68.328  1.00  0.00    -0.106 C  
BRANCH   9  10
HETATM   10  C   UNL     1      -9.224  11.036  67.948  1.00  0.00    -0.155 A  
HETATM   11  C   UNL     1     -11.490  11.548  67.157  1.00  0.00    -0.313 A  
HETATM   12  C   UNL     1      -8.970  12.422  67.964  1.00  0.00    -0.194 A  
HETATM   13  C   UNL     1     -10.518  10.627  67.559  1.00  0.00    -0.272 A  
HETATM   14 CL   UNL     1      -7.489  13.090  68.557  1.00  0.00    -0.123 Cl 
HETATM   15 CL   UNL     1     -12.366  14.034  66.595  1.00  0.00    -0.465 Cl 
HETATM   16  C   UNL     1      -9.930  13.344  67.526  1.00  0.00    -0.230 A  
HETATM   17  C   UNL     1     -11.184  12.902  67.122  1.00  0.00    -0.289 A  
ENDBRANCH   9  10
BRANCH   9  18
HETATM   18  C   UNL     1      -7.013   9.858  67.305  1.00  0.00    -0.084 C  
BRANCH  18  19
HETATM   19  N   UNL     1      -7.213   8.842  66.293  1.00  0.00    -0.085 NA 
HETATM   20  N   UNL     1      -7.054   6.885  65.268  1.00  0.00    -0.065 NA 
HETATM   21  C   UNL     1      -8.090   8.893  65.249  1.00  0.00    -0.126 A  
HETATM   22  C   UNL     1      -7.972   7.673  64.626  1.00  0.00    -0.136 A  
HETATM   23  C   UNL     1      -6.620   7.609  66.272  1.00  0.00    -0.050 A  
ENDBRANCH  18  19
ENDBRANCH   9  18
ENDBRANCH   8   9
ENDBRANCH   7   8
ENDBRANCH   3   7
TORSDOF 6
ENDMDL
MODEL      244
REMARK 921   NORMALIZED FREE ENERGY PREDICTED BY IDOCK:   -3.22 KCAL/MOL
REMARK 922        TOTAL FREE ENERGY PREDICTED BY IDOCK:   -5.39 KCAL/MOL
REMARK 923 INTER-LIGAND FREE ENERGY PREDICTED BY IDOCK:   -4.66 KCAL/MOL
REMARK 924 INTRA-LIGAND FREE ENERGY PREDICTED BY IDOCK:   -0.73 KCAL/MOL
REMARK 927      BINDING AFFINITY PREDICTED BY RF-SCORE:    0.00 PKD
ROOT
HETATM    1 CL   UNL     1      -7.377   8.721  71.584  1.00  0.00    -0.119 Cl 
HETATM    2  C   UNL     1      -7.579   9.831  70.283  1.00  0.00    -0.172 A  
HETATM    3  C   UNL     1      -8.695   9.985  69.488  1.00  0.00    -0.205 A  
HETATM    4  C   UNL     1      -8.472  11.053  68.547  1.00  0.00    -0.153 A  
HETATM    5  S   UNL     1      -6.306  10.882  69.908  1.00  0.00    -0.143 SA 
HETATM    6  C   UNL     1      -7.219  11.617  68.663  1.00  0.00    -0.104 A  
ENDROOT
BRANCH   3   7
HETATM    7  C   UNL     1      -9.968   9.201  69.615  1.00  0.00    -0.190 C  
BRANCH   7   8
HETATM    8  O   UNL     1      -9.711   7.798  69.568  1.00  0.00    -0.164 OA 
BRANCH   8   9
HETATM    9  C   UNL     1     -10.870   6.941  69.553  1.00  0.00    -0.252 C  
BRANCH   9  10
HETATM   10  C   UNL     1     -10.789   5.983  70.753  1.00  0.00    -0.358 A  
HETATM   11  C   UNL     1     -10.130   3.799  71.656  1.00  0.00    -0.149 A  
HETATM   12  C   UNL     1     -11.303   6.299  72.027  1.00  0.00    -0.300 A  
HETATM   13  C   UNL     1     -10.179   4.719  70.605  1.00  0.00    -0.250 A  
HETATM   14 CL   UNL     1     -11.943   7.859  72.410  1.00  0.00    -0.377 Cl 
HETATM   15 CL   UNL     1     -10.676   2.976  74.164  1.00  0.00    -0.248 Cl 
HETATM   16  C   UNL     1     -11.287   5.365  73.071  1.00  0.00    -0.355 A  
HETATM   17  C   UNL     1     -10.704   4.118  72.879  1.00  0.00    -0.147 A  
ENDBRANCH   9  10
BRANCH   9  18
HETATM   18  C   UNL     1     -11.011   6.224  68.187  1.00  0.00    -0.323 C  
BRANCH  18  19
HETATM   19  N   UNL     1      -9.851   6.331  67.328  1.00  0.00    -0.129 NA 
HETATM   20  N   UNL     1      -8.007   5.728  66.260  1.00  0.00    -0.101 NA 
HETATM   21  C   UNL     1      -9.560   7.355  66.473  1.00  0.00    -0.164 A  
HETATM   22  C   UNL     1      -8.412   6.962  65.826  1.00  0.00    -0.146 A  
HETATM   23  C   UNL     1      -8.895   5.368  67.156  1.00  0.00    -0.109 A  
ENDBRANCH  18  19
ENDBRANCH   9  18
ENDBRANCH   8   9
ENDBRANCH   7   8
ENDBRANCH   3   7
TORSDOF 6
ENDMDL
MODEL      245
REMARK 921   NORMALIZED FREE ENERGY PREDICTED BY IDOCK:   -3.19 KCAL/MOL
REMARK 922        TOTAL FREE ENERGY PREDICTED BY IDOCK:   -5.35 KCAL/MOL
REMARK 923 INTER-LIGAND FREE ENERGY PREDICTED BY IDOCK:   -4.48 KCAL/MOL
REMARK 924 INTRA-LIGAND FREE ENERGY PREDICTED BY IDOCK:   -0.88 KCAL/MOL
REMARK 927      BINDING AFFINITY PREDICTED BY RF-SCORE:    0.00 PKD
ROOT
HETATM    1 CL   UNL     1      -9.495  11.422  68.270  1.00  0.00    -0.181 Cl 
HETATM    2  C   UNL     1     -10.410  10.655  69.512  1.00  0.00    -0.182 A  
HETATM    3  C   UNL     1      -9.948   9.755  70.448  1.00  0.00    -0.294 A  
HETATM    4  C   UNL     1     -11.023   9.388  71.334  1.00  0.00    -0.443 A  
HETATM    5  S   UNL     1     -12.056  11.022  69.652  1.00  0.00    -0.310 SA 
HETATM    6  C   UNL     1     -12.217   9.996  71.010  1.00  0.00    -0.365 A  
ENDROOT
BRANCH   3   7
HETATM    7  C   UNL     1      -8.532   9.271  70.566  1.00  0.00    -0.216 C  
BRANCH   7   8
HETATM    8  O   UNL     1      -8.078   8.716  69.332  1.00  0.00    -0.106 OA 
BRANCH   8   9
HETATM    9  C   UNL     1      -8.866   7.637  68.793  1.00  0.00    -0.131 C  
BRANCH   9  10
HETATM   10  C   UNL     1      -8.790   6.442  69.758  1.00  0.00    -0.142 A  
HETATM   11  C   UNL     1      -7.419   4.883  71.066  1.00  0.00    -0.073 A  
HETATM   12  C   UNL     1      -9.928   5.745  70.212  1.00  0.00    -0.198 A  
HETATM   13  C   UNL     1      -7.536   5.996  70.229  1.00  0.00    -0.090 A  
HETATM   14 CL   UNL     1     -11.539   6.258  69.848  1.00  0.00    -0.472 Cl 
HETATM   15 CL   UNL     1      -8.413   2.789  72.442  1.00  0.00    -0.073 Cl 
HETATM   16  C   UNL     1      -9.810   4.607  71.021  1.00  0.00    -0.268 A  
HETATM   17  C   UNL     1      -8.556   4.180  71.440  1.00  0.00    -0.101 A  
ENDBRANCH   9  10
BRANCH   9  18
HETATM   18  C   UNL     1      -8.431   7.302  67.345  1.00  0.00    -0.119 C  
BRANCH  18  19
HETATM   19  N   UNL     1      -8.252   8.455  66.488  1.00  0.00    -0.103 NA 
HETATM   20  N   UNL     1      -7.210   9.994  65.283  1.00  0.00    -0.131 NA 
HETATM   21  C   UNL     1      -9.229   9.135  65.820  1.00  0.00    -0.234 A  
HETATM   22  C   UNL     1      -8.562  10.085  65.084  1.00  0.00    -0.158 A  
HETATM   23  C   UNL     1      -7.051   9.000  66.124  1.00  0.00    -0.086 A  
ENDBRANCH  18  19
ENDBRANCH   9  18
ENDBRANCH   8   9
ENDBRANCH   7   8
ENDBRANCH   3   7
TORSDOF 6
ENDMDL
MODEL      246
REMARK 921   NORMALIZED FREE ENERGY PREDICTED BY IDOCK:   -3.18 KCAL/MOL
REMARK 922        TOTAL FREE ENERGY PREDICTED BY IDOCK:   -5.34 KCAL/MOL
REMARK 923 INTER-LIGAND FREE ENERGY PREDICTED BY IDOCK:   -5.68 KCAL/MOL
REMARK 924 INTRA-LIGAND FREE ENERGY PREDICTED BY IDOCK:    0.34 KCAL/MOL
REMARK 927      BINDING AFFINITY PREDICTED BY RF-SCORE:    0.00 PKD
ROOT
HETATM    1 CL   UNL     1      -5.812  16.131  68.207  1.00  0.00    -0.103 Cl 
HETATM    2  C   UNL     1      -6.348  14.511  67.974  1.00  0.00    -0.154 A  
HETATM    3  C   UNL     1      -7.539  14.103  67.412  1.00  0.00    -0.179 A  
HETATM    4  C   UNL     1      -7.578  12.663  67.360  1.00  0.00    -0.150 A  
HETATM    5  S   UNL     1      -5.334  13.243  68.453  1.00  0.00    -0.090 SA 
HETATM    6  C   UNL     1      -6.452  12.076  67.897  1.00  0.00    -0.072 A  
ENDROOT
BRANCH   3   7
HETATM    7  C   UNL     1      -8.609  15.012  66.884  1.00  0.00    -0.249 C  
BRANCH   7   8
HETATM    8  O   UNL     1      -9.172  15.801  67.932  1.00  0.00    -0.190 OA 
BRANCH   8   9
HETATM    9  C   UNL     1     -10.611  15.807  68.019  1.00  0.00    -0.279 C  
BRANCH   9  10
HETATM   10  C   UNL     1     -11.172  14.835  66.968  1.00  0.00    -0.347 A  
HETATM   11  C   UNL     1     -12.031  12.604  66.416  1.00  0.00    -0.425 A  
HETATM   12  C   UNL     1     -11.324  15.175  65.609  1.00  0.00    -0.255 A  
HETATM   13  C   UNL     1     -11.563  13.534  67.350  1.00  0.00    -0.392 A  
HETATM   14 CL   UNL     1     -11.033  16.772  65.012  1.00  0.00    -0.241 Cl 
HETATM   15 CL   UNL     1     -12.647  11.799  63.919  1.00  0.00    -0.429 Cl 
HETATM   16  C   UNL     1     -11.757  14.233  64.666  1.00  0.00    -0.439 A  
HETATM   17  C   UNL     1     -12.105  12.951  65.075  1.00  0.00    -0.435 A  
ENDBRANCH   9  10
BRANCH   9  18
HETATM   18  C   UNL     1     -11.167  17.248  67.902  1.00  0.00     0.109 C  
BRANCH  18  19
HETATM   19  N   UNL     1     -10.171  18.290  68.031  1.00  0.00    -0.366 NA 
HETATM   20  N   UNL     1      -8.952  20.063  67.502  1.00  0.00    -0.337 NA 
HETATM   21  C   UNL     1      -9.468  18.612  69.156  1.00  0.00    -0.082 A  
HETATM   22  C   UNL     1      -8.717  19.709  68.804  1.00  0.00    -0.239 A  
HETATM   23  C   UNL     1      -9.838  19.199  67.064  1.00  0.00    -0.336 A  
ENDBRANCH  18  19
ENDBRANCH   9  18
ENDBRANCH   8   9
ENDBRANCH   7   8
ENDBRANCH   3   7
TORSDOF 6
ENDMDL
MODEL      247
REMARK 921   NORMALIZED FREE ENERGY PREDICTED BY IDOCK:   -3.18 KCAL/MOL
REMARK 922        TOTAL FREE ENERGY PREDICTED BY IDOCK:   -5.34 KCAL/MOL
REMARK 923 INTER-LIGAND FREE ENERGY PREDICTED BY IDOCK:   -5.17 KCAL/MOL
REMARK 924 INTRA-LIGAND FREE ENERGY PREDICTED BY IDOCK:   -0.16 KCAL/MOL
REMARK 927      BINDING AFFINITY PREDICTED BY RF-SCORE:    0.00 PKD
ROOT
HETATM    1 CL   UNL     1     -10.331   7.249  72.194  1.00  0.00    -0.210 Cl 
HETATM    2  C   UNL     1     -11.170   8.596  71.525  1.00  0.00    -0.290 A  
HETATM    3  C   UNL     1     -10.656   9.562  70.687  1.00  0.00    -0.374 A  
HETATM    4  C   UNL     1     -11.700  10.484  70.319  1.00  0.00    -0.420 A  
HETATM    5  S   UNL     1     -12.811   8.793  71.891  1.00  0.00    -0.400 SA 
HETATM    6  C   UNL     1     -12.911  10.187  70.906  1.00  0.00    -0.351 A  
ENDROOT
BRANCH   3   7
HETATM    7  C   UNL     1      -9.242   9.618  70.187  1.00  0.00    -0.246 C  
BRANCH   7   8
HETATM    8  O   UNL     1      -9.188  10.171  68.873  1.00  0.00    -0.154 OA 
BRANCH   8   9
HETATM    9  C   UNL     1      -9.076  11.606  68.793  1.00  0.00    -0.021 C  
BRANCH   9  10
HETATM   10  C   UNL     1     -10.123  12.127  67.795  1.00  0.00    -0.203 A  
HETATM   11  C   UNL     1     -11.183  11.967  65.588  1.00  0.00    -0.377 A  
HETATM   12  C   UNL     1     -10.961  13.228  68.063  1.00  0.00    -0.244 A  
HETATM   13  C   UNL     1     -10.278  11.494  66.543  1.00  0.00    -0.253 A  
HETATM   14 CL   UNL     1     -11.000  14.015  69.602  1.00  0.00    -0.152 Cl 
HETATM   15 CL   UNL     1     -13.034  13.700  64.673  1.00  0.00    -0.050 Cl 
HETATM   16  C   UNL     1     -11.842  13.726  67.093  1.00  0.00    -0.441 A  
HETATM   17  C   UNL     1     -11.945  13.095  65.859  1.00  0.00    -0.427 A  
ENDBRANCH   9  10
BRANCH   9  18
HETATM   18  C   UNL     1      -7.625  12.031  68.457  1.00  0.00    -0.126 C  
BRANCH  18  19
HETATM   19  N   UNL     1      -6.626  11.548  69.386  1.00  0.00    -0.107 NA 
HETATM   20  N   UNL     1      -5.271  11.524  71.139  1.00  0.00    -0.224 NA 
HETATM   21  C   UNL     1      -6.106  10.287  69.443  1.00  0.00    -0.042 A  
HETATM   22  C   UNL     1      -5.267  10.296  70.532  1.00  0.00    -0.053 A  
HETATM   23  C   UNL     1      -6.104  12.255  70.435  1.00  0.00    -0.012 A  
ENDBRANCH  18  19
ENDBRANCH   9  18
ENDBRANCH   8   9
ENDBRANCH   7   8
ENDBRANCH   3   7
TORSDOF 6
ENDMDL
MODEL      248
REMARK 921   NORMALIZED FREE ENERGY PREDICTED BY IDOCK:   -3.18 KCAL/MOL
REMARK 922        TOTAL FREE ENERGY PREDICTED BY IDOCK:   -5.33 KCAL/MOL
REMARK 923 INTER-LIGAND FREE ENERGY PREDICTED BY IDOCK:   -4.57 KCAL/MOL
REMARK 924 INTRA-LIGAND FREE ENERGY PREDICTED BY IDOCK:   -0.76 KCAL/MOL
REMARK 927      BINDING AFFINITY PREDICTED BY RF-SCORE:    0.00 PKD
ROOT
HETATM    1 CL   UNL     1      -8.290  11.906  66.325  1.00  0.00    -0.003 Cl 
HETATM    2  C   UNL     1      -9.903  12.512  66.309  1.00  0.00    -0.252 A  
HETATM    3  C   UNL     1     -10.869  12.328  67.275  1.00  0.00    -0.283 A  
HETATM    4  C   UNL     1     -12.065  13.038  66.901  1.00  0.00    -0.349 A  
HETATM    5  S   UNL     1     -10.401  13.456  64.996  1.00  0.00    -0.331 SA 
HETATM    6  C   UNL     1     -11.949  13.684  65.688  1.00  0.00    -0.395 A  
ENDROOT
BRANCH   3   7
HETATM    7  C   UNL     1     -10.690  11.554  68.548  1.00  0.00    -0.209 C  
BRANCH   7   8
HETATM    8  O   UNL     1     -10.833  10.153  68.318  1.00  0.00    -0.226 OA 
BRANCH   8   9
HETATM    9  C   UNL     1      -9.936   9.295  69.051  1.00  0.00    -0.182 C  
BRANCH   9  10
HETATM   10  C   UNL     1      -8.857   8.773  68.088  1.00  0.00    -0.141 A  
HETATM   11  C   UNL     1      -6.509   8.755  67.375  1.00  0.00    -0.057 A  
HETATM   12  C   UNL     1      -9.137   7.902  67.016  1.00  0.00    -0.137 A  
HETATM   13  C   UNL     1      -7.512   9.166  68.258  1.00  0.00    -0.083 A  
HETATM   14 CL   UNL     1     -10.703   7.212  66.764  1.00  0.00    -0.344 Cl 
HETATM   15 CL   UNL     1      -5.607   7.472  65.184  1.00  0.00    -0.033 Cl 
HETATM   16  C   UNL     1      -8.140   7.519  66.109  1.00  0.00    -0.116 A  
HETATM   17  C   UNL     1      -6.832   7.951  66.292  1.00  0.00    -0.058 A  
ENDBRANCH   9  10
BRANCH   9  18
HETATM   18  C   UNL     1     -10.716   8.175  69.784  1.00  0.00    -0.229 C  
BRANCH  18  19
HETATM   19  N   UNL     1     -10.266   7.913  71.134  1.00  0.00    -0.195 NA 
HETATM   20  N   UNL     1      -8.917   7.857  72.891  1.00  0.00    -0.188 NA 
HETATM   21  C   UNL     1     -11.036   7.510  72.188  1.00  0.00    -0.256 A  
HETATM   22  C   UNL     1     -10.180   7.479  73.263  1.00  0.00    -0.343 A  
HETATM   23  C   UNL     1      -9.000   8.122  71.608  1.00  0.00    -0.163 A  
ENDBRANCH  18  19
ENDBRANCH   9  18
ENDBRANCH   8   9
ENDBRANCH   7   8
ENDBRANCH   3   7
TORSDOF 6
ENDMDL
MODEL      249
REMARK 921   NORMALIZED FREE ENERGY PREDICTED BY IDOCK:   -3.17 KCAL/MOL
REMARK 922        TOTAL FREE ENERGY PREDICTED BY IDOCK:   -5.32 KCAL/MOL
REMARK 923 INTER-LIGAND FREE ENERGY PREDICTED BY IDOCK:   -4.47 KCAL/MOL
REMARK 924 INTRA-LIGAND FREE ENERGY PREDICTED BY IDOCK:   -0.85 KCAL/MOL
REMARK 927      BINDING AFFINITY PREDICTED BY RF-SCORE:    0.00 PKD
ROOT
HETATM    1 CL   UNL     1      -7.958  10.489  68.081  1.00  0.00    -0.108 Cl 
HETATM    2  C   UNL     1      -9.452  11.123  67.504  1.00  0.00    -0.168 A  
HETATM    3  C   UNL     1     -10.637  11.222  68.201  1.00  0.00    -0.225 A  
HETATM    4  C   UNL     1     -11.633  11.852  67.371  1.00  0.00    -0.367 A  
HETATM    5  S   UNL     1      -9.524  11.717  65.920  1.00  0.00    -0.198 SA 
HETATM    6  C   UNL     1     -11.163  12.163  66.112  1.00  0.00    -0.338 A  
ENDROOT
BRANCH   3   7
HETATM    7  C   UNL     1     -10.849  10.792  69.623  1.00  0.00    -0.241 C  
BRANCH   7   8
HETATM    8  O   UNL     1     -11.163   9.402  69.695  1.00  0.00    -0.189 OA 
BRANCH   8   9
HETATM    9  C   UNL     1     -10.271   8.590  70.484  1.00  0.00    -0.194 C  
BRANCH   9  10
HETATM   10  C   UNL     1      -9.862   7.361  69.656  1.00  0.00    -0.175 A  
HETATM   11  C   UNL     1     -10.482   5.601  68.062  1.00  0.00    -0.264 A  
HETATM   12  C   UNL     1      -8.574   6.791  69.708  1.00  0.00    -0.141 A  
HETATM   13  C   UNL     1     -10.798   6.749  68.794  1.00  0.00    -0.280 A  
HETATM   14 CL   UNL     1      -7.275   7.508  70.596  1.00  0.00    -0.066 Cl 
HETATM   15 CL   UNL     1      -8.843   3.595  67.316  1.00  0.00    -0.129 Cl 
HETATM   16  C   UNL     1      -8.267   5.619  69.004  1.00  0.00    -0.100 A  
HETATM   17  C   UNL     1      -9.224   5.028  68.188  1.00  0.00    -0.120 A  
ENDBRANCH   9  10
BRANCH   9  18
HETATM   18  C   UNL     1     -10.905   8.241  71.853  1.00  0.00    -0.283 C  
BRANCH  18  19
HETATM   19  N   UNL     1     -10.331   7.083  72.505  1.00  0.00    -0.197 NA 
HETATM   20  N   UNL     1      -8.983   5.895  73.801  1.00  0.00    -0.127 NA 
HETATM   21  C   UNL     1     -10.850   5.820  72.530  1.00  0.00    -0.250 A  
HETATM   22  C   UNL     1      -9.997   5.101  73.334  1.00  0.00    -0.166 A  
HETATM   23  C   UNL     1      -9.214   7.083  73.294  1.00  0.00    -0.144 A  
ENDBRANCH  18  19
ENDBRANCH   9  18
ENDBRANCH   8   9
ENDBRANCH   7   8
ENDBRANCH   3   7
TORSDOF 6
ENDMDL
MODEL      250
REMARK 921   NORMALIZED FREE ENERGY PREDICTED BY IDOCK:   -3.16 KCAL/MOL
REMARK 922        TOTAL FREE ENERGY PREDICTED BY IDOCK:   -5.31 KCAL/MOL
REMARK 923 INTER-LIGAND FREE ENERGY PREDICTED BY IDOCK:   -4.35 KCAL/MOL
REMARK 924 INTRA-LIGAND FREE ENERGY PREDICTED BY IDOCK:   -0.97 KCAL/MOL
REMARK 927      BINDING AFFINITY PREDICTED BY RF-SCORE:    0.00 PKD
ROOT
HETATM    1 CL   UNL     1      -8.571   5.712  72.367  1.00  0.00    -0.122 Cl 
HETATM    2  C   UNL     1      -9.944   6.697  72.034  1.00  0.00    -0.165 A  
HETATM    3  C   UNL     1     -10.472   6.995  70.796  1.00  0.00    -0.231 A  
HETATM    4  C   UNL     1     -11.648   7.811  70.958  1.00  0.00    -0.301 A  
HETATM    5  S   UNL     1     -10.784   7.385  73.333  1.00  0.00    -0.274 SA 
HETATM    6  C   UNL     1     -11.923   8.101  72.278  1.00  0.00    -0.377 A  
ENDROOT
BRANCH   3   7
HETATM    7  C   UNL     1      -9.941   6.502  69.482  1.00  0.00    -0.159 C  
BRANCH   7   8
HETATM    8  O   UNL     1     -10.356   7.352  68.413  1.00  0.00    -0.186 OA 
BRANCH   8   9
HETATM    9  C   UNL     1      -9.326   7.759  67.490  1.00  0.00    -0.139 C  
BRANCH   9  10
HETATM   10  C   UNL     1      -9.549   9.236  67.125  1.00  0.00    -0.208 A  
HETATM   11  C   UNL     1     -10.197  10.912  65.454  1.00  0.00    -0.339 A  
HETATM   12  C   UNL     1      -9.294  10.296  68.018  1.00  0.00    -0.138 A  
HETATM   13  C   UNL     1     -10.029   9.580  65.843  1.00  0.00    -0.342 A  
HETATM   14 CL   UNL     1      -8.847  10.036  69.668  1.00  0.00    -0.219 Cl 
HETATM   15 CL   UNL     1     -10.046  13.574  65.849  1.00  0.00    -0.305 Cl 
HETATM   16  C   UNL     1      -9.427  11.633  67.617  1.00  0.00    -0.177 A  
HETATM   17  C   UNL     1      -9.874  11.933  66.337  1.00  0.00    -0.213 A  
ENDBRANCH   9  10
BRANCH   9  18
HETATM   18  C   UNL     1      -9.273   6.812  66.266  1.00  0.00    -0.127 C  
BRANCH  18  19
HETATM   19  N   UNL     1      -8.050   6.047  66.149  1.00  0.00    -0.107 NA 
HETATM   20  N   UNL     1      -6.314   5.054  65.195  1.00  0.00    -0.034 NA 
HETATM   21  C   UNL     1      -7.236   5.647  67.170  1.00  0.00    -0.075 A  
HETATM   22  C   UNL     1      -6.172   5.031  66.556  1.00  0.00    -0.035 A  
HETATM   23  C   UNL     1      -7.448   5.679  64.977  1.00  0.00    -0.078 A  
ENDBRANCH  18  19
ENDBRANCH   9  18
ENDBRANCH   8   9
ENDBRANCH   7   8
ENDBRANCH   3   7
TORSDOF 6
ENDMDL
MODEL      251
REMARK 921   NORMALIZED FREE ENERGY PREDICTED BY IDOCK:   -3.16 KCAL/MOL
REMARK 922        TOTAL FREE ENERGY PREDICTED BY IDOCK:   -5.31 KCAL/MOL
REMARK 923 INTER-LIGAND FREE ENERGY PREDICTED BY IDOCK:   -4.85 KCAL/MOL
REMARK 924 INTRA-LIGAND FREE ENERGY PREDICTED BY IDOCK:   -0.47 KCAL/MOL
REMARK 927      BINDING AFFINITY PREDICTED BY RF-SCORE:    0.00 PKD
ROOT
HETATM    1 CL   UNL     1     -10.718   5.009  67.600  1.00  0.00     0.011 Cl 
HETATM    2  C   UNL     1      -9.722   5.229  66.212  1.00  0.00    -0.169 A  
HETATM    3  C   UNL     1      -8.975   6.343  65.895  1.00  0.00    -0.111 A  
HETATM    4  C   UNL     1      -8.249   6.103  64.674  1.00  0.00    -0.094 A  
HETATM    5  S   UNL     1      -9.598   3.965  65.093  1.00  0.00    -0.189 SA 
HETATM    6  C   UNL     1      -8.501   4.859  64.134  1.00  0.00    -0.137 A  
ENDROOT
BRANCH   3   7
HETATM    7  C   UNL     1      -8.884   7.594  66.718  1.00  0.00    -0.136 C  
BRANCH   7   8
HETATM    8  O   UNL     1      -9.890   8.532  66.334  1.00  0.00    -0.253 OA 
BRANCH   8   9
HETATM    9  C   UNL     1     -10.247   9.519  67.321  1.00  0.00    -0.234 C  
BRANCH   9  10
HETATM   10  C   UNL     1     -10.740  10.783  66.598  1.00  0.00    -0.268 A  
HETATM   11  C   UNL     1     -10.898  12.092  64.528  1.00  0.00    -0.356 A  
HETATM   12  C   UNL     1     -11.426  11.826  67.252  1.00  0.00    -0.303 A  
HETATM   13  C   UNL     1     -10.511  10.936  65.213  1.00  0.00    -0.299 A  
HETATM   14 CL   UNL     1     -11.916  11.723  68.907  1.00  0.00    -0.360 Cl 
HETATM   15 CL   UNL     1     -11.960  14.565  64.385  1.00  0.00    -0.478 Cl 
HETATM   16  C   UNL     1     -11.782  13.000  66.575  1.00  0.00    -0.437 A  
HETATM   17  C   UNL     1     -11.513  13.128  65.218  1.00  0.00    -0.301 A  
ENDBRANCH   9  10
BRANCH   9  18
HETATM   18  C   UNL     1      -9.073   9.774  68.299  1.00  0.00    -0.122 C  
BRANCH  18  19
HETATM   19  N   UNL     1      -8.086  10.719  67.822  1.00  0.00    -0.110 NA 
HETATM   20  N   UNL     1      -6.472  11.564  66.561  1.00  0.00    -0.090 NA 
HETATM   21  C   UNL     1      -7.941  12.018  68.217  1.00  0.00    -0.149 A  
HETATM   22  C   UNL     1      -6.934  12.520  67.427  1.00  0.00    -0.147 A  
HETATM   23  C   UNL     1      -7.189  10.494  66.814  1.00  0.00    -0.114 A  
ENDBRANCH  18  19
ENDBRANCH   9  18
ENDBRANCH   8   9
ENDBRANCH   7   8
ENDBRANCH   3   7
TORSDOF 6
ENDMDL
MODEL      252
REMARK 921   NORMALIZED FREE ENERGY PREDICTED BY IDOCK:   -3.16 KCAL/MOL
REMARK 922        TOTAL FREE ENERGY PREDICTED BY IDOCK:   -5.31 KCAL/MOL
REMARK 923 INTER-LIGAND FREE ENERGY PREDICTED BY IDOCK:   -4.19 KCAL/MOL
REMARK 924 INTRA-LIGAND FREE ENERGY PREDICTED BY IDOCK:   -1.12 KCAL/MOL
REMARK 927      BINDING AFFINITY PREDICTED BY RF-SCORE:    0.00 PKD
ROOT
HETATM    1 CL   UNL     1      -9.366   8.586  66.492  1.00  0.00    -0.237 Cl 
HETATM    2  C   UNL     1      -8.195   9.832  66.693  1.00  0.00    -0.120 A  
HETATM    3  C   UNL     1      -8.160  10.787  67.686  1.00  0.00    -0.114 A  
HETATM    4  C   UNL     1      -6.990  11.612  67.520  1.00  0.00    -0.104 A  
HETATM    5  S   UNL     1      -6.916   9.929  65.588  1.00  0.00    -0.114 SA 
HETATM    6  C   UNL     1      -6.236  11.260  66.420  1.00  0.00    -0.106 A  
ENDROOT
BRANCH   3   7
HETATM    7  C   UNL     1      -9.154  10.919  68.803  1.00  0.00    -0.171 C  
BRANCH   7   8
HETATM    8  O   UNL     1      -8.661  10.314  69.998  1.00  0.00    -0.081 OA 
BRANCH   8   9
HETATM    9  C   UNL     1      -9.582   9.458  70.702  1.00  0.00    -0.268 C  
BRANCH   9  10
HETATM   10  C   UNL     1      -8.956   8.061  70.831  1.00  0.00    -0.150 A  
HETATM   11  C   UNL     1      -7.891   6.129  69.756  1.00  0.00    -0.106 A  
HETATM   12  C   UNL     1      -8.879   7.361  72.052  1.00  0.00    -0.124 A  
HETATM   13  C   UNL     1      -8.424   7.420  69.691  1.00  0.00    -0.133 A  
HETATM   14 CL   UNL     1      -9.347   8.066  73.560  1.00  0.00    -0.326 Cl 
HETATM   15 CL   UNL     1      -7.268   3.841  71.038  1.00  0.00    -0.033 Cl 
HETATM   16  C   UNL     1      -8.379   6.053  72.111  1.00  0.00    -0.110 A  
HETATM   17  C   UNL     1      -7.891   5.443  70.962  1.00  0.00    -0.103 A  
ENDBRANCH   9  10
BRANCH   9  18
HETATM   18  C   UNL     1     -10.974   9.462  70.021  1.00  0.00    -0.239 C  
BRANCH  18  19
HETATM   19  N   UNL     1     -12.080   9.179  70.909  1.00  0.00    -0.257 NA 
HETATM   20  N   UNL     1     -13.824   9.550  72.224  1.00  0.00    -0.376 NA 
HETATM   21  C   UNL     1     -12.607   7.951  71.193  1.00  0.00    -0.175 A  
HETATM   22  C   UNL     1     -13.681   8.205  72.011  1.00  0.00    -0.295 A  
HETATM   23  C   UNL     1     -12.854  10.113  71.543  1.00  0.00    -0.443 A  
ENDBRANCH  18  19
ENDBRANCH   9  18
ENDBRANCH   8   9
ENDBRANCH   7   8
ENDBRANCH   3   7
TORSDOF 6
ENDMDL
MODEL      253
REMARK 921   NORMALIZED FREE ENERGY PREDICTED BY IDOCK:   -3.14 KCAL/MOL
REMARK 922        TOTAL FREE ENERGY PREDICTED BY IDOCK:   -5.29 KCAL/MOL
REMARK 923 INTER-LIGAND FREE ENERGY PREDICTED BY IDOCK:   -4.51 KCAL/MOL
REMARK 924 INTRA-LIGAND FREE ENERGY PREDICTED BY IDOCK:   -0.77 KCAL/MOL
REMARK 927      BINDING AFFINITY PREDICTED BY RF-SCORE:    0.00 PKD
ROOT
HETATM    1 CL   UNL     1     -10.646  13.148  64.462  1.00  0.00    -0.398 Cl 
HETATM    2  C   UNL     1     -10.231  13.621  66.065  1.00  0.00    -0.307 A  
HETATM    3  C   UNL     1      -9.312  13.019  66.897  1.00  0.00    -0.241 A  
HETATM    4  C   UNL     1      -9.229  13.752  68.135  1.00  0.00    -0.199 A  
HETATM    5  S   UNL     1     -10.993  14.976  66.735  1.00  0.00    -0.320 SA 
HETATM    6  C   UNL     1     -10.091  14.828  68.180  1.00  0.00    -0.221 A  
ENDROOT
BRANCH   3   7
HETATM    7  C   UNL     1      -8.481  11.818  66.551  1.00  0.00    -0.125 C  
BRANCH   7   8
HETATM    8  O   UNL     1      -9.296  10.762  66.045  1.00  0.00    -0.174 OA 
BRANCH   8   9
HETATM    9  C   UNL     1      -9.508   9.644  66.930  1.00  0.00    -0.153 C  
BRANCH   9  10
HETATM   10  C   UNL     1      -8.952   8.375  66.263  1.00  0.00    -0.213 A  
HETATM   11  C   UNL     1      -7.973   7.297  64.287  1.00  0.00    -0.093 A  
HETATM   12  C   UNL     1      -8.921   7.120  66.901  1.00  0.00    -0.134 A  
HETATM   13  C   UNL     1      -8.441   8.437  64.948  1.00  0.00    -0.141 A  
HETATM   14 CL   UNL     1      -9.369   6.908  68.559  1.00  0.00    -0.135 Cl 
HETATM   15 CL   UNL     1      -7.476   4.655  64.101  1.00  0.00    -0.065 Cl 
HETATM   16  C   UNL     1      -8.487   5.970  66.228  1.00  0.00    -0.130 A  
HETATM   17  C   UNL     1      -8.019   6.065  64.923  1.00  0.00    -0.126 A  
ENDBRANCH   9  10
BRANCH   9  18
HETATM   18  C   UNL     1     -10.998   9.535  67.338  1.00  0.00    -0.033 C  
BRANCH  18  19
HETATM   19  N   UNL     1     -11.324  10.166  68.599  1.00  0.00    -0.167 NA 
HETATM   20  N   UNL     1     -12.222  11.613  70.017  1.00  0.00    -0.285 NA 
HETATM   21  C   UNL     1     -11.085   9.668  69.848  1.00  0.00    -0.235 A  
HETATM   22  C   UNL     1     -11.645  10.582  70.709  1.00  0.00    -0.338 A  
HETATM   23  C   UNL     1     -12.023  11.333  68.750  1.00  0.00    -0.282 A  
ENDBRANCH  18  19
ENDBRANCH   9  18
ENDBRANCH   8   9
ENDBRANCH   7   8
ENDBRANCH   3   7
TORSDOF 6
ENDMDL
MODEL      254
REMARK 921   NORMALIZED FREE ENERGY PREDICTED BY IDOCK:   -3.13 KCAL/MOL
REMARK 922        TOTAL FREE ENERGY PREDICTED BY IDOCK:   -5.26 KCAL/MOL
REMARK 923 INTER-LIGAND FREE ENERGY PREDICTED BY IDOCK:   -4.40 KCAL/MOL
REMARK 924 INTRA-LIGAND FREE ENERGY PREDICTED BY IDOCK:   -0.87 KCAL/MOL
REMARK 927      BINDING AFFINITY PREDICTED BY RF-SCORE:    0.00 PKD
ROOT
HETATM    1 CL   UNL     1      -5.225  14.983  70.034  1.00  0.00    -0.100 Cl 
HETATM    2  C   UNL     1      -5.775  15.772  68.605  1.00  0.00    -0.101 A  
HETATM    3  C   UNL     1      -6.676  15.285  67.682  1.00  0.00    -0.198 A  
HETATM    4  C   UNL     1      -6.900  16.275  66.660  1.00  0.00     0.003 A  
HETATM    5  S   UNL     1      -5.191  17.322  68.257  1.00  0.00    -0.134 SA 
HETATM    6  C   UNL     1      -6.154  17.419  66.847  1.00  0.00    -0.177 A  
ENDROOT
BRANCH   3   7
HETATM    7  C   UNL     1      -7.362  13.952  67.755  1.00  0.00    -0.162 C  
BRANCH   7   8
HETATM    8  O   UNL     1      -8.492  13.912  66.883  1.00  0.00    -0.174 OA 
BRANCH   8   9
HETATM    9  C   UNL     1      -9.777  14.129  67.499  1.00  0.00    -0.234 C  
BRANCH   9  10
HETATM   10  C   UNL     1     -10.047  15.641  67.555  1.00  0.00    -0.253 A  
HETATM   11  C   UNL     1     -10.195  17.701  68.881  1.00  0.00    -0.354 A  
HETATM   12  C   UNL     1     -10.435  16.396  66.430  1.00  0.00    -0.286 A  
HETATM   13  C   UNL     1      -9.910  16.336  68.776  1.00  0.00    -0.238 A  
HETATM   14 CL   UNL     1     -10.501  15.725  64.837  1.00  0.00    -0.335 Cl 
HETATM   15 CL   UNL     1     -11.023  20.071  67.899  1.00  0.00    -0.126 Cl 
HETATM   16  C   UNL     1     -10.757  17.756  66.541  1.00  0.00    -0.111 A  
HETATM   17  C   UNL     1     -10.638  18.400  67.766  1.00  0.00    -0.391 A  
ENDBRANCH   9  10
BRANCH   9  18
HETATM   18  C   UNL     1      -9.856  13.426  68.877  1.00  0.00     0.087 C  
BRANCH  18  19
HETATM   19  N   UNL     1     -10.650  12.216  68.892  1.00  0.00    -0.187 NA 
HETATM   20  N   UNL     1     -11.252  10.132  68.443  1.00  0.00    -0.220 NA 
HETATM   21  C   UNL     1     -11.721  11.953  69.697  1.00  0.00    -0.343 A  
HETATM   22  C   UNL     1     -12.080  10.659  69.399  1.00  0.00    -0.178 A  
HETATM   23  C   UNL     1     -10.396  11.087  68.163  1.00  0.00    -0.182 A  
ENDBRANCH  18  19
ENDBRANCH   9  18
ENDBRANCH   8   9
ENDBRANCH   7   8
ENDBRANCH   3   7
TORSDOF 6
ENDMDL
MODEL      255
REMARK 921   NORMALIZED FREE ENERGY PREDICTED BY IDOCK:   -3.10 KCAL/MOL
REMARK 922        TOTAL FREE ENERGY PREDICTED BY IDOCK:   -5.23 KCAL/MOL
REMARK 923 INTER-LIGAND FREE ENERGY PREDICTED BY IDOCK:   -5.27 KCAL/MOL
REMARK 924 INTRA-LIGAND FREE ENERGY PREDICTED BY IDOCK:    0.03 KCAL/MOL
REMARK 927      BINDING AFFINITY PREDICTED BY RF-SCORE:    0.00 PKD
ROOT
HETATM    1 CL   UNL     1      -6.511   7.110  72.874  1.00  0.00    -0.063 Cl 
HETATM    2  C   UNL     1      -6.507   8.486  71.838  1.00  0.00    -0.071 A  
HETATM    3  C   UNL     1      -7.505   8.874  70.970  1.00  0.00    -0.124 A  
HETATM    4  C   UNL     1      -7.128  10.106  70.324  1.00  0.00    -0.146 A  
HETATM    5  S   UNL     1      -5.164   9.516  71.862  1.00  0.00    -0.076 SA 
HETATM    6  C   UNL     1      -5.884  10.556  70.711  1.00  0.00    -0.093 A  
ENDROOT
BRANCH   3   7
HETATM    7  C   UNL     1      -8.808   8.159  70.766  1.00  0.00    -0.141 C  
BRANCH   7   8
HETATM    8  O   UNL     1      -9.181   8.161  69.388  1.00  0.00    -0.154 OA 
BRANCH   8   9
HETATM    9  C   UNL     1     -10.588   8.018  69.111  1.00  0.00    -0.169 C  
BRANCH   9  10
HETATM   10  C   UNL     1     -11.355   9.107  69.879  1.00  0.00    -0.047 A  
HETATM   11  C   UNL     1     -12.070  11.449  70.049  1.00  0.00    -0.417 A  
HETATM   12  C   UNL     1     -12.007   8.871  71.105  1.00  0.00    -0.293 A  
HETATM   13  C   UNL     1     -11.426  10.418  69.358  1.00  0.00    -0.292 A  
HETATM   14 CL   UNL     1     -12.140   7.292  71.799  1.00  0.00    -0.333 Cl 
HETATM   15 CL   UNL     1     -13.408  12.469  72.154  1.00  0.00    -0.612 Cl 
HETATM   16  C   UNL     1     -12.621   9.911  71.816  1.00  0.00    -0.506 A  
HETATM   17  C   UNL     1     -12.645  11.195  71.286  1.00  0.00    -0.398 A  
ENDBRANCH   9  10
BRANCH   9  18
HETATM   18  C   UNL     1     -11.070   6.578  69.418  1.00  0.00    -0.348 C  
BRANCH  18  19
HETATM   19  N   UNL     1     -10.515   5.560  68.552  1.00  0.00    -0.185 NA 
HETATM   20  N   UNL     1      -9.948   4.524  66.678  1.00  0.00    -0.225 NA 
HETATM   21  C   UNL     1      -9.723   4.513  68.926  1.00  0.00    -0.154 A  
HETATM   22  C   UNL     1      -9.388   3.883  67.751  1.00  0.00    -0.183 A  
HETATM   23  C   UNL     1     -10.613   5.534  67.187  1.00  0.00    -0.240 A  
ENDBRANCH  18  19
ENDBRANCH   9  18
ENDBRANCH   8   9
ENDBRANCH   7   8
ENDBRANCH   3   7
TORSDOF 6
ENDMDL
MODEL      256
REMARK 921   NORMALIZED FREE ENERGY PREDICTED BY IDOCK:   -3.09 KCAL/MOL
REMARK 922        TOTAL FREE ENERGY PREDICTED BY IDOCK:   -5.21 KCAL/MOL
REMARK 923 INTER-LIGAND FREE ENERGY PREDICTED BY IDOCK:   -4.84 KCAL/MOL
REMARK 924 INTRA-LIGAND FREE ENERGY PREDICTED BY IDOCK:   -0.37 KCAL/MOL
REMARK 927      BINDING AFFINITY PREDICTED BY RF-SCORE:    0.00 PKD
ROOT
HETATM    1 CL   UNL     1     -12.900  10.096  71.947  1.00  0.00    -0.525 Cl 
HETATM    2  C   UNL     1     -11.911   8.895  71.208  1.00  0.00    -0.307 A  
HETATM    3  C   UNL     1     -11.043   9.068  70.152  1.00  0.00    -0.228 A  
HETATM    4  C   UNL     1     -10.374   7.824  69.869  1.00  0.00    -0.223 A  
HETATM    5  S   UNL     1     -11.960   7.316  71.818  1.00  0.00    -0.323 SA 
HETATM    6  C   UNL     1     -10.782   6.795  70.692  1.00  0.00    -0.235 A  
ENDROOT
BRANCH   3   7
HETATM    7  C   UNL     1     -10.789  10.363  69.437  1.00  0.00    -0.248 C  
BRANCH   7   8
HETATM    8  O   UNL     1     -10.129  10.138  68.192  1.00  0.00    -0.145 OA 
BRANCH   8   9
HETATM    9  C   UNL     1      -8.913  10.880  67.974  1.00  0.00    -0.145 C  
BRANCH   9  10
HETATM   10  C   UNL     1      -9.261  12.372  67.855  1.00  0.00    -0.192 A  
HETATM   11  C   UNL     1      -8.868  14.685  68.574  1.00  0.00    -0.182 A  
HETATM   12  C   UNL     1     -10.277  12.861  67.009  1.00  0.00    -0.243 A  
HETATM   13  C   UNL     1      -8.549  13.325  68.616  1.00  0.00     0.026 A  
HETATM   14 CL   UNL     1     -11.137  11.844  65.905  1.00  0.00    -0.357 Cl 
HETATM   15 CL   UNL     1     -10.336  16.791  67.753  1.00  0.00    -0.307 Cl 
HETATM   16  C   UNL     1     -10.623  14.219  66.994  1.00  0.00    -0.280 A  
HETATM   17  C   UNL     1      -9.918  15.123  67.780  1.00  0.00    -0.225 A  
ENDBRANCH   9  10
BRANCH   9  18
HETATM   18  C   UNL     1      -8.132  10.319  66.760  1.00  0.00    -0.121 C  
BRANCH  18  19
HETATM   19  N   UNL     1      -8.184   8.879  66.623  1.00  0.00    -0.110 NA 
HETATM   20  N   UNL     1      -8.932   6.886  66.012  1.00  0.00    -0.139 NA 
HETATM   21  C   UNL     1      -7.194   7.993  66.939  1.00  0.00    -0.082 A  
HETATM   22  C   UNL     1      -7.681   6.766  66.557  1.00  0.00    -0.102 A  
HETATM   23  C   UNL     1      -9.206   8.168  66.055  1.00  0.00    -0.147 A  
ENDBRANCH  18  19
ENDBRANCH   9  18
ENDBRANCH   8   9
ENDBRANCH   7   8
ENDBRANCH   3   7
TORSDOF 6
ENDMDL
MODEL      257
REMARK 921   NORMALIZED FREE ENERGY PREDICTED BY IDOCK:   -3.07 KCAL/MOL
REMARK 922        TOTAL FREE ENERGY PREDICTED BY IDOCK:   -5.18 KCAL/MOL
REMARK 923 INTER-LIGAND FREE ENERGY PREDICTED BY IDOCK:   -5.96 KCAL/MOL
REMARK 924 INTRA-LIGAND FREE ENERGY PREDICTED BY IDOCK:    0.78 KCAL/MOL
REMARK 927      BINDING AFFINITY PREDICTED BY RF-SCORE:    0.00 PKD
ROOT
HETATM    1 CL   UNL     1     -10.122   7.303  71.387  1.00  0.00    -0.191 Cl 
HETATM    2  C   UNL     1     -11.624   8.142  71.472  1.00  0.00    -0.275 A  
HETATM    3  C   UNL     1     -11.894   9.411  71.006  1.00  0.00    -0.396 A  
HETATM    4  C   UNL     1     -13.283   9.721  71.232  1.00  0.00    -0.452 A  
HETATM    5  S   UNL     1     -12.949   7.364  72.181  1.00  0.00     0.031 SA 
HETATM    6  C   UNL     1     -13.964   8.704  71.866  1.00  0.00    -0.442 A  
ENDROOT
BRANCH   3   7
HETATM    7  C   UNL     1     -10.912  10.313  70.318  1.00  0.00    -0.309 C  
BRANCH   7   8
HETATM    8  O   UNL     1     -11.012  10.190  68.900  1.00  0.00    -0.219 OA 
BRANCH   8   9
HETATM    9  C   UNL     1     -10.941  11.418  68.149  1.00  0.00    -0.232 C  
BRANCH   9  10
HETATM   10  C   UNL     1     -11.198  12.595  69.105  1.00  0.00    -0.300 A  
HETATM   11  C   UNL     1     -12.514  13.566  70.935  1.00  0.00    -0.448 A  
HETATM   12  C   UNL     1     -10.460  13.794  69.065  1.00  0.00    -0.098 A  
HETATM   13  C   UNL     1     -12.214  12.501  70.080  1.00  0.00    -0.307 A  
HETATM   14 CL   UNL     1      -9.089  14.009  68.033  1.00  0.00    -0.182 Cl 
HETATM   15 CL   UNL     1     -12.199  16.082  71.849  1.00  0.00    -0.547 Cl 
HETATM   16  C   UNL     1     -10.783  14.877  69.895  1.00  0.00    -0.198 A  
HETATM   17  C   UNL     1     -11.810  14.757  70.823  1.00  0.00    -0.312 A  
ENDBRANCH   9  10
BRANCH   9  18
HETATM   18  C   UNL     1     -11.898  11.379  66.932  1.00  0.00     0.359 C  
BRANCH  18  19
HETATM   19  N   UNL     1     -11.265  11.652  65.659  1.00  0.00    -0.261 NA 
HETATM   20  N   UNL     1     -10.360  12.818  64.007  1.00  0.00    -0.412 NA 
HETATM   21  C   UNL     1     -10.728  10.735  64.801  1.00  0.00    -0.098 A  
HETATM   22  C   UNL     1     -10.178  11.479  63.785  1.00  0.00    -0.382 A  
HETATM   23  C   UNL     1     -11.008  12.894  65.146  1.00  0.00    -0.289 A  
ENDBRANCH  18  19
ENDBRANCH   9  18
ENDBRANCH   8   9
ENDBRANCH   7   8
ENDBRANCH   3   7
TORSDOF 6
ENDMDL
MODEL      258
REMARK 921   NORMALIZED FREE ENERGY PREDICTED BY IDOCK:   -3.05 KCAL/MOL
REMARK 922        TOTAL FREE ENERGY PREDICTED BY IDOCK:   -5.17 KCAL/MOL
REMARK 923 INTER-LIGAND FREE ENERGY PREDICTED BY IDOCK:   -4.31 KCAL/MOL
REMARK 924 INTRA-LIGAND FREE ENERGY PREDICTED BY IDOCK:   -0.86 KCAL/MOL
REMARK 927      BINDING AFFINITY PREDICTED BY RF-SCORE:    0.00 PKD
ROOT
HETATM    1 CL   UNL     1      -9.907   5.819  68.430  1.00  0.00    -0.159 Cl 
HETATM    2  C   UNL     1      -9.358   5.541  66.821  1.00  0.00    -0.132 A  
HETATM    3  C   UNL     1      -8.464   6.306  66.104  1.00  0.00    -0.138 A  
HETATM    4  C   UNL     1      -8.239   5.703  64.816  1.00  0.00    -0.134 A  
HETATM    5  S   UNL     1      -9.937   4.184  65.990  1.00  0.00    -0.134 SA 
HETATM    6  C   UNL     1      -8.979   4.555  64.623  1.00  0.00    -0.152 A  
ENDROOT
BRANCH   3   7
HETATM    7  C   UNL     1      -7.784   7.547  66.604  1.00  0.00    -0.101 C  
BRANCH   7   8
HETATM    8  O   UNL     1      -8.684   8.654  66.614  1.00  0.00    -0.116 OA 
BRANCH   8   9
HETATM    9  C   UNL     1      -8.422   9.677  67.595  1.00  0.00    -0.125 C  
BRANCH   9  10
HETATM   10  C   UNL     1      -9.259   9.383  68.850  1.00  0.00    -0.140 A  
HETATM   11  C   UNL     1     -11.432   9.448  69.988  1.00  0.00    -0.111 A  
HETATM   12  C   UNL     1      -8.711   8.846  70.032  1.00  0.00    -0.147 A  
HETATM   13  C   UNL     1     -10.645   9.653  68.851  1.00  0.00    -0.239 A  
HETATM   14 CL   UNL     1      -7.067   8.322  70.141  1.00  0.00    -0.040 Cl 
HETATM   15 CL   UNL     1     -11.806   8.758  72.567  1.00  0.00    -0.359 Cl 
HETATM   16  C   UNL     1      -9.492   8.674  71.184  1.00  0.00    -0.274 A  
HETATM   17  C   UNL     1     -10.847   8.979  71.156  1.00  0.00    -0.294 A  
ENDBRANCH   9  10
BRANCH   9  18
HETATM   18  C   UNL     1      -8.657  11.088  67.000  1.00  0.00    -0.140 C  
BRANCH  18  19
HETATM   19  N   UNL     1      -9.318  11.096  65.712  1.00  0.00    -0.209 NA 
HETATM   20  N   UNL     1      -9.672  10.670  63.567  1.00  0.00    -0.317 NA 
HETATM   21  C   UNL     1     -10.587  11.525  65.448  1.00  0.00    -0.282 A  
HETATM   22  C   UNL     1     -10.783  11.256  64.114  1.00  0.00    -0.369 A  
HETATM   23  C   UNL     1      -8.810  10.577  64.552  1.00  0.00    -0.200 A  
ENDBRANCH  18  19
ENDBRANCH   9  18
ENDBRANCH   8   9
ENDBRANCH   7   8
ENDBRANCH   3   7
TORSDOF 6
ENDMDL
MODEL      259
REMARK 921   NORMALIZED FREE ENERGY PREDICTED BY IDOCK:   -3.05 KCAL/MOL
REMARK 922        TOTAL FREE ENERGY PREDICTED BY IDOCK:   -5.16 KCAL/MOL
REMARK 923 INTER-LIGAND FREE ENERGY PREDICTED BY IDOCK:   -4.43 KCAL/MOL
REMARK 924 INTRA-LIGAND FREE ENERGY PREDICTED BY IDOCK:   -0.73 KCAL/MOL
REMARK 927      BINDING AFFINITY PREDICTED BY RF-SCORE:    0.00 PKD
ROOT
HETATM    1 CL   UNL     1     -10.958  10.649  69.432  1.00  0.00    -0.275 Cl 
HETATM    2  C   UNL     1     -11.671   9.717  70.693  1.00  0.00    -0.280 A  
HETATM    3  C   UNL     1     -11.088   8.680  71.390  1.00  0.00    -0.343 A  
HETATM    4  C   UNL     1     -12.005   8.199  72.392  1.00  0.00    -0.431 A  
HETATM    5  S   UNL     1     -13.251  10.082  71.179  1.00  0.00    -0.299 SA 
HETATM    6  C   UNL     1     -13.212   8.866  72.380  1.00  0.00    -0.430 A  
ENDROOT
BRANCH   3   7
HETATM    7  C   UNL     1      -9.695   8.165  71.180  1.00  0.00    -0.163 C  
BRANCH   7   8
HETATM    8  O   UNL     1      -9.686   6.741  71.086  1.00  0.00    -0.174 OA 
BRANCH   8   9
HETATM    9  C   UNL     1      -8.420   6.133  70.763  1.00  0.00    -0.131 C  
BRANCH   9  10
HETATM   10  C   UNL     1      -8.511   5.525  69.354  1.00  0.00    -0.105 A  
HETATM   11  C   UNL     1      -9.859   4.422  67.625  1.00  0.00    -0.168 A  
HETATM   12  C   UNL     1      -7.407   5.429  68.484  1.00  0.00    -0.075 A  
HETATM   13  C   UNL     1      -9.744   5.029  68.879  1.00  0.00    -0.234 A  
HETATM   14 CL   UNL     1      -5.867   6.124  68.855  1.00  0.00    -0.019 Cl 
HETATM   15 CL   UNL     1      -8.866   3.509  65.291  1.00  0.00    -0.119 Cl 
HETATM   16  C   UNL     1      -7.511   4.789  67.241  1.00  0.00    -0.082 A  
HETATM   17  C   UNL     1      -8.736   4.286  66.821  1.00  0.00    -0.113 A  
ENDBRANCH   9  10
BRANCH   9  18
HETATM   18  C   UNL     1      -7.995   5.122  71.856  1.00  0.00    -0.112 C  
BRANCH  18  19
HETATM   19  N   UNL     1      -9.083   4.624  72.671  1.00  0.00    -0.126 NA 
HETATM   20  N   UNL     1     -10.456   4.442  74.400  1.00  0.00    -0.255 NA 
HETATM   21  C   UNL     1     -10.066   3.760  72.282  1.00  0.00    -0.157 A  
HETATM   22  C   UNL     1     -10.901   3.658  73.369  1.00  0.00    -0.218 A  
HETATM   23  C   UNL     1      -9.366   5.019  73.950  1.00  0.00    -0.124 A  
ENDBRANCH  18  19
ENDBRANCH   9  18
ENDBRANCH   8   9
ENDBRANCH   7   8
ENDBRANCH   3   7
TORSDOF 6
ENDMDL
MODEL      260
REMARK 921   NORMALIZED FREE ENERGY PREDICTED BY IDOCK:   -3.05 KCAL/MOL
REMARK 922        TOTAL FREE ENERGY PREDICTED BY IDOCK:   -5.16 KCAL/MOL
REMARK 923 INTER-LIGAND FREE ENERGY PREDICTED BY IDOCK:   -4.19 KCAL/MOL
REMARK 924 INTRA-LIGAND FREE ENERGY PREDICTED BY IDOCK:   -0.97 KCAL/MOL
REMARK 927      BINDING AFFINITY PREDICTED BY RF-SCORE:    0.00 PKD
ROOT
HETATM    1 CL   UNL     1     -12.680  11.832  63.327  1.00  0.00    -0.553 Cl 
HETATM    2  C   UNL     1     -11.759  12.525  64.608  1.00  0.00    -0.359 A  
HETATM    3  C   UNL     1     -10.635  11.995  65.204  1.00  0.00    -0.330 A  
HETATM    4  C   UNL     1     -10.142  12.910  66.201  1.00  0.00    -0.281 A  
HETATM    5  S   UNL     1     -12.234  14.027  65.228  1.00  0.00    -0.464 SA 
HETATM    6  C   UNL     1     -10.918  14.044  66.320  1.00  0.00    -0.300 A  
ENDROOT
BRANCH   3   7
HETATM    7  C   UNL     1      -9.988  10.692  64.836  1.00  0.00    -0.318 C  
BRANCH   7   8
HETATM    8  O   UNL     1      -8.682  10.593  65.405  1.00  0.00    -0.178 OA 
BRANCH   8   9
HETATM    9  C   UNL     1      -8.384   9.365  66.099  1.00  0.00    -0.115 C  
BRANCH   9  10
HETATM   10  C   UNL     1      -7.691   9.706  67.428  1.00  0.00    -0.095 A  
HETATM   11  C   UNL     1      -5.616  10.141  68.664  1.00  0.00    -0.038 A  
HETATM   12  C   UNL     1      -8.389   9.859  68.643  1.00  0.00    -0.110 A  
HETATM   13  C   UNL     1      -6.291   9.880  67.468  1.00  0.00    -0.063 A  
HETATM   14 CL   UNL     1     -10.115   9.827  68.735  1.00  0.00    -0.177 Cl 
HETATM   15 CL   UNL     1      -5.498  10.507  71.332  1.00  0.00    -0.045 Cl 
HETATM   16  C   UNL     1      -7.711  10.084  69.849  1.00  0.00    -0.183 A  
HETATM   17  C   UNL     1      -6.328  10.220  69.853  1.00  0.00    -0.082 A  
ENDBRANCH   9  10
BRANCH   9  18
HETATM   18  C   UNL     1      -7.572   8.403  65.197  1.00  0.00    -0.088 C  
BRANCH  18  19
HETATM   19  N   UNL     1      -7.661   7.007  65.571  1.00  0.00    -0.098 NA 
HETATM   20  N   UNL     1      -8.486   4.957  65.728  1.00  0.00    -0.118 NA 
HETATM   21  C   UNL     1      -6.672   6.245  66.124  1.00  0.00    -0.056 A  
HETATM   22  C   UNL     1      -7.207   4.982  66.216  1.00  0.00    -0.077 A  
HETATM   23  C   UNL     1      -8.731   6.186  65.338  1.00  0.00    -0.062 A  
ENDBRANCH  18  19
ENDBRANCH   9  18
ENDBRANCH   8   9
ENDBRANCH   7   8
ENDBRANCH   3   7
TORSDOF 6
ENDMDL
MODEL      261
REMARK 921   NORMALIZED FREE ENERGY PREDICTED BY IDOCK:   -3.04 KCAL/MOL
REMARK 922        TOTAL FREE ENERGY PREDICTED BY IDOCK:   -5.15 KCAL/MOL
REMARK 923 INTER-LIGAND FREE ENERGY PREDICTED BY IDOCK:   -4.60 KCAL/MOL
REMARK 924 INTRA-LIGAND FREE ENERGY PREDICTED BY IDOCK:   -0.55 KCAL/MOL
REMARK 927      BINDING AFFINITY PREDICTED BY RF-SCORE:    0.00 PKD
ROOT
HETATM    1 CL   UNL     1     -11.922  12.031  69.358  1.00  0.00    -0.352 Cl 
HETATM    2  C   UNL     1     -12.237  10.758  70.474  1.00  0.00    -0.366 A  
HETATM    3  C   UNL     1     -11.728   9.478  70.439  1.00  0.00    -0.227 A  
HETATM    4  C   UNL     1     -12.202   8.739  71.582  1.00  0.00    -0.399 A  
HETATM    5  S   UNL     1     -13.263  11.063  71.786  1.00  0.00    -0.297 SA 
HETATM    6  C   UNL     1     -13.045   9.477  72.386  1.00  0.00    -0.349 A  
ENDROOT
BRANCH   3   7
HETATM    7  C   UNL     1     -10.781   8.945  69.404  1.00  0.00    -0.181 C  
BRANCH   7   8
HETATM    8  O   UNL     1     -10.851   7.522  69.331  1.00  0.00    -0.224 OA 
BRANCH   8   9
HETATM    9  C   UNL     1      -9.655   6.807  69.701  1.00  0.00    -0.148 C  
BRANCH   9  10
HETATM   10  C   UNL     1      -8.668   6.857  68.524  1.00  0.00    -0.125 A  
HETATM   11  C   UNL     1      -6.432   7.415  67.679  1.00  0.00    -0.056 A  
HETATM   12  C   UNL     1      -9.012   6.472  67.213  1.00  0.00    -0.114 A  
HETATM   13  C   UNL     1      -7.346   7.307  68.732  1.00  0.00    -0.096 A  
HETATM   14 CL   UNL     1     -10.540   5.760  66.824  1.00  0.00    -0.352 Cl 
HETATM   15 CL   UNL     1      -5.715   7.254  65.086  1.00  0.00    -0.036 Cl 
HETATM   16  C   UNL     1      -8.110   6.615  66.150  1.00  0.00    -0.118 A  
HETATM   17  C   UNL     1      -6.826   7.089  66.389  1.00  0.00    -0.061 A  
ENDBRANCH   9  10
BRANCH   9  18
HETATM   18  C   UNL     1      -9.992   5.372  70.176  1.00  0.00    -0.232 C  
BRANCH  18  19
HETATM   19  N   UNL     1      -9.913   5.178  71.608  1.00  0.00    -0.177 NA 
HETATM   20  N   UNL     1      -9.124   4.492  73.561  1.00  0.00    -0.106 NA 
HETATM   21  C   UNL     1     -10.678   5.790  72.559  1.00  0.00    -0.237 A  
HETATM   22  C   UNL     1     -10.176   5.347  73.759  1.00  0.00    -0.223 A  
HETATM   23  C   UNL     1      -8.982   4.415  72.259  1.00  0.00    -0.120 A  
ENDBRANCH  18  19
ENDBRANCH   9  18
ENDBRANCH   8   9
ENDBRANCH   7   8
ENDBRANCH   3   7
TORSDOF 6
ENDMDL
MODEL      262
REMARK 921   NORMALIZED FREE ENERGY PREDICTED BY IDOCK:   -3.03 KCAL/MOL
REMARK 922        TOTAL FREE ENERGY PREDICTED BY IDOCK:   -5.14 KCAL/MOL
REMARK 923 INTER-LIGAND FREE ENERGY PREDICTED BY IDOCK:   -4.20 KCAL/MOL
REMARK 924 INTRA-LIGAND FREE ENERGY PREDICTED BY IDOCK:   -0.94 KCAL/MOL
REMARK 927      BINDING AFFINITY PREDICTED BY RF-SCORE:    0.00 PKD
ROOT
HETATM    1 CL   UNL     1     -10.602   4.248  65.501  1.00  0.00    -0.202 Cl 
HETATM    2  C   UNL     1      -9.166   5.199  65.470  1.00  0.00    -0.136 A  
HETATM    3  C   UNL     1      -8.660   5.973  66.492  1.00  0.00    -0.124 A  
HETATM    4  C   UNL     1      -7.417   6.569  66.075  1.00  0.00    -0.081 A  
HETATM    5  S   UNL     1      -8.228   5.206  64.061  1.00  0.00    -0.132 SA 
HETATM    6  C   UNL     1      -7.072   6.241  64.780  1.00  0.00    -0.057 A  
ENDROOT
BRANCH   3   7
HETATM    7  C   UNL     1      -9.276   6.130  67.852  1.00  0.00    -0.115 C  
BRANCH   7   8
HETATM    8  O   UNL     1      -8.625   7.163  68.590  1.00  0.00    -0.125 OA 
BRANCH   8   9
HETATM    9  C   UNL     1      -9.483   8.169  69.164  1.00  0.00    -0.155 C  
BRANCH   9  10
HETATM   10  C   UNL     1      -8.908   9.555  68.829  1.00  0.00    -0.132 A  
HETATM   11  C   UNL     1      -6.967  11.051  68.704  1.00  0.00    -0.075 A  
HETATM   12  C   UNL     1      -9.705  10.634  68.396  1.00  0.00    -0.166 A  
HETATM   13  C   UNL     1      -7.522   9.792  68.951  1.00  0.00    -0.075 A  
HETATM   14 CL   UNL     1     -11.392  10.467  68.053  1.00  0.00    -0.342 Cl 
HETATM   15 CL   UNL     1      -7.115  13.667  68.073  1.00  0.00    -0.113 Cl 
HETATM   16  C   UNL     1      -9.156  11.906  68.185  1.00  0.00    -0.190 A  
HETATM   17  C   UNL     1      -7.790  12.108  68.343  1.00  0.00    -0.149 A  
ENDBRANCH   9  10
BRANCH   9  18
HETATM   18  C   UNL     1      -9.685   7.925  70.681  1.00  0.00    -0.173 C  
BRANCH  18  19
HETATM   19  N   UNL     1     -11.066   7.940  71.114  1.00  0.00    -0.251 NA 
HETATM   20  N   UNL     1     -13.033   8.755  71.725  1.00  0.00    -0.342 NA 
HETATM   21  C   UNL     1     -11.913   6.870  71.178  1.00  0.00    -0.366 A  
HETATM   22  C   UNL     1     -13.123   7.398  71.563  1.00  0.00    -0.374 A  
HETATM   23  C   UNL     1     -11.788   9.055  71.439  1.00  0.00    -0.325 A  
ENDBRANCH  18  19
ENDBRANCH   9  18
ENDBRANCH   8   9
ENDBRANCH   7   8
ENDBRANCH   3   7
TORSDOF 6
ENDMDL
MODEL      263
REMARK 921   NORMALIZED FREE ENERGY PREDICTED BY IDOCK:   -3.03 KCAL/MOL
REMARK 922        TOTAL FREE ENERGY PREDICTED BY IDOCK:   -5.13 KCAL/MOL
REMARK 923 INTER-LIGAND FREE ENERGY PREDICTED BY IDOCK:   -4.55 KCAL/MOL
REMARK 924 INTRA-LIGAND FREE ENERGY PREDICTED BY IDOCK:   -0.58 KCAL/MOL
REMARK 927      BINDING AFFINITY PREDICTED BY RF-SCORE:    0.00 PKD
ROOT
HETATM    1 CL   UNL     1      -9.903   8.560  66.123  1.00  0.00    -0.285 Cl 
HETATM    2  C   UNL     1      -8.491   9.524  65.917  1.00  0.00    -0.125 A  
HETATM    3  C   UNL     1      -8.138  10.645  66.636  1.00  0.00    -0.136 A  
HETATM    4  C   UNL     1      -6.859  11.127  66.180  1.00  0.00    -0.004 A  
HETATM    5  S   UNL     1      -7.373   9.080  64.725  1.00  0.00    -0.103 SA 
HETATM    6  C   UNL     1      -6.340  10.376  65.146  1.00  0.00    -0.103 A  
ENDROOT
BRANCH   3   7
HETATM    7  C   UNL     1      -8.932  11.245  67.759  1.00  0.00    -0.141 C  
BRANCH   7   8
HETATM    8  O   UNL     1      -8.650  10.585  68.992  1.00  0.00    -0.144 OA 
BRANCH   8   9
HETATM    9  C   UNL     1      -9.792  10.218  69.792  1.00  0.00    -0.161 C  
BRANCH   9  10
HETATM   10  C   UNL     1      -9.780   8.695  70.000  1.00  0.00    -0.176 A  
HETATM   11  C   UNL     1     -11.012   6.634  70.505  1.00  0.00    -0.337 A  
HETATM   12  C   UNL     1      -8.605   7.920  69.944  1.00  0.00    -0.139 A  
HETATM   13  C   UNL     1     -10.987   8.011  70.261  1.00  0.00    -0.242 A  
HETATM   14 CL   UNL     1      -7.074   8.583  69.488  1.00  0.00    -0.051 Cl 
HETATM   15 CL   UNL     1      -9.851   4.226  70.842  1.00  0.00    -0.267 Cl 
HETATM   16  C   UNL     1      -8.624   6.547  70.225  1.00  0.00    -0.136 A  
HETATM   17  C   UNL     1      -9.827   5.913  70.508  1.00  0.00    -0.183 A  
ENDBRANCH   9  10
BRANCH   9  18
HETATM   18  C   UNL     1     -11.103  10.755  69.165  1.00  0.00    -0.249 C  
BRANCH  18  19
HETATM   19  N   UNL     1     -11.700  11.866  69.876  1.00  0.00    -0.319 NA 
HETATM   20  N   UNL     1     -12.389  13.932  70.280  1.00  0.00    -0.343 NA 
HETATM   21  C   UNL     1     -12.437  11.799  71.023  1.00  0.00    -0.309 A  
HETATM   22  C   UNL     1     -12.849  13.089  71.257  1.00  0.00    -0.281 A  
HETATM   23  C   UNL     1     -11.709  13.168  69.458  1.00  0.00    -0.319 A  
ENDBRANCH  18  19
ENDBRANCH   9  18
ENDBRANCH   8   9
ENDBRANCH   7   8
ENDBRANCH   3   7
TORSDOF 6
ENDMDL
MODEL      264
REMARK 921   NORMALIZED FREE ENERGY PREDICTED BY IDOCK:   -3.02 KCAL/MOL
REMARK 922        TOTAL FREE ENERGY PREDICTED BY IDOCK:   -5.12 KCAL/MOL
REMARK 923 INTER-LIGAND FREE ENERGY PREDICTED BY IDOCK:   -4.78 KCAL/MOL
REMARK 924 INTRA-LIGAND FREE ENERGY PREDICTED BY IDOCK:   -0.35 KCAL/MOL
REMARK 927      BINDING AFFINITY PREDICTED BY RF-SCORE:    0.00 PKD
ROOT
HETATM    1 CL   UNL     1      -9.005   2.516  69.620  1.00  0.00    -0.151 Cl 
HETATM    2  C   UNL     1      -9.299   2.784  71.296  1.00  0.00    -0.138 A  
HETATM    3  C   UNL     1      -9.021   3.926  72.015  1.00  0.00    -0.150 A  
HETATM    4  C   UNL     1      -9.464   3.757  73.376  1.00  0.00    -0.125 A  
HETATM    5  S   UNL     1     -10.022   1.549  72.200  1.00  0.00    -0.143 SA 
HETATM    6  C   UNL     1     -10.017   2.516  73.611  1.00  0.00    -0.102 A  
ENDROOT
BRANCH   3   7
HETATM    7  C   UNL     1      -8.402   5.176  71.461  1.00  0.00    -0.120 C  
BRANCH   7   8
HETATM    8  O   UNL     1      -9.382   5.986  70.813  1.00  0.00    -0.152 OA 
BRANCH   8   9
HETATM    9  C   UNL     1      -8.977   7.329  70.481  1.00  0.00    -0.154 C  
BRANCH   9  10
HETATM   10  C   UNL     1     -10.096   8.298  70.894  1.00  0.00    -0.224 A  
HETATM   11  C   UNL     1     -12.133   8.722  72.196  1.00  0.00    -0.441 A  
HETATM   12  C   UNL     1     -10.212   9.604  70.380  1.00  0.00    -0.288 A  
HETATM   13  C   UNL     1     -11.070   7.890  71.831  1.00  0.00    -0.317 A  
HETATM   14 CL   UNL     1      -9.019  10.305  69.342  1.00  0.00    -0.201 Cl 
HETATM   15 CL   UNL     1     -13.578  10.991  72.040  1.00  0.00    -0.283 Cl 
HETATM   16  C   UNL     1     -11.297  10.426  70.716  1.00  0.00    -0.370 A  
HETATM   17  C   UNL     1     -12.253   9.979  71.619  1.00  0.00    -0.367 A  
ENDBRANCH   9  10
BRANCH   9  18
HETATM   18  C   UNL     1      -8.577   7.433  68.988  1.00  0.00    -0.133 C  
BRANCH  18  19
HETATM   19  N   UNL     1      -9.388   6.639  68.090  1.00  0.00    -0.116 NA 
HETATM   20  N   UNL     1     -10.054   4.890  66.905  1.00  0.00    -0.216 NA 
HETATM   21  C   UNL     1     -10.623   6.962  67.605  1.00  0.00    -0.261 A  
HETATM   22  C   UNL     1     -11.014   5.867  66.871  1.00  0.00    -0.217 A  
HETATM   23  C   UNL     1      -9.091   5.378  67.652  1.00  0.00    -0.108 A  
ENDBRANCH  18  19
ENDBRANCH   9  18
ENDBRANCH   8   9
ENDBRANCH   7   8
ENDBRANCH   3   7
TORSDOF 6
ENDMDL
MODEL      265
REMARK 921   NORMALIZED FREE ENERGY PREDICTED BY IDOCK:   -3.02 KCAL/MOL
REMARK 922        TOTAL FREE ENERGY PREDICTED BY IDOCK:   -5.12 KCAL/MOL
REMARK 923 INTER-LIGAND FREE ENERGY PREDICTED BY IDOCK:   -4.63 KCAL/MOL
REMARK 924 INTRA-LIGAND FREE ENERGY PREDICTED BY IDOCK:   -0.49 KCAL/MOL
REMARK 927      BINDING AFFINITY PREDICTED BY RF-SCORE:    0.00 PKD
ROOT
HETATM    1 CL   UNL     1     -11.713  12.045  69.359  1.00  0.00    -0.378 Cl 
HETATM    2  C   UNL     1     -12.107  10.721  70.388  1.00  0.00    -0.354 A  
HETATM    3  C   UNL     1     -11.555   9.459  70.366  1.00  0.00    -0.241 A  
HETATM    4  C   UNL     1     -12.128   8.664  71.422  1.00  0.00    -0.351 A  
HETATM    5  S   UNL     1     -13.282  10.947  71.585  1.00  0.00    -0.294 SA 
HETATM    6  C   UNL     1     -13.080   9.346  72.151  1.00  0.00    -0.442 A  
ENDROOT
BRANCH   3   7
HETATM    7  C   UNL     1     -10.481   8.995  69.426  1.00  0.00    -0.222 C  
BRANCH   7   8
HETATM    8  O   UNL     1     -10.541   7.581  69.242  1.00  0.00    -0.223 OA 
BRANCH   8   9
HETATM    9  C   UNL     1      -9.301   6.866  69.411  1.00  0.00    -0.146 C  
BRANCH   9  10
HETATM   10  C   UNL     1      -9.436   5.924  70.619  1.00  0.00    -0.199 A  
HETATM   11  C   UNL     1      -9.774   3.653  71.484  1.00  0.00    -0.238 A  
HETATM   12  C   UNL     1      -9.408   6.375  71.954  1.00  0.00    -0.152 A  
HETATM   13  C   UNL     1      -9.597   4.537  70.415  1.00  0.00    -0.270 A  
HETATM   14 CL   UNL     1      -9.069   8.018  72.374  1.00  0.00    -0.229 Cl 
HETATM   15 CL   UNL     1     -10.059   3.061  74.098  1.00  0.00    -0.168 Cl 
HETATM   16  C   UNL     1      -9.622   5.496  73.024  1.00  0.00    -0.161 A  
HETATM   17  C   UNL     1      -9.808   4.141  72.783  1.00  0.00    -0.145 A  
ENDBRANCH   9  10
BRANCH   9  18
HETATM   18  C   UNL     1      -8.105   7.846  69.511  1.00  0.00    -0.121 C  
BRANCH  18  19
HETATM   19  N   UNL     1      -7.204   7.815  68.379  1.00  0.00    -0.090 NA 
HETATM   20  N   UNL     1      -5.307   7.629  67.251  1.00  0.00    -0.029 NA 
HETATM   21  C   UNL     1      -7.552   7.790  67.059  1.00  0.00    -0.100 A  
HETATM   22  C   UNL     1      -6.362   7.680  66.380  1.00  0.00    -0.046 A  
HETATM   23  C   UNL     1      -5.842   7.703  68.447  1.00  0.00    -0.031 A  
ENDBRANCH  18  19
ENDBRANCH   9  18
ENDBRANCH   8   9
ENDBRANCH   7   8
ENDBRANCH   3   7
TORSDOF 6
ENDMDL
MODEL      266
REMARK 921   NORMALIZED FREE ENERGY PREDICTED BY IDOCK:   -3.01 KCAL/MOL
REMARK 922        TOTAL FREE ENERGY PREDICTED BY IDOCK:   -5.11 KCAL/MOL
REMARK 923 INTER-LIGAND FREE ENERGY PREDICTED BY IDOCK:   -4.34 KCAL/MOL
REMARK 924 INTRA-LIGAND FREE ENERGY PREDICTED BY IDOCK:   -0.77 KCAL/MOL
REMARK 927      BINDING AFFINITY PREDICTED BY RF-SCORE:    0.00 PKD
ROOT
HETATM    1 CL   UNL     1     -10.763   6.638  71.076  1.00  0.00    -0.264 Cl 
HETATM    2  C   UNL     1     -12.008   7.792  71.368  1.00  0.00    -0.306 A  
HETATM    3  C   UNL     1     -11.922   9.160  71.226  1.00  0.00    -0.394 A  
HETATM    4  C   UNL     1     -13.200   9.756  71.526  1.00  0.00    -0.493 A  
HETATM    5  S   UNL     1     -13.526   7.237  71.871  1.00  0.00    -0.142 SA 
HETATM    6  C   UNL     1     -14.151   8.829  71.895  1.00  0.00    -0.420 A  
ENDROOT
BRANCH   3   7
HETATM    7  C   UNL     1     -10.706   9.914  70.776  1.00  0.00    -0.280 C  
BRANCH   7   8
HETATM    8  O   UNL     1     -10.237   9.423  69.520  1.00  0.00    -0.190 OA 
BRANCH   8   9
HETATM    9  C   UNL     1      -9.189  10.187  68.892  1.00  0.00    -0.172 C  
BRANCH   9  10
HETATM   10  C   UNL     1      -9.693  10.688  67.529  1.00  0.00    -0.189 A  
HETATM   11  C   UNL     1     -11.035  10.297  65.512  1.00  0.00     0.510 A  
HETATM   12  C   UNL     1      -9.301  11.920  66.969  1.00  0.00    -0.188 A  
HETATM   13  C   UNL     1     -10.592   9.901  66.778  1.00  0.00    -0.214 A  
HETATM   14 CL   UNL     1      -8.327  13.064  67.826  1.00  0.00    -0.161 Cl 
HETATM   15 CL   UNL     1     -11.093  11.959  63.392  1.00  0.00    -0.473 Cl 
HETATM   16  C   UNL     1      -9.715  12.302  65.685  1.00  0.00    -0.205 A  
HETATM   17  C   UNL     1     -10.577  11.486  64.963  1.00  0.00    -0.297 A  
ENDBRANCH   9  10
BRANCH   9  18
HETATM   18  C   UNL     1      -7.877   9.366  68.811  1.00  0.00    -0.084 C  
BRANCH  18  19
HETATM   19  N   UNL     1      -7.461   8.772  70.064  1.00  0.00    -0.052 NA 
HETATM   20  N   UNL     1      -6.853   8.642  72.190  1.00  0.00    -0.186 NA 
HETATM   21  C   UNL     1      -7.436   7.441  70.367  1.00  0.00    -0.085 A  
HETATM   22  C   UNL     1      -7.053   7.384  71.686  1.00  0.00    -0.062 A  
HETATM   23  C   UNL     1      -7.115   9.457  71.196  1.00  0.00     0.008 A  
ENDBRANCH  18  19
ENDBRANCH   9  18
ENDBRANCH   8   9
ENDBRANCH   7   8
ENDBRANCH   3   7
TORSDOF 6
ENDMDL
MODEL      267
REMARK 921   NORMALIZED FREE ENERGY PREDICTED BY IDOCK:   -3.01 KCAL/MOL
REMARK 922        TOTAL FREE ENERGY PREDICTED BY IDOCK:   -5.11 KCAL/MOL
REMARK 923 INTER-LIGAND FREE ENERGY PREDICTED BY IDOCK:   -4.27 KCAL/MOL
REMARK 924 INTRA-LIGAND FREE ENERGY PREDICTED BY IDOCK:   -0.84 KCAL/MOL
REMARK 927      BINDING AFFINITY PREDICTED BY RF-SCORE:    0.00 PKD
ROOT
HETATM    1 CL   UNL     1     -12.602  11.825  71.166  1.00  0.00    -0.460 Cl 
HETATM    2  C   UNL     1     -12.637  10.106  71.275  1.00  0.00    -0.404 A  
HETATM    3  C   UNL     1     -11.744   9.220  70.713  1.00  0.00    -0.328 A  
HETATM    4  C   UNL     1     -12.103   7.874  71.082  1.00  0.00    -0.294 A  
HETATM    5  S   UNL     1     -13.872   9.375  72.173  1.00  0.00    -0.295 SA 
HETATM    6  C   UNL     1     -13.238   7.817  71.864  1.00  0.00    -0.266 A  
ENDROOT
BRANCH   3   7
HETATM    7  C   UNL     1     -10.547   9.595  69.888  1.00  0.00    -0.249 C  
BRANCH   7   8
HETATM    8  O   UNL     1     -10.267   8.594  68.911  1.00  0.00    -0.198 OA 
BRANCH   8   9
HETATM    9  C   UNL     1      -8.928   8.061  68.914  1.00  0.00    -0.141 C  
BRANCH   9  10
HETATM   10  C   UNL     1      -8.855   6.907  67.901  1.00  0.00    -0.123 A  
HETATM   11  C   UNL     1      -9.820   4.839  66.999  1.00  0.00    -0.224 A  
HETATM   12  C   UNL     1      -7.801   6.760  66.977  1.00  0.00    -0.104 A  
HETATM   13  C   UNL     1      -9.875   5.932  67.869  1.00  0.00    -0.139 A  
HETATM   14 CL   UNL     1      -6.557   7.947  66.786  1.00  0.00    -0.058 Cl 
HETATM   15 CL   UNL     1      -8.647   3.329  65.100  1.00  0.00    -0.106 Cl 
HETATM   16  C   UNL     1      -7.726   5.646  66.129  1.00  0.00    -0.095 A  
HETATM   17  C   UNL     1      -8.734   4.690  66.148  1.00  0.00    -0.114 A  
ENDBRANCH   9  10
BRANCH   9  18
HETATM   18  C   UNL     1      -8.492   7.666  70.347  1.00  0.00    -0.136 C  
BRANCH  18  19
HETATM   19  N   UNL     1      -7.393   8.444  70.878  1.00  0.00    -0.058 NA 
HETATM   20  N   UNL     1      -5.957  10.117  71.091  1.00  0.00    -0.266 NA 
HETATM   21  C   UNL     1      -6.716   8.213  72.041  1.00  0.00    -0.073 A  
HETATM   22  C   UNL     1      -5.830   9.258  72.150  1.00  0.00    -0.014 A  
HETATM   23  C   UNL     1      -6.910   9.609  70.346  1.00  0.00    -0.120 A  
ENDBRANCH  18  19
ENDBRANCH   9  18
ENDBRANCH   8   9
ENDBRANCH   7   8
ENDBRANCH   3   7
TORSDOF 6
ENDMDL
MODEL      268
REMARK 921   NORMALIZED FREE ENERGY PREDICTED BY IDOCK:   -2.98 KCAL/MOL
REMARK 922        TOTAL FREE ENERGY PREDICTED BY IDOCK:   -5.06 KCAL/MOL
REMARK 923 INTER-LIGAND FREE ENERGY PREDICTED BY IDOCK:   -4.70 KCAL/MOL
REMARK 924 INTRA-LIGAND FREE ENERGY PREDICTED BY IDOCK:   -0.36 KCAL/MOL
REMARK 927      BINDING AFFINITY PREDICTED BY RF-SCORE:    0.00 PKD
ROOT
HETATM    1 CL   UNL     1     -10.675  16.625  69.651  1.00  0.00    -0.325 Cl 
HETATM    2  C   UNL     1     -11.368  15.053  69.772  1.00  0.00    -0.283 A  
HETATM    3  C   UNL     1     -11.401  14.082  68.795  1.00  0.00    -0.309 A  
HETATM    4  C   UNL     1     -12.031  12.895  69.316  1.00  0.00    -0.313 A  
HETATM    5  S   UNL     1     -12.086  14.593  71.235  1.00  0.00    -0.357 SA 
HETATM    6  C   UNL     1     -12.453  13.040  70.621  1.00  0.00    -0.268 A  
ENDROOT
BRANCH   3   7
HETATM    7  C   UNL     1     -10.823  14.214  67.417  1.00  0.00    -0.287 C  
BRANCH   7   8
HETATM    8  O   UNL     1     -10.274  12.973  66.973  1.00  0.00    -0.241 OA 
BRANCH   8   9
HETATM    9  C   UNL     1      -8.867  12.778  67.217  1.00  0.00    -0.198 C  
BRANCH   9  10
HETATM   10  C   UNL     1      -8.627  11.300  67.562  1.00  0.00    -0.134 A  
HETATM   11  C   UNL     1      -7.684   9.625  69.087  1.00  0.00    -0.087 A  
HETATM   12  C   UNL     1      -9.038  10.239  66.730  1.00  0.00    -0.143 A  
HETATM   13  C   UNL     1      -7.966  10.954  68.761  1.00  0.00    -0.139 A  
HETATM   14 CL   UNL     1      -9.988  10.487  65.307  1.00  0.00    -0.341 Cl 
HETATM   15 CL   UNL     1      -7.668   6.975  68.596  1.00  0.00    -0.117 Cl 
HETATM   16  C   UNL     1      -8.723   8.908  67.038  1.00  0.00    -0.130 A  
HETATM   17  C   UNL     1      -8.045   8.609  68.213  1.00  0.00    -0.118 A  
ENDBRANCH   9  10
BRANCH   9  18
HETATM   18  C   UNL     1      -8.349  13.765  68.293  1.00  0.00    -0.161 C  
BRANCH  18  19
HETATM   19  N   UNL     1      -7.360  14.710  67.818  1.00  0.00    -0.155 NA 
HETATM   20  N   UNL     1      -6.493  16.394  66.670  1.00  0.00    -0.267 NA 
HETATM   21  C   UNL     1      -6.113  14.915  68.335  1.00  0.00    -0.103 A  
HETATM   22  C   UNL     1      -5.593  15.958  67.606  1.00  0.00    -0.132 A  
HETATM   23  C   UNL     1      -7.550  15.632  66.825  1.00  0.00    -0.090 A  
ENDBRANCH  18  19
ENDBRANCH   9  18
ENDBRANCH   8   9
ENDBRANCH   7   8
ENDBRANCH   3   7
TORSDOF 6
ENDMDL
MODEL      269
REMARK 921   NORMALIZED FREE ENERGY PREDICTED BY IDOCK:   -2.97 KCAL/MOL
REMARK 922        TOTAL FREE ENERGY PREDICTED BY IDOCK:   -5.06 KCAL/MOL
REMARK 923 INTER-LIGAND FREE ENERGY PREDICTED BY IDOCK:   -4.86 KCAL/MOL
REMARK 924 INTRA-LIGAND FREE ENERGY PREDICTED BY IDOCK:   -0.20 KCAL/MOL
REMARK 927      BINDING AFFINITY PREDICTED BY RF-SCORE:    0.00 PKD
ROOT
HETATM    1 CL   UNL     1      -5.222   7.157  68.546  1.00  0.00    -0.016 Cl 
HETATM    2  C   UNL     1      -6.060   6.923  70.033  1.00  0.00    -0.024 A  
HETATM    3  C   UNL     1      -7.301   7.416  70.374  1.00  0.00    -0.077 A  
HETATM    4  C   UNL     1      -7.658   6.951  71.690  1.00  0.00    -0.090 A  
HETATM    5  S   UNL     1      -5.330   5.980  71.235  1.00  0.00    -0.018 SA 
HETATM    6  C   UNL     1      -6.679   6.172  72.269  1.00  0.00    -0.068 A  
ENDROOT
BRANCH   3   7
HETATM    7  C   UNL     1      -8.174   8.261  69.493  1.00  0.00    -0.119 C  
BRANCH   7   8
HETATM    8  O   UNL     1      -8.477   9.507  70.118  1.00  0.00    -0.171 OA 
BRANCH   8   9
HETATM    9  C   UNL     1      -9.699  10.146  69.701  1.00  0.00    -0.221 C  
BRANCH   9  10
HETATM   10  C   UNL     1     -10.884   9.422  70.360  1.00  0.00    -0.321 A  
HETATM   11  C   UNL     1     -11.874   7.332  71.182  1.00  0.00    -0.345 A  
HETATM   12  C   UNL     1     -12.081  10.072  70.720  1.00  0.00    -0.327 A  
HETATM   13  C   UNL     1     -10.801   8.038  70.631  1.00  0.00    -0.240 A  
HETATM   14 CL   UNL     1     -12.283  11.785  70.593  1.00  0.00    -0.471 Cl 
HETATM   15 CL   UNL     1     -14.396   7.120  72.109  1.00  0.00    -0.343 Cl 
HETATM   16  C   UNL     1     -13.171   9.359  71.238  1.00  0.00    -0.364 A  
HETATM   17  C   UNL     1     -13.062   7.993  71.463  1.00  0.00    -0.296 A  
ENDBRANCH   9  10
BRANCH   9  18
HETATM   18  C   UNL     1      -9.788  10.217  68.156  1.00  0.00    -0.144 C  
BRANCH  18  19
HETATM   19  N   UNL     1     -10.049  11.538  67.627  1.00  0.00    -0.182 NA 
HETATM   20  N   UNL     1     -11.034  13.140  66.456  1.00  0.00    -0.283 NA 
HETATM   21  C   UNL     1      -9.488  12.711  68.046  1.00  0.00    -0.209 A  
HETATM   22  C   UNL     1     -10.109  13.687  67.305  1.00  0.00    -0.239 A  
HETATM   23  C   UNL     1     -10.984  11.847  66.677  1.00  0.00    -0.291 A  
ENDBRANCH  18  19
ENDBRANCH   9  18
ENDBRANCH   8   9
ENDBRANCH   7   8
ENDBRANCH   3   7
TORSDOF 6
ENDMDL
MODEL      270
REMARK 921   NORMALIZED FREE ENERGY PREDICTED BY IDOCK:   -2.96 KCAL/MOL
REMARK 922        TOTAL FREE ENERGY PREDICTED BY IDOCK:   -5.04 KCAL/MOL
REMARK 923 INTER-LIGAND FREE ENERGY PREDICTED BY IDOCK:   -5.17 KCAL/MOL
REMARK 924 INTRA-LIGAND FREE ENERGY PREDICTED BY IDOCK:    0.13 KCAL/MOL
REMARK 927      BINDING AFFINITY PREDICTED BY RF-SCORE:    0.00 PKD
ROOT
HETATM    1 CL   UNL     1     -10.382  18.319  68.098  1.00  0.00    -0.392 Cl 
HETATM    2  C   UNL     1      -8.819  18.136  67.397  1.00  0.00    -0.256 A  
HETATM    3  C   UNL     1      -8.362  17.068  66.654  1.00  0.00    -0.285 A  
HETATM    4  C   UNL     1      -7.015  17.329  66.215  1.00  0.00    -0.299 A  
HETATM    5  S   UNL     1      -7.688  19.379  67.598  1.00  0.00    -0.270 SA 
HETATM    6  C   UNL     1      -6.529  18.540  66.663  1.00  0.00    -0.183 A  
ENDROOT
BRANCH   3   7
HETATM    7  C   UNL     1      -9.159  15.846  66.306  1.00  0.00    -0.344 C  
BRANCH   7   8
HETATM    8  O   UNL     1      -8.642  14.693  66.970  1.00  0.00    -0.213 OA 
BRANCH   8   9
HETATM    9  C   UNL     1      -9.618  13.766  67.485  1.00  0.00    -0.219 C  
BRANCH   9  10
HETATM   10  C   UNL     1     -10.270  14.380  68.734  1.00  0.00    -0.239 A  
HETATM   11  C   UNL     1     -12.296  14.812  70.050  1.00  0.00    -0.365 A  
HETATM   12  C   UNL     1      -9.547  15.108  69.700  1.00  0.00    -0.116 A  
HETATM   13  C   UNL     1     -11.656  14.226  68.953  1.00  0.00    -0.340 A  
HETATM   14 CL   UNL     1      -7.825  15.258  69.656  1.00  0.00    -0.202 Cl 
HETATM   15 CL   UNL     1     -12.354  16.328  72.277  1.00  0.00    -0.499 Cl 
HETATM   16  C   UNL     1     -10.193  15.727  70.779  1.00  0.00     0.514 A  
HETATM   17  C   UNL     1     -11.564  15.578  70.946  1.00  0.00    -0.375 A  
ENDBRANCH   9  10
BRANCH   9  18
HETATM   18  C   UNL     1      -8.984  12.373  67.729  1.00  0.00    -0.182 C  
BRANCH  18  19
HETATM   19  N   UNL     1      -7.591  12.272  67.352  1.00  0.00    -0.150 NA 
HETATM   20  N   UNL     1      -5.461  12.841  67.131  1.00  0.00    -0.344 NA 
HETATM   21  C   UNL     1      -6.950  11.159  66.886  1.00  0.00    -0.131 A  
HETATM   22  C   UNL     1      -5.635  11.537  66.752  1.00  0.00    -0.138 A  
HETATM   23  C   UNL     1      -6.652  13.256  67.496  1.00  0.00    -0.143 A  
ENDBRANCH  18  19
ENDBRANCH   9  18
ENDBRANCH   8   9
ENDBRANCH   7   8
ENDBRANCH   3   7
TORSDOF 6
ENDMDL
MODEL      271
REMARK 921   NORMALIZED FREE ENERGY PREDICTED BY IDOCK:   -2.95 KCAL/MOL
REMARK 922        TOTAL FREE ENERGY PREDICTED BY IDOCK:   -5.03 KCAL/MOL
REMARK 923 INTER-LIGAND FREE ENERGY PREDICTED BY IDOCK:   -4.09 KCAL/MOL
REMARK 924 INTRA-LIGAND FREE ENERGY PREDICTED BY IDOCK:   -0.94 KCAL/MOL
REMARK 927      BINDING AFFINITY PREDICTED BY RF-SCORE:    0.00 PKD
ROOT
HETATM    1 CL   UNL     1      -8.527   5.905  74.323  1.00  0.00    -0.108 Cl 
HETATM    2  C   UNL     1      -9.046   4.413  73.635  1.00  0.00    -0.101 A  
HETATM    3  C   UNL     1     -10.289   4.127  73.115  1.00  0.00    -0.237 A  
HETATM    4  C   UNL     1     -10.296   2.782  72.598  1.00  0.00    -0.220 A  
HETATM    5  S   UNL     1      -7.942   3.132  73.549  1.00  0.00    -0.070 SA 
HETATM    6  C   UNL     1      -9.093   2.132  72.775  1.00  0.00    -0.073 A  
ENDROOT
BRANCH   3   7
HETATM    7  C   UNL     1     -11.445   5.081  73.045  1.00  0.00    -0.265 C  
BRANCH   7   8
HETATM    8  O   UNL     1     -11.096   6.251  72.306  1.00  0.00    -0.244 OA 
BRANCH   8   9
HETATM    9  C   UNL     1     -10.507   6.031  71.009  1.00  0.00    -0.229 C  
BRANCH   9  10
HETATM   10  C   UNL     1      -9.211   6.851  70.911  1.00  0.00    -0.157 A  
HETATM   11  C   UNL     1      -6.792   6.917  70.498  1.00  0.00    -0.058 A  
HETATM   12  C   UNL     1      -9.154   8.236  71.168  1.00  0.00    -0.162 A  
HETATM   13  C   UNL     1      -8.002   6.218  70.550  1.00  0.00    -0.112 A  
HETATM   14 CL   UNL     1     -10.569   9.183  71.474  1.00  0.00    -0.410 Cl 
HETATM   15 CL   UNL     1      -5.271   9.123  70.793  1.00  0.00    -0.027 Cl 
HETATM   16  C   UNL     1      -7.937   8.931  71.153  1.00  0.00    -0.181 A  
HETATM   17  C   UNL     1      -6.763   8.267  70.822  1.00  0.00    -0.038 A  
ENDBRANCH   9  10
BRANCH   9  18
HETATM   18  C   UNL     1     -11.525   6.329  69.880  1.00  0.00    -0.389 C  
BRANCH  18  19
HETATM   19  N   UNL     1     -10.940   6.466  68.563  1.00  0.00    -0.314 NA 
HETATM   20  N   UNL     1     -10.137   7.453  66.750  1.00  0.00    -0.243 NA 
HETATM   21  C   UNL     1     -10.385   5.473  67.809  1.00  0.00    -0.189 A  
HETATM   22  C   UNL     1      -9.899   6.105  66.690  1.00  0.00    -0.159 A  
HETATM   23  C   UNL     1     -10.756   7.644  67.891  1.00  0.00    -0.108 A  
ENDBRANCH  18  19
ENDBRANCH   9  18
ENDBRANCH   8   9
ENDBRANCH   7   8
ENDBRANCH   3   7
TORSDOF 6
ENDMDL
MODEL      272
REMARK 921   NORMALIZED FREE ENERGY PREDICTED BY IDOCK:   -2.94 KCAL/MOL
REMARK 922        TOTAL FREE ENERGY PREDICTED BY IDOCK:   -5.01 KCAL/MOL
REMARK 923 INTER-LIGAND FREE ENERGY PREDICTED BY IDOCK:   -3.89 KCAL/MOL
REMARK 924 INTRA-LIGAND FREE ENERGY PREDICTED BY IDOCK:   -1.11 KCAL/MOL
REMARK 927      BINDING AFFINITY PREDICTED BY RF-SCORE:    0.00 PKD
ROOT
HETATM    1 CL   UNL     1      -7.624   8.486  70.094  1.00  0.00    -0.065 Cl 
HETATM    2  C   UNL     1      -7.059   8.773  68.492  1.00  0.00    -0.073 A  
HETATM    3  C   UNL     1      -7.258   7.976  67.385  1.00  0.00    -0.088 A  
HETATM    4  C   UNL     1      -6.662   8.597  66.230  1.00  0.00    -0.069 A  
HETATM    5  S   UNL     1      -6.171  10.181  68.185  1.00  0.00    -0.049 SA 
HETATM    6  C   UNL     1      -6.036   9.790  66.525  1.00  0.00    -0.060 A  
ENDROOT
BRANCH   3   7
HETATM    7  C   UNL     1      -8.025   6.686  67.369  1.00  0.00    -0.114 C  
BRANCH   7   8
HETATM    8  O   UNL     1      -9.243   6.825  66.638  1.00  0.00    -0.149 OA 
BRANCH   8   9
HETATM    9  C   UNL     1     -10.389   6.138  67.176  1.00  0.00    -0.230 C  
BRANCH   9  10
HETATM   10  C   UNL     1     -10.675   6.684  68.584  1.00  0.00    -0.303 A  
HETATM   11  C   UNL     1     -11.058   6.249  70.969  1.00  0.00    -0.357 A  
HETATM   12  C   UNL     1     -10.871   8.053  68.854  1.00  0.00     0.029 A  
HETATM   13  C   UNL     1     -10.750   5.799  69.682  1.00  0.00    -0.416 A  
HETATM   14 CL   UNL     1     -10.663   9.277  67.650  1.00  0.00    -0.318 Cl 
HETATM   15 CL   UNL     1     -11.722   8.148  72.762  1.00  0.00    -0.426 Cl 
HETATM   16  C   UNL     1     -11.216   8.502  70.136  1.00  0.00    -0.139 A  
HETATM   17  C   UNL     1     -11.310   7.596  71.186  1.00  0.00    -0.266 A  
ENDBRANCH   9  10
BRANCH   9  18
HETATM   18  C   UNL     1     -10.187   4.602  67.129  1.00  0.00    -0.095 C  
BRANCH  18  19
HETATM   19  N   UNL     1     -10.093   4.048  65.795  1.00  0.00    -0.148 NA 
HETATM   20  N   UNL     1      -9.424   2.729  64.146  1.00  0.00    -0.127 NA 
HETATM   21  C   UNL     1     -10.913   4.322  64.738  1.00  0.00    -0.023 A  
HETATM   22  C   UNL     1     -10.478   3.498  63.727  1.00  0.00    -0.265 A  
HETATM   23  C   UNL     1      -9.220   3.074  65.395  1.00  0.00    -0.141 A  
ENDBRANCH  18  19
ENDBRANCH   9  18
ENDBRANCH   8   9
ENDBRANCH   7   8
ENDBRANCH   3   7
TORSDOF 6
ENDMDL
MODEL      273
REMARK 921   NORMALIZED FREE ENERGY PREDICTED BY IDOCK:   -2.93 KCAL/MOL
REMARK 922        TOTAL FREE ENERGY PREDICTED BY IDOCK:   -5.00 KCAL/MOL
REMARK 923 INTER-LIGAND FREE ENERGY PREDICTED BY IDOCK:   -4.12 KCAL/MOL
REMARK 924 INTRA-LIGAND FREE ENERGY PREDICTED BY IDOCK:   -0.89 KCAL/MOL
REMARK 927      BINDING AFFINITY PREDICTED BY RF-SCORE:    0.00 PKD
ROOT
HETATM    1 CL   UNL     1     -10.531   3.885  63.630  1.00  0.00    -0.229 Cl 
HETATM    2  C   UNL     1      -9.673   3.554  65.087  1.00  0.00    -0.129 A  
HETATM    3  C   UNL     1      -9.726   4.271  66.263  1.00  0.00    -0.225 A  
HETATM    4  C   UNL     1      -8.895   3.634  67.253  1.00  0.00    -0.142 A  
HETATM    5  S   UNL     1      -8.653   2.204  65.139  1.00  0.00    -0.116 SA 
HETATM    6  C   UNL     1      -8.253   2.512  66.773  1.00  0.00    -0.085 A  
ENDROOT
BRANCH   3   7
HETATM    7  C   UNL     1     -10.562   5.495  66.500  1.00  0.00    -0.279 C  
BRANCH   7   8
HETATM    8  O   UNL     1      -9.741   6.654  66.638  1.00  0.00    -0.169 OA 
BRANCH   8   9
HETATM    9  C   UNL     1     -10.043   7.516  67.754  1.00  0.00    -0.185 C  
BRANCH   9  10
HETATM   10  C   UNL     1      -9.147   8.762  67.670  1.00  0.00    -0.145 A  
HETATM   11  C   UNL     1      -6.896   9.723  67.489  1.00  0.00    -0.082 A  
HETATM   12  C   UNL     1      -9.649  10.077  67.737  1.00  0.00    -0.148 A  
HETATM   13  C   UNL     1      -7.751   8.617  67.519  1.00  0.00    -0.098 A  
HETATM   14 CL   UNL     1     -11.343  10.426  67.770  1.00  0.00    -0.317 Cl 
HETATM   15 CL   UNL     1      -6.367  12.362  67.623  1.00  0.00    -0.115 Cl 
HETATM   16  C   UNL     1      -8.791  11.185  67.745  1.00  0.00    -0.135 A  
HETATM   17  C   UNL     1      -7.419  11.001  67.624  1.00  0.00    -0.096 A  
ENDBRANCH   9  10
BRANCH   9  18
HETATM   18  C   UNL     1      -9.925   6.748  69.094  1.00  0.00    -0.159 C  
BRANCH  18  19
HETATM   19  N   UNL     1     -10.129   7.561  70.274  1.00  0.00    -0.193 NA 
HETATM   20  N   UNL     1      -9.642   8.694  72.114  1.00  0.00    -0.309 NA 
HETATM   21  C   UNL     1     -11.271   8.225  70.621  1.00  0.00    -0.256 A  
HETATM   22  C   UNL     1     -10.947   8.915  71.765  1.00  0.00    -0.361 A  
HETATM   23  C   UNL     1      -9.171   7.883  71.196  1.00  0.00    -0.147 A  
ENDBRANCH  18  19
ENDBRANCH   9  18
ENDBRANCH   8   9
ENDBRANCH   7   8
ENDBRANCH   3   7
TORSDOF 6
ENDMDL
MODEL      274
REMARK 921   NORMALIZED FREE ENERGY PREDICTED BY IDOCK:   -2.93 KCAL/MOL
REMARK 922        TOTAL FREE ENERGY PREDICTED BY IDOCK:   -5.00 KCAL/MOL
REMARK 923 INTER-LIGAND FREE ENERGY PREDICTED BY IDOCK:   -4.14 KCAL/MOL
REMARK 924 INTRA-LIGAND FREE ENERGY PREDICTED BY IDOCK:   -0.86 KCAL/MOL
REMARK 927      BINDING AFFINITY PREDICTED BY RF-SCORE:    0.00 PKD
ROOT
HETATM    1 CL   UNL     1      -8.423   9.685  70.270  1.00  0.00    -0.226 Cl 
HETATM    2  C   UNL     1      -8.083  10.016  68.614  1.00  0.00    -0.102 A  
HETATM    3  C   UNL     1      -8.656   9.418  67.513  1.00  0.00    -0.122 A  
HETATM    4  C   UNL     1      -8.129  10.013  66.312  1.00  0.00    -0.117 A  
HETATM    5  S   UNL     1      -6.940  11.208  68.243  1.00  0.00    -0.073 SA 
HETATM    6  C   UNL     1      -7.187  10.989  66.566  1.00  0.00    -0.143 A  
ENDROOT
BRANCH   3   7
HETATM    7  C   UNL     1      -9.709   8.349  67.553  1.00  0.00    -0.162 C  
BRANCH   7   8
HETATM    8  O   UNL     1      -9.126   7.053  67.427  1.00  0.00    -0.123 OA 
BRANCH   8   9
HETATM    9  C   UNL     1      -9.913   5.951  67.922  1.00  0.00    -0.134 C  
BRANCH   9  10
HETATM   10  C   UNL     1     -10.065   6.100  69.444  1.00  0.00    -0.230 A  
HETATM   11  C   UNL     1     -11.534   6.361  71.393  1.00  0.00    -0.363 A  
HETATM   12  C   UNL     1      -8.967   6.170  70.325  1.00  0.00    -0.153 A  
HETATM   13  C   UNL     1     -11.352   6.174  70.019  1.00  0.00    -0.443 A  
HETATM   14 CL   UNL     1      -7.336   5.944  69.797  1.00  0.00    -0.073 Cl 
HETATM   15 CL   UNL     1     -10.649   6.755  73.908  1.00  0.00    -0.349 Cl 
HETATM   16  C   UNL     1      -9.147   6.394  71.697  1.00  0.00    -0.144 A  
HETATM   17  C   UNL     1     -10.429   6.491  72.222  1.00  0.00    -0.202 A  
ENDBRANCH   9  10
BRANCH   9  18
HETATM   18  C   UNL     1      -9.306   4.595  67.482  1.00  0.00    -0.144 C  
BRANCH  18  19
HETATM   19  N   UNL     1      -9.750   4.129  66.186  1.00  0.00    -0.199 NA 
HETATM   20  N   UNL     1     -10.998   3.966  64.363  1.00  0.00    -0.278 NA 
HETATM   21  C   UNL     1      -9.059   3.323  65.328  1.00  0.00    -0.147 A  
HETATM   22  C   UNL     1      -9.852   3.232  64.209  1.00  0.00    -0.170 A  
HETATM   23  C   UNL     1     -10.907   4.502  65.558  1.00  0.00    -0.041 A  
ENDBRANCH  18  19
ENDBRANCH   9  18
ENDBRANCH   8   9
ENDBRANCH   7   8
ENDBRANCH   3   7
TORSDOF 6
ENDMDL
MODEL      275
REMARK 921   NORMALIZED FREE ENERGY PREDICTED BY IDOCK:   -2.91 KCAL/MOL
REMARK 922        TOTAL FREE ENERGY PREDICTED BY IDOCK:   -4.97 KCAL/MOL
REMARK 923 INTER-LIGAND FREE ENERGY PREDICTED BY IDOCK:   -4.76 KCAL/MOL
REMARK 924 INTRA-LIGAND FREE ENERGY PREDICTED BY IDOCK:   -0.22 KCAL/MOL
REMARK 927      BINDING AFFINITY PREDICTED BY RF-SCORE:    0.00 PKD
ROOT
HETATM    1 CL   UNL     1      -8.654  11.220  66.641  1.00  0.00    -0.162 Cl 
HETATM    2  C   UNL     1     -10.072  12.190  66.770  1.00  0.00    -0.200 A  
HETATM    3  C   UNL     1     -10.807  12.439  67.909  1.00  0.00    -0.253 A  
HETATM    4  C   UNL     1     -11.890  13.336  67.596  1.00  0.00    -0.400 A  
HETATM    5  S   UNL     1     -10.660  12.956  65.380  1.00  0.00    -0.295 SA 
HETATM    6  C   UNL     1     -11.929  13.687  66.263  1.00  0.00    -0.423 A  
ENDROOT
BRANCH   3   7
HETATM    7  C   UNL     1     -10.499  11.906  69.278  1.00  0.00     0.091 C  
BRANCH   7   8
HETATM    8  O   UNL     1     -10.796  10.513  69.362  1.00  0.00    -0.216 OA 
BRANCH   8   9
HETATM    9  C   UNL     1     -10.365   9.843  70.563  1.00  0.00    -0.232 C  
BRANCH   9  10
HETATM   10  C   UNL     1      -9.197   8.907  70.213  1.00  0.00    -0.207 A  
HETATM   11  C   UNL     1      -6.870   8.223  70.585  1.00  0.00    -0.038 A  
HETATM   12  C   UNL     1      -9.276   7.917  69.214  1.00  0.00    -0.148 A  
HETATM   13  C   UNL     1      -7.972   9.020  70.907  1.00  0.00    -0.194 A  
HETATM   14 CL   UNL     1     -10.747   7.553  68.380  1.00  0.00    -0.164 Cl 
HETATM   15 CL   UNL     1      -5.598   6.344  69.129  1.00  0.00    -0.015 Cl 
HETATM   16  C   UNL     1      -8.161   7.143  68.865  1.00  0.00    -0.125 A  
HETATM   17  C   UNL     1      -6.963   7.303  69.550  1.00  0.00    -0.057 A  
ENDBRANCH   9  10
BRANCH   9  18
HETATM   18  C   UNL     1     -11.553   9.130  71.256  1.00  0.00    -0.331 C  
BRANCH  18  19
HETATM   19  N   UNL     1     -11.198   7.920  71.966  1.00  0.00    -0.269 NA 
HETATM   20  N   UNL     1     -11.006   5.755  72.394  1.00  0.00    -0.245 NA 
HETATM   21  C   UNL     1     -10.394   7.824  73.065  1.00  0.00    -0.347 A  
HETATM   22  C   UNL     1     -10.293   6.475  73.315  1.00  0.00    -0.241 A  
HETATM   23  C   UNL     1     -11.532   6.648  71.589  1.00  0.00    -0.288 A  
ENDBRANCH  18  19
ENDBRANCH   9  18
ENDBRANCH   8   9
ENDBRANCH   7   8
ENDBRANCH   3   7
TORSDOF 6
ENDMDL
MODEL      276
REMARK 921   NORMALIZED FREE ENERGY PREDICTED BY IDOCK:   -2.91 KCAL/MOL
REMARK 922        TOTAL FREE ENERGY PREDICTED BY IDOCK:   -4.97 KCAL/MOL
REMARK 923 INTER-LIGAND FREE ENERGY PREDICTED BY IDOCK:   -4.26 KCAL/MOL
REMARK 924 INTRA-LIGAND FREE ENERGY PREDICTED BY IDOCK:   -0.71 KCAL/MOL
REMARK 927      BINDING AFFINITY PREDICTED BY RF-SCORE:    0.00 PKD
ROOT
HETATM    1 CL   UNL     1     -10.198   4.846  68.211  1.00  0.00    -0.152 Cl 
HETATM    2  C   UNL     1      -8.683   5.664  68.258  1.00  0.00    -0.106 A  
HETATM    3  C   UNL     1      -8.465   7.017  68.119  1.00  0.00    -0.129 A  
HETATM    4  C   UNL     1      -7.060   7.297  68.267  1.00  0.00    -0.081 A  
HETATM    5  S   UNL     1      -7.278   4.755  68.516  1.00  0.00    -0.062 SA 
HETATM    6  C   UNL     1      -6.306   6.162  68.478  1.00  0.00    -0.040 A  
ENDROOT
BRANCH   3   7
HETATM    7  C   UNL     1      -9.530   8.053  67.903  1.00  0.00    -0.145 C  
BRANCH   7   8
HETATM    8  O   UNL     1      -9.746   8.279  66.511  1.00  0.00    -0.225 OA 
BRANCH   8   9
HETATM    9  C   UNL     1      -8.848   9.207  65.871  1.00  0.00    -0.175 C  
BRANCH   9  10
HETATM   10  C   UNL     1      -9.630  10.479  65.508  1.00  0.00    -0.282 A  
HETATM   11  C   UNL     1     -10.871  11.776  63.834  1.00  0.00    -0.468 A  
HETATM   12  C   UNL     1      -9.822  11.548  66.406  1.00  0.00    -0.205 A  
HETATM   13  C   UNL     1     -10.196  10.615  64.221  1.00  0.00    -0.391 A  
HETATM   14 CL   UNL     1      -9.324  11.474  68.060  1.00  0.00    -0.168 Cl 
HETATM   15 CL   UNL     1     -11.784  14.280  64.238  1.00  0.00    -0.380 Cl 
HETATM   16  C   UNL     1     -10.466  12.728  66.007  1.00  0.00    -0.291 A  
HETATM   17  C   UNL     1     -10.984  12.836  64.723  1.00  0.00    -0.305 A  
ENDBRANCH   9  10
BRANCH   9  18
HETATM   18  C   UNL     1      -8.133   8.545  64.667  1.00  0.00    -0.153 C  
BRANCH  18  19
HETATM   19  N   UNL     1      -7.112   9.364  64.048  1.00  0.00    -0.099 NA 
HETATM   20  N   UNL     1      -5.972  10.391  62.451  1.00  0.00    -0.119 NA 
HETATM   21  C   UNL     1      -6.222  10.180  64.686  1.00  0.00    -0.130 A  
HETATM   22  C   UNL     1      -5.524  10.802  63.678  1.00  0.00    -0.053 A  
HETATM   23  C   UNL     1      -6.933   9.534  62.703  1.00  0.00    -0.099 A  
ENDBRANCH  18  19
ENDBRANCH   9  18
ENDBRANCH   8   9
ENDBRANCH   7   8
ENDBRANCH   3   7
TORSDOF 6
ENDMDL
MODEL      277
REMARK 921   NORMALIZED FREE ENERGY PREDICTED BY IDOCK:   -2.89 KCAL/MOL
REMARK 922        TOTAL FREE ENERGY PREDICTED BY IDOCK:   -4.95 KCAL/MOL
REMARK 923 INTER-LIGAND FREE ENERGY PREDICTED BY IDOCK:   -4.61 KCAL/MOL
REMARK 924 INTRA-LIGAND FREE ENERGY PREDICTED BY IDOCK:   -0.35 KCAL/MOL
REMARK 927      BINDING AFFINITY PREDICTED BY RF-SCORE:    0.00 PKD
ROOT
HETATM    1 CL   UNL     1     -11.403  14.594  67.412  1.00  0.00    -0.351 Cl 
HETATM    2  C   UNL     1     -11.758  13.301  68.494  1.00  0.00    -0.352 A  
HETATM    3  C   UNL     1     -11.783  11.955  68.199  1.00  0.00    -0.388 A  
HETATM    4  C   UNL     1     -12.077  11.206  69.394  1.00  0.00    -0.396 A  
HETATM    5  S   UNL     1     -12.105  13.667  70.110  1.00  0.00    -0.343 SA 
HETATM    6  C   UNL     1     -12.280  12.010  70.496  1.00  0.00    -0.325 A  
ENDROOT
BRANCH   3   7
HETATM    7  C   UNL     1     -11.493  11.352  66.856  1.00  0.00    -0.119 C  
BRANCH   7   8
HETATM    8  O   UNL     1     -10.850  10.086  66.992  1.00  0.00    -0.215 OA 
BRANCH   8   9
HETATM    9  C   UNL     1      -9.623   9.914  66.256  1.00  0.00    -0.209 C  
BRANCH   9  10
HETATM   10  C   UNL     1      -9.240   8.426  66.278  1.00  0.00    -0.263 A  
HETATM   11  C   UNL     1      -8.044   6.549  65.243  1.00  0.00    -0.133 A  
HETATM   12  C   UNL     1      -9.711   7.523  67.252  1.00  0.00    -0.167 A  
HETATM   13  C   UNL     1      -8.377   7.906  65.288  1.00  0.00    -0.140 A  
HETATM   14 CL   UNL     1     -10.651   8.030  68.613  1.00  0.00    -0.186 Cl 
HETATM   15 CL   UNL     1      -8.199   4.001  66.106  1.00  0.00    -0.104 Cl 
HETATM   16  C   UNL     1      -9.408   6.156  67.186  1.00  0.00    -0.124 A  
HETATM   17  C   UNL     1      -8.579   5.677  66.180  1.00  0.00    -0.132 A  
ENDBRANCH   9  10
BRANCH   9  18
HETATM   18  C   UNL     1      -8.517  10.854  66.797  1.00  0.00    -0.139 C  
BRANCH  18  19
HETATM   19  N   UNL     1      -7.939  10.441  68.057  1.00  0.00    -0.104 NA 
HETATM   20  N   UNL     1      -7.764  10.097  70.239  1.00  0.00    -0.202 NA 
HETATM   21  C   UNL     1      -6.809   9.694  68.231  1.00  0.00    -0.069 A  
HETATM   22  C   UNL     1      -6.718   9.497  69.589  1.00  0.00    -0.054 A  
HETATM   23  C   UNL     1      -8.488  10.649  69.293  1.00  0.00    -0.091 A  
ENDBRANCH  18  19
ENDBRANCH   9  18
ENDBRANCH   8   9
ENDBRANCH   7   8
ENDBRANCH   3   7
TORSDOF 6
ENDMDL
MODEL      278
REMARK 921   NORMALIZED FREE ENERGY PREDICTED BY IDOCK:   -2.88 KCAL/MOL
REMARK 922        TOTAL FREE ENERGY PREDICTED BY IDOCK:   -4.94 KCAL/MOL
REMARK 923 INTER-LIGAND FREE ENERGY PREDICTED BY IDOCK:   -4.17 KCAL/MOL
REMARK 924 INTRA-LIGAND FREE ENERGY PREDICTED BY IDOCK:   -0.77 KCAL/MOL
REMARK 927      BINDING AFFINITY PREDICTED BY RF-SCORE:    0.00 PKD
ROOT
HETATM    1 CL   UNL     1      -8.212  10.129  64.270  1.00  0.00    -0.161 Cl 
HETATM    2  C   UNL     1      -9.482  11.016  65.022  1.00  0.00    -0.233 A  
HETATM    3  C   UNL     1      -9.590  11.344  66.356  1.00  0.00    -0.228 A  
HETATM    4  C   UNL     1     -10.778  12.131  66.565  1.00  0.00    -0.290 A  
HETATM    5  S   UNL     1     -10.754  11.586  64.060  1.00  0.00    -0.411 SA 
HETATM    6  C   UNL     1     -11.501  12.330  65.407  1.00  0.00    -0.354 A  
ENDROOT
BRANCH   3   7
HETATM    7  C   UNL     1      -8.597  10.985  67.423  1.00  0.00    -0.132 C  
BRANCH   7   8
HETATM    8  O   UNL     1      -8.308   9.588  67.403  1.00  0.00    -0.123 OA 
BRANCH   8   9
HETATM    9  C   UNL     1      -8.604   8.861  68.611  1.00  0.00    -0.133 C  
BRANCH   9  10
HETATM   10  C   UNL     1      -8.736   7.368  68.267  1.00  0.00    -0.122 A  
HETATM   11  C   UNL     1      -9.851   5.598  66.984  1.00  0.00    -0.172 A  
HETATM   12  C   UNL     1      -7.965   6.364  68.887  1.00  0.00    -0.110 A  
HETATM   13  C   UNL     1      -9.664   6.950  67.289  1.00  0.00    -0.184 A  
HETATM   14 CL   UNL     1      -6.685   6.724  69.993  1.00  0.00    -0.048 Cl 
HETATM   15 CL   UNL     1      -9.373   2.966  67.313  1.00  0.00    -0.203 Cl 
HETATM   16  C   UNL     1      -8.177   5.007  68.609  1.00  0.00    -0.085 A  
HETATM   17  C   UNL     1      -9.121   4.632  67.662  1.00  0.00    -0.118 A  
ENDBRANCH   9  10
BRANCH   9  18
HETATM   18  C   UNL     1      -9.847   9.452  69.323  1.00  0.00    -0.174 C  
BRANCH  18  19
HETATM   19  N   UNL     1     -10.394   8.618  70.371  1.00  0.00    -0.195 NA 
HETATM   20  N   UNL     1     -11.776   7.220  71.392  1.00  0.00    -0.273 NA 
HETATM   21  C   UNL     1      -9.783   8.273  71.542  1.00  0.00    -0.191 A  
HETATM   22  C   UNL     1     -10.658   7.411  72.160  1.00  0.00    -0.220 A  
HETATM   23  C   UNL     1     -11.587   7.950  70.319  1.00  0.00    -0.011 A  
ENDBRANCH  18  19
ENDBRANCH   9  18
ENDBRANCH   8   9
ENDBRANCH   7   8
ENDBRANCH   3   7
TORSDOF 6
ENDMDL
MODEL      279
REMARK 921   NORMALIZED FREE ENERGY PREDICTED BY IDOCK:   -2.86 KCAL/MOL
REMARK 922        TOTAL FREE ENERGY PREDICTED BY IDOCK:   -4.91 KCAL/MOL
REMARK 923 INTER-LIGAND FREE ENERGY PREDICTED BY IDOCK:   -4.59 KCAL/MOL
REMARK 924 INTRA-LIGAND FREE ENERGY PREDICTED BY IDOCK:   -0.32 KCAL/MOL
REMARK 927      BINDING AFFINITY PREDICTED BY RF-SCORE:    0.00 PKD
ROOT
HETATM    1 CL   UNL     1     -10.354   5.987  68.091  1.00  0.00    -0.216 Cl 
HETATM    2  C   UNL     1      -9.426   6.423  66.706  1.00  0.00    -0.150 A  
HETATM    3  C   UNL     1      -8.820   7.635  66.461  1.00  0.00    -0.167 A  
HETATM    4  C   UNL     1      -8.103   7.571  65.212  1.00  0.00    -0.130 A  
HETATM    5  S   UNL     1      -9.189   5.266  65.493  1.00  0.00    -0.062 SA 
HETATM    6  C   UNL     1      -8.227   6.350  64.584  1.00  0.00    -0.069 A  
ENDROOT
BRANCH   3   7
HETATM    7  C   UNL     1      -8.851   8.825  67.375  1.00  0.00    -0.133 C  
BRANCH   7   8
HETATM    8  O   UNL     1     -10.170   9.057  67.866  1.00  0.00    -0.196 OA 
BRANCH   8   9
HETATM    9  C   UNL     1     -10.267   9.550  69.217  1.00  0.00    -0.203 C  
BRANCH   9  10
HETATM   10  C   UNL     1     -10.881  10.959  69.185  1.00  0.00    -0.280 A  
HETATM   11  C   UNL     1     -11.070  13.143  68.083  1.00  0.00    -0.284 A  
HETATM   12  C   UNL     1     -11.757  11.439  70.178  1.00  0.00    -0.328 A  
HETATM   13  C   UNL     1     -10.573  11.837  68.124  1.00  0.00    -0.230 A  
HETATM   14 CL   UNL     1     -12.350  10.439  71.459  1.00  0.00    -0.478 Cl 
HETATM   15 CL   UNL     1     -12.462  15.223  69.084  1.00  0.00    -0.066 Cl 
HETATM   16  C   UNL     1     -12.227  12.760  70.159  1.00  0.00    -0.320 A  
HETATM   17  C   UNL     1     -11.877  13.605  69.113  1.00  0.00    -0.348 A  
ENDBRANCH   9  10
BRANCH   9  18
HETATM   18  C   UNL     1      -8.894   9.481  69.932  1.00  0.00    -0.211 C  
BRANCH  18  19
HETATM   19  N   UNL     1      -8.700   8.303  70.750  1.00  0.00    -0.133 NA 
HETATM   20  N   UNL     1      -8.687   7.018  72.555  1.00  0.00    -0.124 NA 
HETATM   21  C   UNL     1      -8.417   7.041  70.312  1.00  0.00    -0.138 A  
HETATM   22  C   UNL     1      -8.409   6.264  71.445  1.00  0.00    -0.123 A  
HETATM   23  C   UNL     1      -8.866   8.238  72.107  1.00  0.00    -0.201 A  
ENDBRANCH  18  19
ENDBRANCH   9  18
ENDBRANCH   8   9
ENDBRANCH   7   8
ENDBRANCH   3   7
TORSDOF 6
ENDMDL
MODEL      280
REMARK 921   NORMALIZED FREE ENERGY PREDICTED BY IDOCK:   -2.85 KCAL/MOL
REMARK 922        TOTAL FREE ENERGY PREDICTED BY IDOCK:   -4.89 KCAL/MOL
REMARK 923 INTER-LIGAND FREE ENERGY PREDICTED BY IDOCK:   -3.87 KCAL/MOL
REMARK 924 INTRA-LIGAND FREE ENERGY PREDICTED BY IDOCK:   -1.02 KCAL/MOL
REMARK 927      BINDING AFFINITY PREDICTED BY RF-SCORE:    0.00 PKD
ROOT
HETATM    1 CL   UNL     1     -10.284   9.202  66.336  1.00  0.00    -0.336 Cl 
HETATM    2  C   UNL     1      -8.673   8.606  66.202  1.00  0.00    -0.156 A  
HETATM    3  C   UNL     1      -7.939   7.969  67.179  1.00  0.00    -0.113 A  
HETATM    4  C   UNL     1      -6.655   7.591  66.646  1.00  0.00    -0.054 A  
HETATM    5  S   UNL     1      -7.863   8.783  64.726  1.00  0.00    -0.131 SA 
HETATM    6  C   UNL     1      -6.483   7.977  65.333  1.00  0.00    -0.048 A  
ENDROOT
BRANCH   3   7
HETATM    7  C   UNL     1      -8.418   7.664  68.568  1.00  0.00    -0.129 C  
BRANCH   7   8
HETATM    8  O   UNL     1      -8.564   6.258  68.760  1.00  0.00    -0.121 OA 
BRANCH   8   9
HETATM    9  C   UNL     1      -9.914   5.774  68.907  1.00  0.00    -0.161 C  
BRANCH   9  10
HETATM   10  C   UNL     1     -10.076   5.186  70.317  1.00  0.00    -0.338 A  
HETATM   11  C   UNL     1      -9.715   3.318  71.868  1.00  0.00    -0.233 A  
HETATM   12  C   UNL     1     -10.740   5.860  71.362  1.00  0.00    -0.260 A  
HETATM   13  C   UNL     1      -9.546   3.911  70.613  1.00  0.00    -0.259 A  
HETATM   14 CL   UNL     1     -11.311   7.485  71.205  1.00  0.00    -0.277 Cl 
HETATM   15 CL   UNL     1     -10.671   3.243  74.387  1.00  0.00    -0.217 Cl 
HETATM   16  C   UNL     1     -10.942   5.252  72.608  1.00  0.00    -0.316 A  
HETATM   17  C   UNL     1     -10.432   3.984  72.853  1.00  0.00    -0.171 A  
ENDBRANCH   9  10
BRANCH   9  18
HETATM   18  C   UNL     1     -10.276   4.786  67.770  1.00  0.00    -0.013 C  
BRANCH  18  19
HETATM   19  N   UNL     1      -9.224   4.576  66.798  1.00  0.00    -0.124 NA 
HETATM   20  N   UNL     1      -7.363   3.770  65.906  1.00  0.00    -0.071 NA 
HETATM   21  C   UNL     1      -9.220   4.991  65.497  1.00  0.00    -0.151 A  
HETATM   22  C   UNL     1      -8.057   4.485  64.966  1.00  0.00    -0.100 A  
HETATM   23  C   UNL     1      -8.092   3.833  66.995  1.00  0.00    -0.095 A  
ENDBRANCH  18  19
ENDBRANCH   9  18
ENDBRANCH   8   9
ENDBRANCH   7   8
ENDBRANCH   3   7
TORSDOF 6
ENDMDL
MODEL      281
REMARK 921   NORMALIZED FREE ENERGY PREDICTED BY IDOCK:   -2.82 KCAL/MOL
REMARK 922        TOTAL FREE ENERGY PREDICTED BY IDOCK:   -4.85 KCAL/MOL
REMARK 923 INTER-LIGAND FREE ENERGY PREDICTED BY IDOCK:   -5.09 KCAL/MOL
REMARK 924 INTRA-LIGAND FREE ENERGY PREDICTED BY IDOCK:    0.24 KCAL/MOL
REMARK 927      BINDING AFFINITY PREDICTED BY RF-SCORE:    0.00 PKD
ROOT
HETATM    1 CL   UNL     1      -7.506   7.933  67.499  1.00  0.00    -0.092 Cl 
HETATM    2  C   UNL     1      -7.449   8.855  66.045  1.00  0.00    -0.090 A  
HETATM    3  C   UNL     1      -7.810  10.175  65.884  1.00  0.00    -0.132 A  
HETATM    4  C   UNL     1      -7.567  10.578  64.522  1.00  0.00     0.052 A  
HETATM    5  S   UNL     1      -6.881   8.111  64.634  1.00  0.00    -0.068 SA 
HETATM    6  C   UNL     1      -7.072   9.556  63.740  1.00  0.00    -0.108 A  
ENDROOT
BRANCH   3   7
HETATM    7  C   UNL     1      -8.325  11.075  66.968  1.00  0.00    -0.137 C  
BRANCH   7   8
HETATM    8  O   UNL     1      -9.622  10.666  67.398  1.00  0.00    -0.156 OA 
BRANCH   8   9
HETATM    9  C   UNL     1     -10.049  11.157  68.685  1.00  0.00    -0.200 C  
BRANCH   9  10
HETATM   10  C   UNL     1     -10.580   9.974  69.511  1.00  0.00    -0.267 A  
HETATM   11  C   UNL     1     -10.578   7.564  69.972  1.00  0.00    -0.242 A  
HETATM   12  C   UNL     1     -11.558  10.115  70.516  1.00  0.00    -0.329 A  
HETATM   13  C   UNL     1     -10.085   8.673  69.278  1.00  0.00    -0.203 A  
HETATM   14 CL   UNL     1     -12.154  11.657  71.025  1.00  0.00    -0.331 Cl 
HETATM   15 CL   UNL     1     -12.222   6.364  71.740  1.00  0.00    -0.370 Cl 
HETATM   16  C   UNL     1     -12.080   9.001  71.187  1.00  0.00    -0.345 A  
HETATM   17  C   UNL     1     -11.589   7.731  70.908  1.00  0.00    -0.274 A  
ENDBRANCH   9  10
BRANCH   9  18
HETATM   18  C   UNL     1     -11.063  12.317  68.527  1.00  0.00    -0.249 C  
BRANCH  18  19
HETATM   19  N   UNL     1     -11.002  13.000  67.252  1.00  0.00    -0.259 NA 
HETATM   20  N   UNL     1     -10.246  14.338  65.657  1.00  0.00    -0.330 NA 
HETATM   21  C   UNL     1     -11.769  12.744  66.152  1.00  0.00    -0.403 A  
HETATM   22  C   UNL     1     -11.286  13.587  65.179  1.00  0.00    -0.301 A  
HETATM   23  C   UNL     1     -10.090  13.959  66.904  1.00  0.00    -0.260 A  
ENDBRANCH  18  19
ENDBRANCH   9  18
ENDBRANCH   8   9
ENDBRANCH   7   8
ENDBRANCH   3   7
TORSDOF 6
ENDMDL
MODEL      282
REMARK 921   NORMALIZED FREE ENERGY PREDICTED BY IDOCK:   -2.80 KCAL/MOL
REMARK 922        TOTAL FREE ENERGY PREDICTED BY IDOCK:   -4.82 KCAL/MOL
REMARK 923 INTER-LIGAND FREE ENERGY PREDICTED BY IDOCK:   -4.31 KCAL/MOL
REMARK 924 INTRA-LIGAND FREE ENERGY PREDICTED BY IDOCK:   -0.51 KCAL/MOL
REMARK 927      BINDING AFFINITY PREDICTED BY RF-SCORE:    0.00 PKD
ROOT
HETATM    1 CL   UNL     1     -12.565  11.842  63.361  1.00  0.00    -0.674 Cl 
HETATM    2  C   UNL     1     -11.798  12.306  64.832  1.00  0.00    -0.358 A  
HETATM    3  C   UNL     1     -10.690  11.725  65.410  1.00  0.00    -0.333 A  
HETATM    4  C   UNL     1     -10.341  12.441  66.610  1.00  0.00    -0.245 A  
HETATM    5  S   UNL     1     -12.422  13.623  65.693  1.00  0.00    -0.487 SA 
HETATM    6  C   UNL     1     -11.200  13.485  66.881  1.00  0.00    -0.311 A  
ENDROOT
BRANCH   3   7
HETATM    7  C   UNL     1      -9.927  10.559  64.851  1.00  0.00    -0.334 C  
BRANCH   7   8
HETATM    8  O   UNL     1      -8.811  10.236  65.679  1.00  0.00    -0.155 OA 
BRANCH   8   9
HETATM    9  C   UNL     1      -8.545   8.832  65.868  1.00  0.00    -0.154 C  
BRANCH   9  10
HETATM   10  C   UNL     1      -8.461   8.544  67.375  1.00  0.00    -0.127 A  
HETATM   11  C   UNL     1      -9.493   7.614  69.398  1.00  0.00    -0.152 A  
HETATM   12  C   UNL     1      -7.371   8.943  68.175  1.00  0.00    -0.084 A  
HETATM   13  C   UNL     1      -9.508   7.851  68.020  1.00  0.00    -0.159 A  
HETATM   14 CL   UNL     1      -5.946   9.665  67.512  1.00  0.00    -0.051 Cl 
HETATM   15 CL   UNL     1      -8.430   7.819  71.866  1.00  0.00    -0.127 Cl 
HETATM   16  C   UNL     1      -7.371   8.739  69.562  1.00  0.00    -0.067 A  
HETATM   17  C   UNL     1      -8.434   8.078  70.166  1.00  0.00    -0.128 A  
ENDBRANCH   9  10
BRANCH   9  18
HETATM   18  C   UNL     1      -7.289   8.394  65.074  1.00  0.00    -0.086 C  
BRANCH  18  19
HETATM   19  N   UNL     1      -7.100   6.962  64.988  1.00  0.00    -0.061 NA 
HETATM   20  N   UNL     1      -7.218   4.906  64.171  1.00  0.00    -0.050 NA 
HETATM   21  C   UNL     1      -6.295   6.195  65.781  1.00  0.00    -0.038 A  
HETATM   22  C   UNL     1      -6.387   4.926  65.260  1.00  0.00    -0.035 A  
HETATM   23  C   UNL     1      -7.625   6.145  64.024  1.00  0.00    -0.093 A  
ENDBRANCH  18  19
ENDBRANCH   9  18
ENDBRANCH   8   9
ENDBRANCH   7   8
ENDBRANCH   3   7
TORSDOF 6
ENDMDL
MODEL      283
REMARK 921   NORMALIZED FREE ENERGY PREDICTED BY IDOCK:   -2.79 KCAL/MOL
REMARK 922        TOTAL FREE ENERGY PREDICTED BY IDOCK:   -4.81 KCAL/MOL
REMARK 923 INTER-LIGAND FREE ENERGY PREDICTED BY IDOCK:   -3.87 KCAL/MOL
REMARK 924 INTRA-LIGAND FREE ENERGY PREDICTED BY IDOCK:   -0.93 KCAL/MOL
REMARK 927      BINDING AFFINITY PREDICTED BY RF-SCORE:    0.00 PKD
ROOT
HETATM    1 CL   UNL     1     -11.412  12.810  63.377  1.00  0.00    -0.527 Cl 
HETATM    2  C   UNL     1     -11.429  13.261  65.039  1.00  0.00    -0.305 A  
HETATM    3  C   UNL     1     -10.376  13.206  65.926  1.00  0.00    -0.295 A  
HETATM    4  C   UNL     1     -10.796  13.718  67.205  1.00  0.00    -0.292 A  
HETATM    5  S   UNL     1     -12.867  13.859  65.703  1.00  0.00    -0.283 SA 
HETATM    6  C   UNL     1     -12.121  14.099  67.223  1.00  0.00    -0.372 A  
ENDROOT
BRANCH   3   7
HETATM    7  C   UNL     1      -8.987  12.739  65.600  1.00  0.00     0.600 C  
BRANCH   7   8
HETATM    8  O   UNL     1      -8.463  11.927  66.650  1.00  0.00    -0.185 OA 
BRANCH   8   9
HETATM    9  C   UNL     1      -7.928  10.648  66.256  1.00  0.00    -0.149 C  
BRANCH   9  10
HETATM   10  C   UNL     1      -8.823   9.540  66.834  1.00  0.00    -0.140 A  
HETATM   11  C   UNL     1     -10.290   8.751  68.636  1.00  0.00    -0.230 A  
HETATM   12  C   UNL     1      -9.008   8.292  66.205  1.00  0.00    -0.183 A  
HETATM   13  C   UNL     1      -9.507   9.750  68.051  1.00  0.00    -0.144 A  
HETATM   14 CL   UNL     1      -8.363   7.935  64.641  1.00  0.00    -0.097 Cl 
HETATM   15 CL   UNL     1     -11.331   6.268  68.757  1.00  0.00    -0.361 Cl 
HETATM   16  C   UNL     1      -9.762   7.277  66.808  1.00  0.00    -0.260 A  
HETATM   17  C   UNL     1     -10.396   7.511  68.022  1.00  0.00    -0.204 A  
ENDBRANCH   9  10
BRANCH   9  18
HETATM   18  C   UNL     1      -6.437  10.523  66.658  1.00  0.00    -0.086 C  
BRANCH  18  19
HETATM   19  N   UNL     1      -6.026  11.408  67.727  1.00  0.00    -0.047 NA 
HETATM   20  N   UNL     1      -5.520  12.082  69.776  1.00  0.00    -0.080 NA 
HETATM   21  C   UNL     1      -5.492  12.658  67.591  1.00  0.00    -0.124 A  
HETATM   22  C   UNL     1      -5.191  13.057  68.872  1.00  0.00    -0.068 A  
HETATM   23  C   UNL     1      -6.012  11.098  69.059  1.00  0.00    -0.042 A  
ENDBRANCH  18  19
ENDBRANCH   9  18
ENDBRANCH   8   9
ENDBRANCH   7   8
ENDBRANCH   3   7
TORSDOF 6
ENDMDL
MODEL      284
REMARK 921   NORMALIZED FREE ENERGY PREDICTED BY IDOCK:   -2.70 KCAL/MOL
REMARK 922        TOTAL FREE ENERGY PREDICTED BY IDOCK:   -4.69 KCAL/MOL
REMARK 923 INTER-LIGAND FREE ENERGY PREDICTED BY IDOCK:   -3.75 KCAL/MOL
REMARK 924 INTRA-LIGAND FREE ENERGY PREDICTED BY IDOCK:   -0.94 KCAL/MOL
REMARK 927      BINDING AFFINITY PREDICTED BY RF-SCORE:    0.00 PKD
ROOT
HETATM    1 CL   UNL     1     -10.665   3.911  62.915  1.00  0.00    -0.195 Cl 
HETATM    2  C   UNL     1      -9.566   3.491  64.172  1.00  0.00    -0.156 A  
HETATM    3  C   UNL     1      -9.577   3.948  65.472  1.00  0.00    -0.184 A  
HETATM    4  C   UNL     1      -8.515   3.317  66.214  1.00  0.00    -0.108 A  
HETATM    5  S   UNL     1      -8.327   2.388  63.832  1.00  0.00    -0.082 SA 
HETATM    6  C   UNL     1      -7.760   2.457  65.444  1.00  0.00    -0.077 A  
ENDROOT
BRANCH   3   7
HETATM    7  C   UNL     1     -10.573   4.912  66.048  1.00  0.00    -0.261 C  
BRANCH   7   8
HETATM    8  O   UNL     1     -10.365   5.084  67.449  1.00  0.00    -0.175 OA 
BRANCH   8   9
HETATM    9  C   UNL     1     -10.708   6.377  67.987  1.00  0.00    -0.291 C  
BRANCH   9  10
HETATM   10  C   UNL     1      -9.431   7.229  68.070  1.00  0.00    -0.139 A  
HETATM   11  C   UNL     1      -6.983   7.340  68.187  1.00  0.00    -0.076 A  
HETATM   12  C   UNL     1      -9.449   8.636  68.157  1.00  0.00    -0.141 A  
HETATM   13  C   UNL     1      -8.165   6.605  68.062  1.00  0.00    -0.117 A  
HETATM   14 CL   UNL     1     -10.907   9.557  68.027  1.00  0.00    -0.262 Cl 
HETATM   15 CL   UNL     1      -5.589   9.622  68.525  1.00  0.00    -0.040 Cl 
HETATM   16  C   UNL     1      -8.267   9.371  68.319  1.00  0.00    -0.118 A  
HETATM   17  C   UNL     1      -7.041   8.718  68.337  1.00  0.00    -0.077 A  
ENDBRANCH   9  10
BRANCH   9  18
HETATM   18  C   UNL     1     -11.456   6.235  69.336  1.00  0.00    -0.278 C  
BRANCH  18  19
HETATM   19  N   UNL     1     -10.604   5.944  70.470  1.00  0.00    -0.255 NA 
HETATM   20  N   UNL     1      -9.578   6.228  72.412  1.00  0.00    -0.151 NA 
HETATM   21  C   UNL     1     -10.019   4.746  70.765  1.00  0.00    -0.221 A  
HETATM   22  C   UNL     1      -9.386   4.947  71.968  1.00  0.00    -0.141 A  
HETATM   23  C   UNL     1     -10.322   6.803  71.496  1.00  0.00    -0.208 A  
ENDBRANCH  18  19
ENDBRANCH   9  18
ENDBRANCH   8   9
ENDBRANCH   7   8
ENDBRANCH   3   7
TORSDOF 6
ENDMDL
MODEL      285
REMARK 921   NORMALIZED FREE ENERGY PREDICTED BY IDOCK:   -2.67 KCAL/MOL
REMARK 922        TOTAL FREE ENERGY PREDICTED BY IDOCK:   -4.66 KCAL/MOL
REMARK 923 INTER-LIGAND FREE ENERGY PREDICTED BY IDOCK:   -4.01 KCAL/MOL
REMARK 924 INTRA-LIGAND FREE ENERGY PREDICTED BY IDOCK:   -0.65 KCAL/MOL
REMARK 927      BINDING AFFINITY PREDICTED BY RF-SCORE:    0.00 PKD
ROOT
HETATM    1 CL   UNL     1      -9.968   9.691  69.749  1.00  0.00    -0.230 Cl 
HETATM    2  C   UNL     1      -9.878  10.169  68.097  1.00  0.00    -0.144 A  
HETATM    3  C   UNL     1     -10.032   9.364  66.990  1.00  0.00    -0.282 A  
HETATM    4  C   UNL     1      -9.929  10.163  65.795  1.00  0.00    -0.339 A  
HETATM    5  S   UNL     1      -9.587  11.798  67.739  1.00  0.00    -0.189 SA 
HETATM    6  C   UNL     1      -9.683  11.494  66.059  1.00  0.00    -0.226 A  
ENDROOT
BRANCH   3   7
HETATM    7  C   UNL     1     -10.318   7.891  67.017  1.00  0.00    -0.341 C  
BRANCH   7   8
HETATM    8  O   UNL     1      -9.123   7.143  67.241  1.00  0.00    -0.120 OA 
BRANCH   8   9
HETATM    9  C   UNL     1      -9.291   5.844  67.842  1.00  0.00    -0.107 C  
BRANCH   9  10
HETATM   10  C   UNL     1      -9.399   6.017  69.366  1.00  0.00    -0.146 A  
HETATM   11  C   UNL     1     -10.695   5.716  71.428  1.00  0.00    -0.310 A  
HETATM   12  C   UNL     1      -8.405   6.647  70.142  1.00  0.00    -0.135 A  
HETATM   13  C   UNL     1     -10.535   5.534  70.051  1.00  0.00    -0.373 A  
HETATM   14 CL   UNL     1      -6.891   7.158  69.479  1.00  0.00    -0.049 Cl 
HETATM   15 CL   UNL     1      -9.937   6.655  73.838  1.00  0.00    -0.280 Cl 
HETATM   16  C   UNL     1      -8.581   6.863  71.515  1.00  0.00    -0.122 A  
HETATM   17  C   UNL     1      -9.727   6.399  72.150  1.00  0.00    -0.152 A  
ENDBRANCH   9  10
BRANCH   9  18
HETATM   18  C   UNL     1      -8.163   4.879  67.400  1.00  0.00    -0.106 C  
BRANCH  18  19
HETATM   19  N   UNL     1      -7.594   5.173  66.101  1.00  0.00    -0.086 NA 
HETATM   20  N   UNL     1      -7.504   5.772  63.971  1.00  0.00    -0.064 NA 
HETATM   21  C   UNL     1      -6.267   5.285  65.798  1.00  0.00    -0.034 A  
HETATM   22  C   UNL     1      -6.236   5.652  64.473  1.00  0.00    -0.025 A  
HETATM   23  C   UNL     1      -8.301   5.488  64.973  1.00  0.00    -0.146 A  
ENDBRANCH  18  19
ENDBRANCH   9  18
ENDBRANCH   8   9
ENDBRANCH   7   8
ENDBRANCH   3   7
TORSDOF 6
ENDMDL
MODEL      286
REMARK 921   NORMALIZED FREE ENERGY PREDICTED BY IDOCK:   -2.60 KCAL/MOL
REMARK 922        TOTAL FREE ENERGY PREDICTED BY IDOCK:   -4.55 KCAL/MOL
REMARK 923 INTER-LIGAND FREE ENERGY PREDICTED BY IDOCK:   -3.70 KCAL/MOL
REMARK 924 INTRA-LIGAND FREE ENERGY PREDICTED BY IDOCK:   -0.85 KCAL/MOL
REMARK 927      BINDING AFFINITY PREDICTED BY RF-SCORE:    0.00 PKD
ROOT
HETATM    1 CL   UNL     1     -10.089   4.577  64.518  1.00  0.00    -0.008 Cl 
HETATM    2  C   UNL     1      -8.799   5.646  64.919  1.00  0.00     0.031 A  
HETATM    3  C   UNL     1      -8.535   6.204  66.151  1.00  0.00    -0.137 A  
HETATM    4  C   UNL     1      -7.338   7.002  66.072  1.00  0.00    -0.075 A  
HETATM    5  S   UNL     1      -7.696   6.077  63.708  1.00  0.00    -0.105 SA 
HETATM    6  C   UNL     1      -6.789   7.023  64.807  1.00  0.00    -0.047 A  
ENDROOT
BRANCH   3   7
HETATM    7  C   UNL     1      -9.336   5.975  67.399  1.00  0.00    -0.111 C  
BRANCH   7   8
HETATM    8  O   UNL     1      -9.622   7.210  68.056  1.00  0.00    -0.133 OA 
BRANCH   8   9
HETATM    9  C   UNL     1      -9.492   7.211  69.491  1.00  0.00    -0.151 C  
BRANCH   9  10
HETATM   10  C   UNL     1     -10.552   8.155  70.081  1.00  0.00    -0.237 A  
HETATM   11  C   UNL     1     -11.775  10.279  69.959  1.00  0.00    -0.330 A  
HETATM   12  C   UNL     1     -11.260   7.872  71.266  1.00  0.00    -0.255 A  
HETATM   13  C   UNL     1     -10.854   9.370  69.429  1.00  0.00    -0.208 A  
HETATM   14 CL   UNL     1     -11.115   6.364  72.099  1.00  0.00    -0.285 Cl 
HETATM   15 CL   UNL     1     -13.512  11.130  71.836  1.00  0.00    -0.388 Cl 
HETATM   16  C   UNL     1     -12.155   8.799  71.818  1.00  0.00    -0.418 A  
HETATM   17  C   UNL     1     -12.405   9.998  71.163  1.00  0.00    -0.377 A  
ENDBRANCH   9  10
BRANCH   9  18
HETATM   18  C   UNL     1      -8.042   7.553  69.916  1.00  0.00    -0.129 C  
BRANCH  18  19
HETATM   19  N   UNL     1      -7.463   6.636  70.874  1.00  0.00    -0.083 NA 
HETATM   20  N   UNL     1      -6.488   5.933  72.735  1.00  0.00    -0.061 NA 
HETATM   21  C   UNL     1      -7.515   5.272  70.833  1.00  0.00    -0.082 A  
HETATM   22  C   UNL     1      -6.901   4.859  71.992  1.00  0.00    -0.056 A  
HETATM   23  C   UNL     1      -6.846   6.989  72.044  1.00  0.00    -0.057 A  
ENDBRANCH  18  19
ENDBRANCH   9  18
ENDBRANCH   8   9
ENDBRANCH   7   8
ENDBRANCH   3   7
TORSDOF 6
ENDMDL
MODEL      287
REMARK 921   NORMALIZED FREE ENERGY PREDICTED BY IDOCK:   -2.58 KCAL/MOL
REMARK 922        TOTAL FREE ENERGY PREDICTED BY IDOCK:   -4.52 KCAL/MOL
REMARK 923 INTER-LIGAND FREE ENERGY PREDICTED BY IDOCK:   -4.06 KCAL/MOL
REMARK 924 INTRA-LIGAND FREE ENERGY PREDICTED BY IDOCK:   -0.46 KCAL/MOL
REMARK 927      BINDING AFFINITY PREDICTED BY RF-SCORE:    0.00 PKD
ROOT
HETATM    1 CL   UNL     1      -6.725  10.009  70.470  1.00  0.00    -0.132 Cl 
HETATM    2  C   UNL     1      -6.219  10.759  69.005  1.00  0.00    -0.042 A  
HETATM    3  C   UNL     1      -6.454  10.317  67.721  1.00  0.00    -0.062 A  
HETATM    4  C   UNL     1      -5.901  11.257  66.779  1.00  0.00    -0.121 A  
HETATM    5  S   UNL     1      -5.348  12.208  69.094  1.00  0.00    -0.060 SA 
HETATM    6  C   UNL     1      -5.270  12.320  67.389  1.00  0.00    -0.105 A  
ENDROOT
BRANCH   3   7
HETATM    7  C   UNL     1      -7.215   9.077  67.353  1.00  0.00    -0.083 C  
BRANCH   7   8
HETATM    8  O   UNL     1      -8.620   9.329  67.329  1.00  0.00    -0.124 OA 
BRANCH   8   9
HETATM    9  C   UNL     1      -9.466   8.253  67.780  1.00  0.00    -0.149 C  
BRANCH   9  10
HETATM   10  C   UNL     1     -10.331   8.761  68.944  1.00  0.00    -0.229 A  
HETATM   11  C   UNL     1     -11.664   8.263  70.943  1.00  0.00    -0.256 A  
HETATM   12  C   UNL     1     -10.663  10.118  69.121  1.00  0.00    -0.226 A  
HETATM   13  C   UNL     1     -10.833   7.849  69.899  1.00  0.00    -0.221 A  
HETATM   14 CL   UNL     1     -10.007  11.374  68.129  1.00  0.00    -0.186 Cl 
HETATM   15 CL   UNL     1     -13.076  10.105  72.313  1.00  0.00    -0.441 Cl 
HETATM   16  C   UNL     1     -11.527  10.529  70.146  1.00  0.00    -0.405 A  
HETATM   17  C   UNL     1     -12.025   9.599  71.049  1.00  0.00    -0.343 A  
ENDBRANCH   9  10
BRANCH   9  18
HETATM   18  C   UNL     1      -8.627   6.996  68.123  1.00  0.00    -0.128 C  
BRANCH  18  19
HETATM   19  N   UNL     1      -9.085   5.776  67.494  1.00  0.00    -0.107 NA 
HETATM   20  N   UNL     1      -9.559   3.626  67.251  1.00  0.00    -0.199 NA 
HETATM   21  C   UNL     1      -9.773   5.672  66.319  1.00  0.00    -0.135 A  
HETATM   22  C   UNL     1     -10.052   4.332  66.187  1.00  0.00    -0.187 A  
HETATM   23  C   UNL     1      -8.991   4.519  68.026  1.00  0.00    -0.116 A  
ENDBRANCH  18  19
ENDBRANCH   9  18
ENDBRANCH   8   9
ENDBRANCH   7   8
ENDBRANCH   3   7
TORSDOF 6
ENDMDL
MODEL      288
REMARK 921   NORMALIZED FREE ENERGY PREDICTED BY IDOCK:   -2.50 KCAL/MOL
REMARK 922        TOTAL FREE ENERGY PREDICTED BY IDOCK:   -4.42 KCAL/MOL
REMARK 923 INTER-LIGAND FREE ENERGY PREDICTED BY IDOCK:   -3.14 KCAL/MOL
REMARK 924 INTRA-LIGAND FREE ENERGY PREDICTED BY IDOCK:   -1.28 KCAL/MOL
REMARK 927      BINDING AFFINITY PREDICTED BY RF-SCORE:    0.00 PKD
ROOT
HETATM    1 CL   UNL     1     -10.130   9.785  69.724  1.00  0.00    -0.245 Cl 
HETATM    2  C   UNL     1     -10.124  10.035  68.019  1.00  0.00    -0.167 A  
HETATM    3  C   UNL     1     -10.056   9.068  67.039  1.00  0.00    -0.318 A  
HETATM    4  C   UNL     1     -10.123   9.693  65.742  1.00  0.00    -0.274 A  
HETATM    5  S   UNL     1     -10.226  11.619  67.430  1.00  0.00    -0.206 SA 
HETATM    6  C   UNL     1     -10.210  11.067  65.812  1.00  0.00    -0.260 A  
ENDROOT
BRANCH   3   7
HETATM    7  C   UNL     1      -9.979   7.589  67.279  1.00  0.00    -0.210 C  
BRANCH   7   8
HETATM    8  O   UNL     1      -8.635   7.123  67.169  1.00  0.00    -0.119 OA 
BRANCH   8   9
HETATM    9  C   UNL     1      -8.118   6.402  68.305  1.00  0.00    -0.113 C  
BRANCH   9  10
HETATM   10  C   UNL     1      -7.421   7.399  69.245  1.00  0.00    -0.092 A  
HETATM   11  C   UNL     1      -5.889   9.294  69.536  1.00  0.00    -0.033 A  
HETATM   12  C   UNL     1      -7.575   7.373  70.646  1.00  0.00    -0.086 A  
HETATM   13  C   UNL     1      -6.581   8.401  68.712  1.00  0.00    -0.054 A  
HETATM   14 CL   UNL     1      -8.684   6.309  71.440  1.00  0.00    -0.135 Cl 
HETATM   15 CL   UNL     1      -5.137  10.273  71.931  1.00  0.00    -0.075 Cl 
HETATM   16  C   UNL     1      -6.855   8.244  71.474  1.00  0.00    -0.066 A  
HETATM   17  C   UNL     1      -6.013   9.197  70.914  1.00  0.00    -0.050 A  
ENDBRANCH   9  10
BRANCH   9  18
HETATM   18  C   UNL     1      -7.212   5.230  67.852  1.00  0.00    -0.071 C  
BRANCH  18  19
HETATM   19  N   UNL     1      -7.905   3.974  67.659  1.00  0.00    -0.089 NA 
HETATM   20  N   UNL     1      -9.205   2.239  68.111  1.00  0.00    -0.181 NA 
HETATM   21  C   UNL     1      -8.030   3.283  66.488  1.00  0.00    -0.081 A  
HETATM   22  C   UNL     1      -8.835   2.211  66.793  1.00  0.00    -0.128 A  
HETATM   23  C   UNL     1      -8.639   3.314  68.606  1.00  0.00    -0.088 A  
ENDBRANCH  18  19
ENDBRANCH   9  18
ENDBRANCH   8   9
ENDBRANCH   7   8
ENDBRANCH   3   7
TORSDOF 6
ENDMDL
MODEL      289
REMARK 921   NORMALIZED FREE ENERGY PREDICTED BY IDOCK:   -2.46 KCAL/MOL
REMARK 922        TOTAL FREE ENERGY PREDICTED BY IDOCK:   -4.37 KCAL/MOL
REMARK 923 INTER-LIGAND FREE ENERGY PREDICTED BY IDOCK:   -4.17 KCAL/MOL
REMARK 924 INTRA-LIGAND FREE ENERGY PREDICTED BY IDOCK:   -0.20 KCAL/MOL
REMARK 927      BINDING AFFINITY PREDICTED BY RF-SCORE:    0.00 PKD
ROOT
HETATM    1 CL   UNL     1     -13.489   8.537  72.443  1.00  0.00    -0.336 Cl 
HETATM    2  C   UNL     1     -12.458   7.780  71.289  1.00  0.00    -0.279 A  
HETATM    3  C   UNL     1     -11.734   8.397  70.292  1.00  0.00     0.108 A  
HETATM    4  C   UNL     1     -10.964   7.411  69.576  1.00  0.00    -0.155 A  
HETATM    5  S   UNL     1     -12.264   6.100  71.354  1.00  0.00     0.361 SA 
HETATM    6  C   UNL     1     -11.164   6.130  70.045  1.00  0.00    -0.401 A  
ENDROOT
BRANCH   3   7
HETATM    7  C   UNL     1     -11.704   9.873  70.023  1.00  0.00    -0.124 C  
BRANCH   7   8
HETATM    8  O   UNL     1     -11.978  10.147  68.650  1.00  0.00    -0.035 OA 
BRANCH   8   9
HETATM    9  C   UNL     1     -10.976  10.903  67.941  1.00  0.00    -0.271 C  
BRANCH   9  10
HETATM   10  C   UNL     1     -10.898  12.312  68.552  1.00  0.00    -0.267 A  
HETATM   11  C   UNL     1     -11.949  14.086  69.883  1.00  0.00    -0.399 A  
HETATM   12  C   UNL     1      -9.802  13.175  68.358  1.00  0.00    -0.206 A  
HETATM   13  C   UNL     1     -11.958  12.793  69.351  1.00  0.00    -0.321 A  
HETATM   14 CL   UNL     1      -8.363  12.682  67.534  1.00  0.00    -0.166 Cl 
HETATM   15 CL   UNL     1     -10.883  16.535  70.241  1.00  0.00    -0.248 Cl 
HETATM   16  C   UNL     1      -9.807  14.484  68.859  1.00  0.00    -0.191 A  
HETATM   17  C   UNL     1     -10.882  14.933  69.616  1.00  0.00    -0.253 A  
ENDBRANCH   9  10
BRANCH   9  18
HETATM   18  C   UNL     1     -11.252  10.895  66.417  1.00  0.00     0.114 C  
BRANCH  18  19
HETATM   19  N   UNL     1     -10.109  10.551  65.600  1.00  0.00    -0.264 NA 
HETATM   20  N   UNL     1      -8.196   9.597  65.016  1.00  0.00    -0.129 NA 
HETATM   21  C   UNL     1      -9.941  10.825  64.273  1.00  0.00    -0.341 A  
HETATM   22  C   UNL     1      -8.749  10.230  63.934  1.00  0.00    -0.204 A  
HETATM   23  C   UNL     1      -9.039   9.798  66.001  1.00  0.00    -0.162 A  
ENDBRANCH  18  19
ENDBRANCH   9  18
ENDBRANCH   8   9
ENDBRANCH   7   8
ENDBRANCH   3   7
TORSDOF 6
ENDMDL
MODEL      290
REMARK 921   NORMALIZED FREE ENERGY PREDICTED BY IDOCK:   -2.46 KCAL/MOL
REMARK 922        TOTAL FREE ENERGY PREDICTED BY IDOCK:   -4.37 KCAL/MOL
REMARK 923 INTER-LIGAND FREE ENERGY PREDICTED BY IDOCK:   -4.29 KCAL/MOL
REMARK 924 INTRA-LIGAND FREE ENERGY PREDICTED BY IDOCK:   -0.08 KCAL/MOL
REMARK 927      BINDING AFFINITY PREDICTED BY RF-SCORE:    0.00 PKD
ROOT
HETATM    1 CL   UNL     1      -9.475   3.729  67.778  1.00  0.00    -0.238 Cl 
HETATM    2  C   UNL     1      -7.879   4.365  67.647  1.00  0.00    -0.085 A  
HETATM    3  C   UNL     1      -7.479   5.660  67.895  1.00  0.00    -0.077 A  
HETATM    4  C   UNL     1      -6.053   5.766  67.714  1.00  0.00    -0.022 A  
HETATM    5  S   UNL     1      -6.626   3.325  67.184  1.00  0.00    -0.038 SA 
HETATM    6  C   UNL     1      -5.472   4.579  67.323  1.00  0.00    -0.013 A  
ENDROOT
BRANCH   3   7
HETATM    7  C   UNL     1      -8.375   6.779  68.339  1.00  0.00    -0.123 C  
BRANCH   7   8
HETATM    8  O   UNL     1      -9.652   6.282  68.737  1.00  0.00    -0.122 OA 
BRANCH   8   9
HETATM    9  C   UNL     1      -9.952   6.358  70.145  1.00  0.00    -0.171 C  
BRANCH   9  10
HETATM   10  C   UNL     1     -10.729   7.656  70.414  1.00  0.00    -0.241 A  
HETATM   11  C   UNL     1     -11.038  10.050  69.972  1.00  0.00    -0.350 A  
HETATM   12  C   UNL     1     -11.789   7.741  71.339  1.00  0.00    -0.297 A  
HETATM   13  C   UNL     1     -10.390   8.837  69.719  1.00  0.00    -0.214 A  
HETATM   14 CL   UNL     1     -12.423   6.355  72.157  1.00  0.00    -0.279 Cl 
HETATM   15 CL   UNL     1     -12.808  11.609  71.274  1.00  0.00    -0.475 Cl 
HETATM   16  C   UNL     1     -12.414   8.963  71.620  1.00  0.00    -0.403 A  
HETATM   17  C   UNL     1     -12.033  10.112  70.937  1.00  0.00    -0.365 A  
ENDBRANCH   9  10
BRANCH   9  18
HETATM   18  C   UNL     1      -8.664   6.210  70.994  1.00  0.00    -0.132 C  
BRANCH  18  19
HETATM   19  N   UNL     1      -8.891   5.818  72.368  1.00  0.00    -0.131 NA 
HETATM   20  N   UNL     1      -9.121   6.012  74.563  1.00  0.00    -0.138 NA 
HETATM   21  C   UNL     1      -9.342   4.607  72.808  1.00  0.00    -0.128 A  
HETATM   22  C   UNL     1      -9.473   4.749  74.169  1.00  0.00    -0.122 A  
HETATM   23  C   UNL     1      -8.784   6.637  73.459  1.00  0.00    -0.123 A  
ENDBRANCH  18  19
ENDBRANCH   9  18
ENDBRANCH   8   9
ENDBRANCH   7   8
ENDBRANCH   3   7
TORSDOF 6
ENDMDL
MODEL      291
REMARK 921   NORMALIZED FREE ENERGY PREDICTED BY IDOCK:   -2.45 KCAL/MOL
REMARK 922        TOTAL FREE ENERGY PREDICTED BY IDOCK:   -4.35 KCAL/MOL
REMARK 923 INTER-LIGAND FREE ENERGY PREDICTED BY IDOCK:   -5.06 KCAL/MOL
REMARK 924 INTRA-LIGAND FREE ENERGY PREDICTED BY IDOCK:    0.71 KCAL/MOL
REMARK 927      BINDING AFFINITY PREDICTED BY RF-SCORE:    0.00 PKD
ROOT
HETATM    1 CL   UNL     1      -7.133   7.480  70.507  1.00  0.00    -0.055 Cl 
HETATM    2  C   UNL     1      -8.603   7.842  71.329  1.00  0.00    -0.125 A  
HETATM    3  C   UNL     1      -9.535   8.796  70.981  1.00  0.00    -0.287 A  
HETATM    4  C   UNL     1     -10.642   8.746  71.902  1.00  0.00    -0.425 A  
HETATM    5  S   UNL     1      -9.002   6.949  72.710  1.00  0.00    -0.130 SA 
HETATM    6  C   UNL     1     -10.476   7.797  72.889  1.00  0.00    -0.350 A  
ENDROOT
BRANCH   3   7
HETATM    7  C   UNL     1      -9.444   9.710  69.794  1.00  0.00    -0.220 C  
BRANCH   7   8
HETATM    8  O   UNL     1      -8.703   9.102  68.737  1.00  0.00    -0.129 OA 
BRANCH   8   9
HETATM    9  C   UNL     1      -9.469   8.646  67.605  1.00  0.00    -0.141 C  
BRANCH   9  10
HETATM   10  C   UNL     1      -9.890   9.867  66.771  1.00  0.00    -0.256 A  
HETATM   11  C   UNL     1      -9.559  11.270  64.785  1.00  0.00    -0.269 A  
HETATM   12  C   UNL     1     -10.913  10.753  67.165  1.00  0.00    -0.260 A  
HETATM   13  C   UNL     1      -9.241  10.142  65.548  1.00  0.00    -0.237 A  
HETATM   14 CL   UNL     1     -11.903  10.472  68.556  1.00  0.00    -0.131 Cl 
HETATM   15 CL   UNL     1     -10.896  13.563  64.318  1.00  0.00    -0.384 Cl 
HETATM   16  C   UNL     1     -11.208  11.903  66.421  1.00  0.00    -0.387 A  
HETATM   17  C   UNL     1     -10.527  12.157  65.237  1.00  0.00    -0.276 A  
ENDBRANCH   9  10
BRANCH   9  18
HETATM   18  C   UNL     1     -10.655   7.758  68.060  1.00  0.00    -0.139 C  
BRANCH  18  19
HETATM   19  N   UNL     1     -10.423   6.335  67.938  1.00  0.00    -0.200 NA 
HETATM   20  N   UNL     1     -10.097   4.368  66.972  1.00  0.00    -0.159 NA 
HETATM   21  C   UNL     1     -10.087   5.474  68.942  1.00  0.00    -0.198 A  
HETATM   22  C   UNL     1      -9.894   4.262  68.322  1.00  0.00    -0.037 A  
HETATM   23  C   UNL     1     -10.404   5.627  66.767  1.00  0.00    -0.262 A  
ENDBRANCH  18  19
ENDBRANCH   9  18
ENDBRANCH   8   9
ENDBRANCH   7   8
ENDBRANCH   3   7
TORSDOF 6
ENDMDL
MODEL      292
REMARK 921   NORMALIZED FREE ENERGY PREDICTED BY IDOCK:   -2.38 KCAL/MOL
REMARK 922        TOTAL FREE ENERGY PREDICTED BY IDOCK:   -4.25 KCAL/MOL
REMARK 923 INTER-LIGAND FREE ENERGY PREDICTED BY IDOCK:   -3.83 KCAL/MOL
REMARK 924 INTRA-LIGAND FREE ENERGY PREDICTED BY IDOCK:   -0.42 KCAL/MOL
REMARK 927      BINDING AFFINITY PREDICTED BY RF-SCORE:    0.00 PKD
ROOT
HETATM    1 CL   UNL     1      -9.603   5.863  68.044  1.00  0.00    -0.116 Cl 
HETATM    2  C   UNL     1     -10.234   6.945  69.227  1.00  0.00    -0.186 A  
HETATM    3  C   UNL     1     -10.221   8.322  69.184  1.00  0.00    -0.223 A  
HETATM    4  C   UNL     1     -10.891   8.847  70.346  1.00  0.00    -0.269 A  
HETATM    5  S   UNL     1     -10.976   6.298  70.604  1.00  0.00    -0.330 SA 
HETATM    6  C   UNL     1     -11.340   7.860  71.198  1.00  0.00    -0.266 A  
ENDROOT
BRANCH   3   7
HETATM    7  C   UNL     1      -9.648   9.153  68.073  1.00  0.00    -0.147 C  
BRANCH   7   8
HETATM    8  O   UNL     1     -10.024  10.522  68.214  1.00  0.00    -0.153 OA 
BRANCH   8   9
HETATM    9  C   UNL     1      -9.180  11.484  67.550  1.00  0.00    -0.166 C  
BRANCH   9  10
HETATM   10  C   UNL     1      -8.660  10.864  66.243  1.00  0.00    -0.164 A  
HETATM   11  C   UNL     1      -6.804   9.874  64.980  1.00  0.00    -0.126 A  
HETATM   12  C   UNL     1      -9.454  10.731  65.086  1.00  0.00    -0.226 A  
HETATM   13  C   UNL     1      -7.330  10.397  66.164  1.00  0.00    -0.131 A  
HETATM   14 CL   UNL     1     -11.140  11.114  65.065  1.00  0.00    -0.178 Cl 
HETATM   15 CL   UNL     1      -6.940   9.207  62.372  1.00  0.00    -0.092 Cl 
HETATM   16  C   UNL     1      -8.917  10.240  63.887  1.00  0.00    -0.259 A  
HETATM   17  C   UNL     1      -7.595   9.818  63.840  1.00  0.00    -0.133 A  
ENDBRANCH   9  10
BRANCH   9  18
HETATM   18  C   UNL     1      -8.059  11.983  68.496  1.00  0.00    -0.123 C  
BRANCH  18  19
HETATM   19  N   UNL     1      -7.804  13.406  68.430  1.00  0.00    -0.136 NA 
HETATM   20  N   UNL     1      -7.120  15.416  69.062  1.00  0.00    -0.132 NA 
HETATM   21  C   UNL     1      -7.916  14.205  67.329  1.00  0.00    -0.150 A  
HETATM   22  C   UNL     1      -7.492  15.445  67.744  1.00  0.00    -0.155 A  
HETATM   23  C   UNL     1      -7.309  14.176  69.447  1.00  0.00     0.033 A  
ENDBRANCH  18  19
ENDBRANCH   9  18
ENDBRANCH   8   9
ENDBRANCH   7   8
ENDBRANCH   3   7
TORSDOF 6
ENDMDL
MODEL      293
REMARK 921   NORMALIZED FREE ENERGY PREDICTED BY IDOCK:   -2.37 KCAL/MOL
REMARK 922        TOTAL FREE ENERGY PREDICTED BY IDOCK:   -4.25 KCAL/MOL
REMARK 923 INTER-LIGAND FREE ENERGY PREDICTED BY IDOCK:   -4.85 KCAL/MOL
REMARK 924 INTRA-LIGAND FREE ENERGY PREDICTED BY IDOCK:    0.60 KCAL/MOL
REMARK 927      BINDING AFFINITY PREDICTED BY RF-SCORE:    0.00 PKD
ROOT
HETATM    1 CL   UNL     1     -11.359  16.410  69.411  1.00  0.00    -0.267 Cl 
HETATM    2  C   UNL     1     -12.017  15.606  70.785  1.00  0.00    -0.398 A  
HETATM    3  C   UNL     1     -12.598  14.356  70.817  1.00  0.00    -0.426 A  
HETATM    4  C   UNL     1     -12.976  14.035  72.169  1.00  0.00    -0.458 A  
HETATM    5  S   UNL     1     -11.955  16.384  72.287  1.00  0.00    -0.284 SA 
HETATM    6  C   UNL     1     -12.691  15.048  73.061  1.00  0.00    -0.456 A  
ENDROOT
BRANCH   3   7
HETATM    7  C   UNL     1     -12.763  13.443  69.638  1.00  0.00     0.357 C  
BRANCH   7   8
HETATM    8  O   UNL     1     -11.796  13.732  68.628  1.00  0.00    -0.337 OA 
BRANCH   8   9
HETATM    9  C   UNL     1     -10.508  13.106  68.785  1.00  0.00    -0.167 C  
BRANCH   9  10
HETATM   10  C   UNL     1      -9.441  14.007  68.142  1.00  0.00    -0.215 A  
HETATM   11  C   UNL     1      -7.267  15.133  68.307  1.00  0.00    -0.112 A  
HETATM   12  C   UNL     1      -9.593  14.594  66.870  1.00  0.00    -0.244 A  
HETATM   13  C   UNL     1      -8.240  14.279  68.833  1.00  0.00    -0.053 A  
HETATM   14 CL   UNL     1     -10.933  14.239  65.836  1.00  0.00    -0.299 Cl 
HETATM   15 CL   UNL     1      -6.299  16.825  66.445  1.00  0.00    -0.066 Cl 
HETATM   16  C   UNL     1      -8.635  15.479  66.357  1.00  0.00    -0.292 A  
HETATM   17  C   UNL     1      -7.479  15.747  67.080  1.00  0.00    -0.224 A  
ENDBRANCH   9  10
BRANCH   9  18
HETATM   18  C   UNL     1     -10.524  11.660  68.229  1.00  0.00    -0.204 C  
BRANCH  18  19
HETATM   19  N   UNL     1      -9.471  11.367  67.281  1.00  0.00    -0.167 NA 
HETATM   20  N   UNL     1      -8.469  11.080  65.326  1.00  0.00    -0.066 NA 
HETATM   21  C   UNL     1      -8.142  11.215  67.557  1.00  0.00    -0.119 A  
HETATM   22  C   UNL     1      -7.543  11.034  66.333  1.00  0.00    -0.135 A  
HETATM   23  C   UNL     1      -9.619  11.291  65.923  1.00  0.00    -0.221 A  
ENDBRANCH  18  19
ENDBRANCH   9  18
ENDBRANCH   8   9
ENDBRANCH   7   8
ENDBRANCH   3   7
TORSDOF 6
ENDMDL
MODEL      294
REMARK 921   NORMALIZED FREE ENERGY PREDICTED BY IDOCK:   -2.34 KCAL/MOL
REMARK 922        TOTAL FREE ENERGY PREDICTED BY IDOCK:   -4.21 KCAL/MOL
REMARK 923 INTER-LIGAND FREE ENERGY PREDICTED BY IDOCK:   -4.36 KCAL/MOL
REMARK 924 INTRA-LIGAND FREE ENERGY PREDICTED BY IDOCK:    0.16 KCAL/MOL
REMARK 927      BINDING AFFINITY PREDICTED BY RF-SCORE:    0.00 PKD
ROOT
HETATM    1 CL   UNL     1      -7.446   5.312  74.323  1.00  0.00    -0.086 Cl 
HETATM    2  C   UNL     1      -8.938   4.511  74.012  1.00  0.00    -0.108 A  
HETATM    3  C   UNL     1     -10.090   5.069  73.502  1.00  0.00    -0.196 A  
HETATM    4  C   UNL     1     -11.095   4.047  73.351  1.00  0.00    -0.341 A  
HETATM    5  S   UNL     1      -9.052   2.853  74.335  1.00  0.00    -0.078 SA 
HETATM    6  C   UNL     1     -10.665   2.806  73.771  1.00  0.00    -0.187 A  
ENDROOT
BRANCH   3   7
HETATM    7  C   UNL     1     -10.261   6.507  73.109  1.00  0.00    -0.213 C  
BRANCH   7   8
HETATM    8  O   UNL     1      -9.154   6.958  72.328  1.00  0.00    -0.135 OA 
BRANCH   8   9
HETATM    9  C   UNL     1      -9.424   7.222  70.938  1.00  0.00    -0.159 C  
BRANCH   9  10
HETATM   10  C   UNL     1     -10.246   8.517  70.833  1.00  0.00    -0.246 A  
HETATM   11  C   UNL     1     -12.081   9.914  71.672  1.00  0.00    -0.457 A  
HETATM   12  C   UNL     1     -10.028   9.490  69.837  1.00  0.00    -0.230 A  
HETATM   13  C   UNL     1     -11.277   8.774  71.763  1.00  0.00    -0.410 A  
HETATM   14 CL   UNL     1      -8.711   9.397  68.719  1.00  0.00    -0.130 Cl 
HETATM   15 CL   UNL     1     -12.890  12.204  70.505  1.00  0.00    -0.029 Cl 
HETATM   16  C   UNL     1     -10.856  10.614  69.723  1.00  0.00    -0.317 A  
HETATM   17  C   UNL     1     -11.880  10.818  70.639  1.00  0.00    -0.360 A  
ENDBRANCH   9  10
BRANCH   9  18
HETATM   18  C   UNL     1     -10.091   5.999  70.260  1.00  0.00    -0.194 C  
BRANCH  18  19
HETATM   19  N   UNL     1      -9.288   5.364  69.238  1.00  0.00    -0.116 NA 
HETATM   20  N   UNL     1      -7.483   4.761  68.104  1.00  0.00    -0.073 NA 
HETATM   21  C   UNL     1      -9.706   4.431  68.333  1.00  0.00    -0.105 A  
HETATM   22  C   UNL     1      -8.574   4.075  67.639  1.00  0.00    -0.100 A  
HETATM   23  C   UNL     1      -7.939   5.522  69.071  1.00  0.00    -0.095 A  
ENDBRANCH  18  19
ENDBRANCH   9  18
ENDBRANCH   8   9
ENDBRANCH   7   8
ENDBRANCH   3   7
TORSDOF 6
ENDMDL
MODEL      295
REMARK 921   NORMALIZED FREE ENERGY PREDICTED BY IDOCK:   -2.31 KCAL/MOL
REMARK 922        TOTAL FREE ENERGY PREDICTED BY IDOCK:   -4.17 KCAL/MOL
REMARK 923 INTER-LIGAND FREE ENERGY PREDICTED BY IDOCK:   -4.58 KCAL/MOL
REMARK 924 INTRA-LIGAND FREE ENERGY PREDICTED BY IDOCK:    0.41 KCAL/MOL
REMARK 927      BINDING AFFINITY PREDICTED BY RF-SCORE:    0.00 PKD
ROOT
HETATM    1 CL   UNL     1     -11.757  10.031  68.470  1.00  0.00     0.105 Cl 
HETATM    2  C   UNL     1     -11.001  10.584  67.024  1.00  0.00    -0.180 A  
HETATM    3  C   UNL     1     -11.152  11.817  66.428  1.00  0.00    -0.360 A  
HETATM    4  C   UNL     1     -10.309  11.894  65.261  1.00  0.00    -0.316 A  
HETATM    5  S   UNL     1      -9.935   9.545  66.218  1.00  0.00    -0.259 SA 
HETATM    6  C   UNL     1      -9.604  10.731  65.031  1.00  0.00    -0.254 A  
ENDROOT
BRANCH   3   7
HETATM    7  C   UNL     1     -12.016  12.932  66.940  1.00  0.00    -0.335 C  
BRANCH   7   8
HETATM    8  O   UNL     1     -11.239  13.891  67.657  1.00  0.00    -0.276 OA 
BRANCH   8   9
HETATM    9  C   UNL     1     -10.730  13.467  68.937  1.00  0.00    -0.190 C  
BRANCH   9  10
HETATM   10  C   UNL     1     -11.505  14.200  70.043  1.00  0.00    -0.258 A  
HETATM   11  C   UNL     1     -12.672  14.114  72.201  1.00  0.00    -0.379 A  
HETATM   12  C   UNL     1     -11.836  15.568  69.975  1.00  0.00    -0.359 A  
HETATM   13  C   UNL     1     -11.921  13.497  71.195  1.00  0.00     0.020 A  
HETATM   14 CL   UNL     1     -11.272  16.599  68.706  1.00  0.00    -0.273 Cl 
HETATM   15 CL   UNL     1     -13.989  16.200  73.288  1.00  0.00    -0.281 Cl 
HETATM   16  C   UNL     1     -12.620  16.178  70.964  1.00  0.00     0.158 A  
HETATM   17  C   UNL     1     -13.036  15.447  72.069  1.00  0.00    -0.401 A  
ENDBRANCH   9  10
BRANCH   9  18
HETATM   18  C   UNL     1      -9.195  13.660  69.014  1.00  0.00     0.312 C  
BRANCH  18  19
HETATM   19  N   UNL     1      -8.712  14.887  68.418  1.00  0.00    -0.165 NA 
HETATM   20  N   UNL     1      -8.020  16.987  68.283  1.00  0.00    -0.213 NA 
HETATM   21  C   UNL     1      -8.253  15.051  67.142  1.00  0.00    -0.222 A  
HETATM   22  C   UNL     1      -7.835  16.359  67.080  1.00  0.00    -0.212 A  
HETATM   23  C   UNL     1      -8.539  16.077  69.072  1.00  0.00    -0.244 A  
ENDBRANCH  18  19
ENDBRANCH   9  18
ENDBRANCH   8   9
ENDBRANCH   7   8
ENDBRANCH   3   7
TORSDOF 6
ENDMDL
MODEL      296
REMARK 921   NORMALIZED FREE ENERGY PREDICTED BY IDOCK:   -2.18 KCAL/MOL
REMARK 922        TOTAL FREE ENERGY PREDICTED BY IDOCK:   -3.98 KCAL/MOL
REMARK 923 INTER-LIGAND FREE ENERGY PREDICTED BY IDOCK:   -3.15 KCAL/MOL
REMARK 924 INTRA-LIGAND FREE ENERGY PREDICTED BY IDOCK:   -0.83 KCAL/MOL
REMARK 927      BINDING AFFINITY PREDICTED BY RF-SCORE:    0.00 PKD
ROOT
HETATM    1 CL   UNL     1      -7.423   7.208  74.074  1.00  0.00    -0.114 Cl 
HETATM    2  C   UNL     1      -8.872   6.371  73.665  1.00  0.00    -0.124 A  
HETATM    3  C   UNL     1      -9.802   6.736  72.716  1.00  0.00    -0.183 A  
HETATM    4  C   UNL     1     -10.843   5.741  72.654  1.00  0.00    -0.296 A  
HETATM    5  S   UNL     1      -9.233   4.930  74.476  1.00  0.00    -0.117 SA 
HETATM    6  C   UNL     1     -10.659   4.715  73.557  1.00  0.00    -0.240 A  
ENDROOT
BRANCH   3   7
HETATM    7  C   UNL     1      -9.721   7.952  71.840  1.00  0.00    -0.177 C  
BRANCH   7   8
HETATM    8  O   UNL     1      -8.470   8.005  71.155  1.00  0.00    -0.113 OA 
BRANCH   8   9
HETATM    9  C   UNL     1      -8.527   7.891  69.719  1.00  0.00    -0.132 C  
BRANCH   9  10
HETATM   10  C   UNL     1      -7.691   9.024  69.102  1.00  0.00    -0.092 A  
HETATM   11  C   UNL     1      -6.989  11.375  69.136  1.00  0.00    -0.118 A  
HETATM   12  C   UNL     1      -6.899   8.856  67.948  1.00  0.00    -0.070 A  
HETATM   13  C   UNL     1      -7.695  10.305  69.694  1.00  0.00    -0.166 A  
HETATM   14 CL   UNL     1      -6.670   7.316  67.194  1.00  0.00    -0.066 Cl 
HETATM   15 CL   UNL     1      -5.431  12.512  67.253  1.00  0.00    -0.096 Cl 
HETATM   16  C   UNL     1      -6.221   9.935  67.366  1.00  0.00    -0.059 A  
HETATM   17  C   UNL     1      -6.273  11.189  67.962  1.00  0.00    -0.049 A  
ENDBRANCH   9  10
BRANCH   9  18
HETATM   18  C   UNL     1      -9.995   7.854  69.224  1.00  0.00    -0.190 C  
BRANCH  18  19
HETATM   19  N   UNL     1     -10.258   6.872  68.194  1.00  0.00    -0.167 NA 
HETATM   20  N   UNL     1     -10.325   4.902  67.183  1.00  0.00    -0.165 NA 
HETATM   21  C   UNL     1     -11.006   7.053  67.066  1.00  0.00    -0.287 A  
HETATM   22  C   UNL     1     -11.030   5.823  66.454  1.00  0.00     0.015 A  
HETATM   23  C   UNL     1      -9.880   5.558  68.229  1.00  0.00    -0.144 A  
ENDBRANCH  18  19
ENDBRANCH   9  18
ENDBRANCH   8   9
ENDBRANCH   7   8
ENDBRANCH   3   7
TORSDOF 6
ENDMDL
MODEL      297
REMARK 921   NORMALIZED FREE ENERGY PREDICTED BY IDOCK:   -2.10 KCAL/MOL
REMARK 922        TOTAL FREE ENERGY PREDICTED BY IDOCK:   -3.88 KCAL/MOL
REMARK 923 INTER-LIGAND FREE ENERGY PREDICTED BY IDOCK:   -2.88 KCAL/MOL
REMARK 924 INTRA-LIGAND FREE ENERGY PREDICTED BY IDOCK:   -1.00 KCAL/MOL
REMARK 927      BINDING AFFINITY PREDICTED BY RF-SCORE:    0.00 PKD
ROOT
HETATM    1 CL   UNL     1      -5.923   4.126  73.372  1.00  0.00    -0.011 Cl 
HETATM    2  C   UNL     1      -7.199   5.268  73.184  1.00  0.00    -0.090 A  
HETATM    3  C   UNL     1      -7.947   5.498  72.049  1.00  0.00    -0.111 A  
HETATM    4  C   UNL     1      -8.943   6.501  72.324  1.00  0.00    -0.138 A  
HETATM    5  S   UNL     1      -7.634   6.225  74.510  1.00  0.00    -0.099 SA 
HETATM    6  C   UNL     1      -8.879   6.982  73.615  1.00  0.00    -0.151 A  
ENDROOT
BRANCH   3   7
HETATM    7  C   UNL     1      -7.789   4.778  70.742  1.00  0.00    -0.074 C  
BRANCH   7   8
HETATM    8  O   UNL     1      -9.011   4.783  70.005  1.00  0.00    -0.090 OA 
BRANCH   8   9
HETATM    9  C   UNL     1      -8.896   5.000  68.585  1.00  0.00    -0.097 C  
BRANCH   9  10
HETATM   10  C   UNL     1      -9.420   6.408  68.258  1.00  0.00    -0.121 A  
HETATM   11  C   UNL     1     -10.869   8.299  68.845  1.00  0.00     0.002 A  
HETATM   12  C   UNL     1      -9.036   7.124  67.106  1.00  0.00    -0.125 A  
HETATM   13  C   UNL     1     -10.330   7.042  69.131  1.00  0.00    -0.209 A  
HETATM   14 CL   UNL     1      -7.819   6.552  66.018  1.00  0.00    -0.099 Cl 
HETATM   15 CL   UNL     1     -11.206  10.479  67.296  1.00  0.00    -0.292 Cl 
HETATM   16  C   UNL     1      -9.603   8.368  66.799  1.00  0.00    -0.283 A  
HETATM   17  C   UNL     1     -10.519   8.947  67.668  1.00  0.00    -0.255 A  
ENDBRANCH   9  10
BRANCH   9  18
HETATM   18  C   UNL     1      -9.599   3.870  67.793  1.00  0.00    -0.145 C  
BRANCH  18  19
HETATM   19  N   UNL     1      -8.880   3.418  66.621  1.00  0.00    -0.128 NA 
HETATM   20  N   UNL     1      -7.257   2.522  65.408  1.00  0.00    -0.060 NA 
HETATM   21  C   UNL     1      -9.368   3.326  65.349  1.00  0.00    -0.140 A  
HETATM   22  C   UNL     1      -8.345   2.773  64.615  1.00  0.00    -0.087 A  
HETATM   23  C   UNL     1      -7.609   2.911  66.611  1.00  0.00    -0.075 A  
ENDBRANCH  18  19
ENDBRANCH   9  18
ENDBRANCH   8   9
ENDBRANCH   7   8
ENDBRANCH   3   7
TORSDOF 6
ENDMDL
MODEL      298
REMARK 921   NORMALIZED FREE ENERGY PREDICTED BY IDOCK:   -2.06 KCAL/MOL
REMARK 922        TOTAL FREE ENERGY PREDICTED BY IDOCK:   -3.82 KCAL/MOL
REMARK 923 INTER-LIGAND FREE ENERGY PREDICTED BY IDOCK:   -5.26 KCAL/MOL
REMARK 924 INTRA-LIGAND FREE ENERGY PREDICTED BY IDOCK:    1.44 KCAL/MOL
REMARK 927      BINDING AFFINITY PREDICTED BY RF-SCORE:    0.00 PKD
ROOT
HETATM    1 CL   UNL     1     -11.132  16.601  69.209  1.00  0.00    -0.259 Cl 
HETATM    2  C   UNL     1     -11.805  15.574  70.417  1.00  0.00    -0.351 A  
HETATM    3  C   UNL     1     -11.996  14.212  70.337  1.00  0.00    -0.400 A  
HETATM    4  C   UNL     1     -12.542  13.728  71.580  1.00  0.00    -0.405 A  
HETATM    5  S   UNL     1     -12.286  16.259  71.889  1.00  0.00    -0.163 SA 
HETATM    6  C   UNL     1     -12.753  14.732  72.501  1.00  0.00    -0.368 A  
ENDROOT
BRANCH   3   7
HETATM    7  C   UNL     1     -11.641  13.351  69.160  1.00  0.00    -0.315 C  
BRANCH   7   8
HETATM    8  O   UNL     1     -10.688  14.002  68.321  1.00  0.00    -0.241 OA 
BRANCH   8   9
HETATM    9  C   UNL     1      -9.304  13.845  68.692  1.00  0.00    -0.106 C  
BRANCH   9  10
HETATM   10  C   UNL     1      -8.522  15.077  68.208  1.00  0.00    -0.147 A  
HETATM   11  C   UNL     1      -7.030  16.956  68.726  1.00  0.00    -0.204 A  
HETATM   12  C   UNL     1      -8.561  15.540  66.877  1.00  0.00    -0.256 A  
HETATM   13  C   UNL     1      -7.717  15.801  69.114  1.00  0.00    -0.220 A  
HETATM   14 CL   UNL     1      -9.376  14.681  65.617  1.00  0.00    -0.096 Cl 
HETATM   15 CL   UNL     1      -6.329  18.860  66.952  1.00  0.00    -0.189 Cl 
HETATM   16  C   UNL     1      -7.904  16.717  66.496  1.00  0.00    -0.338 A  
HETATM   17  C   UNL     1      -7.145  17.420  67.423  1.00  0.00    -0.164 A  
ENDBRANCH   9  10
BRANCH   9  18
HETATM   18  C   UNL     1      -8.739  12.500  68.170  1.00  0.00    -0.190 C  
BRANCH  18  19
HETATM   19  N   UNL     1      -9.647  11.379  68.291  1.00  0.00    -0.186 NA 
HETATM   20  N   UNL     1     -10.621   9.591  69.164  1.00  0.00    -0.219 NA 
HETATM   21  C   UNL     1     -10.729  11.116  67.501  1.00  0.00    -0.236 A  
HETATM   22  C   UNL     1     -11.314  10.003  68.057  1.00  0.00     0.004 A  
HETATM   23  C   UNL     1      -9.629  10.441  69.287  1.00  0.00    -0.209 A  
ENDBRANCH  18  19
ENDBRANCH   9  18
ENDBRANCH   8   9
ENDBRANCH   7   8
ENDBRANCH   3   7
TORSDOF 6
ENDMDL
MODEL      299
REMARK 921   NORMALIZED FREE ENERGY PREDICTED BY IDOCK:   -2.05 KCAL/MOL
REMARK 922        TOTAL FREE ENERGY PREDICTED BY IDOCK:   -3.81 KCAL/MOL
REMARK 923 INTER-LIGAND FREE ENERGY PREDICTED BY IDOCK:   -3.64 KCAL/MOL
REMARK 924 INTRA-LIGAND FREE ENERGY PREDICTED BY IDOCK:   -0.17 KCAL/MOL
REMARK 927      BINDING AFFINITY PREDICTED BY RF-SCORE:    0.00 PKD
ROOT
HETATM    1 CL   UNL     1     -11.208  13.454  64.232  1.00  0.00    -0.403 Cl 
HETATM    2  C   UNL     1     -10.290  14.620  65.106  1.00  0.00    -0.403 A  
HETATM    3  C   UNL     1      -9.260  14.375  65.988  1.00  0.00    -0.070 A  
HETATM    4  C   UNL     1      -8.729  15.626  66.468  1.00  0.00    -0.342 A  
HETATM    5  S   UNL     1     -10.640  16.261  64.882  1.00  0.00     0.066 SA 
HETATM    6  C   UNL     1      -9.390  16.722  65.953  1.00  0.00    -0.127 A  
ENDROOT
BRANCH   3   7
HETATM    7  C   UNL     1      -8.731  13.020  66.355  1.00  0.00     0.184 C  
BRANCH   7   8
HETATM    8  O   UNL     1      -9.795  12.132  66.697  1.00  0.00    -0.203 OA 
BRANCH   8   9
HETATM    9  C   UNL     1     -10.076  11.992  68.104  1.00  0.00    -0.200 C  
BRANCH   9  10
HETATM   10  C   UNL     1      -9.733  10.556  68.534  1.00  0.00    -0.170 A  
HETATM   11  C   UNL     1      -8.681   8.401  68.011  1.00  0.00    -0.139 A  
HETATM   12  C   UNL     1     -10.145  10.001  69.762  1.00  0.00    -0.248 A  
HETATM   13  C   UNL     1      -8.972   9.728  67.681  1.00  0.00    -0.133 A  
HETATM   14 CL   UNL     1     -10.952  10.929  70.978  1.00  0.00     0.774 Cl 
HETATM   15 CL   UNL     1      -8.833   6.225  69.594  1.00  0.00    -0.135 Cl 
HETATM   16  C   UNL     1      -9.887   8.660  70.079  1.00  0.00    -0.185 A  
HETATM   17  C   UNL     1      -9.159   7.867  69.200  1.00  0.00    -0.145 A  
ENDBRANCH   9  10
BRANCH   9  18
HETATM   18  C   UNL     1     -11.533  12.410  68.422  1.00  0.00    -0.310 C  
BRANCH  18  19
HETATM   19  N   UNL     1     -11.662  13.697  69.071  1.00  0.00    -0.310 NA 
HETATM   20  N   UNL     1     -12.014  15.873  69.299  1.00  0.00    -0.318 NA 
HETATM   21  C   UNL     1     -11.703  13.933  70.416  1.00  0.00    -0.199 A  
HETATM   22  C   UNL     1     -11.916  15.286  70.533  1.00  0.00    -0.344 A  
HETATM   23  C   UNL     1     -11.867  14.893  68.438  1.00  0.00    -0.278 A  
ENDBRANCH  18  19
ENDBRANCH   9  18
ENDBRANCH   8   9
ENDBRANCH   7   8
ENDBRANCH   3   7
TORSDOF 6
ENDMDL
MODEL      300
REMARK 921   NORMALIZED FREE ENERGY PREDICTED BY IDOCK:   -1.99 KCAL/MOL
REMARK 922        TOTAL FREE ENERGY PREDICTED BY IDOCK:   -3.74 KCAL/MOL
REMARK 923 INTER-LIGAND FREE ENERGY PREDICTED BY IDOCK:   -2.82 KCAL/MOL
REMARK 924 INTRA-LIGAND FREE ENERGY PREDICTED BY IDOCK:   -0.92 KCAL/MOL
REMARK 927      BINDING AFFINITY PREDICTED BY RF-SCORE:    0.00 PKD
ROOT
HETATM    1 CL   UNL     1      -7.623   3.988  71.379  1.00  0.00    -0.061 Cl 
HETATM    2  C   UNL     1      -9.087   4.870  71.166  1.00  0.00    -0.141 A  
HETATM    3  C   UNL     1      -9.704   5.180  69.974  1.00  0.00    -0.275 A  
HETATM    4  C   UNL     1     -10.931   5.888  70.236  1.00  0.00    -0.390 A  
HETATM    5  S   UNL     1      -9.907   5.425  72.540  1.00  0.00    -0.167 SA 
HETATM    6  C   UNL     1     -11.156   6.092  71.582  1.00  0.00    -0.275 A  
ENDROOT
BRANCH   3   7
HETATM    7  C   UNL     1      -9.208   4.795  68.611  1.00  0.00    -0.124 C  
BRANCH   7   8
HETATM    8  O   UNL     1      -9.482   5.822  67.659  1.00  0.00    -0.111 OA 
BRANCH   8   9
HETATM    9  C   UNL     1      -8.509   5.989  66.608  1.00  0.00    -0.112 C  
BRANCH   9  10
HETATM   10  C   UNL     1      -7.914   7.403  66.709  1.00  0.00    -0.115 A  
HETATM   11  C   UNL     1      -8.157   9.740  67.418  1.00  0.00    -0.114 A  
HETATM   12  C   UNL     1      -6.652   7.746  66.184  1.00  0.00    -0.050 A  
HETATM   13  C   UNL     1      -8.641   8.429  67.350  1.00  0.00    -0.124 A  
HETATM   14 CL   UNL     1      -5.577   6.574  65.504  1.00  0.00    -0.024 Cl 
HETATM   15 CL   UNL     1      -6.358  11.674  66.884  1.00  0.00    -0.147 Cl 
HETATM   16  C   UNL     1      -6.183   9.066  66.219  1.00  0.00    -0.064 A  
HETATM   17  C   UNL     1      -6.940  10.056  66.833  1.00  0.00    -0.089 A  
ENDBRANCH   9  10
BRANCH   9  18
HETATM   18  C   UNL     1      -9.127   5.666  65.225  1.00  0.00     0.037 C  
BRANCH  18  19
HETATM   19  N   UNL     1      -8.590   4.484  64.586  1.00  0.00    -0.133 NA 
HETATM   20  N   UNL     1      -7.739   2.449  64.384  1.00  0.00    -0.071 NA 
HETATM   21  C   UNL     1      -8.582   4.211  63.249  1.00  0.00    -0.104 A  
HETATM   22  C   UNL     1      -8.047   2.948  63.147  1.00  0.00    -0.073 A  
HETATM   23  C   UNL     1      -8.084   3.389  65.232  1.00  0.00    -0.093 A  
ENDBRANCH  18  19
ENDBRANCH   9  18
ENDBRANCH   8   9
ENDBRANCH   7   8
ENDBRANCH   3   7
TORSDOF 6
ENDMDL
MODEL      301
REMARK 921   NORMALIZED FREE ENERGY PREDICTED BY IDOCK:   -1.97 KCAL/MOL
REMARK 922        TOTAL FREE ENERGY PREDICTED BY IDOCK:   -3.70 KCAL/MOL
REMARK 923 INTER-LIGAND FREE ENERGY PREDICTED BY IDOCK:   -3.02 KCAL/MOL
REMARK 924 INTRA-LIGAND FREE ENERGY PREDICTED BY IDOCK:   -0.69 KCAL/MOL
REMARK 927      BINDING AFFINITY PREDICTED BY RF-SCORE:    0.00 PKD
ROOT
HETATM    1 CL   UNL     1      -7.334   9.624  70.533  1.00  0.00    -0.147 Cl 
HETATM    2  C   UNL     1      -7.097  10.639  69.161  1.00  0.00    -0.095 A  
HETATM    3  C   UNL     1      -7.702  10.524  67.928  1.00  0.00    -0.092 A  
HETATM    4  C   UNL     1      -7.266  11.600  67.075  1.00  0.00    -0.143 A  
HETATM    5  S   UNL     1      -6.028  11.945  69.293  1.00  0.00    -0.088 SA 
HETATM    6  C   UNL     1      -6.355  12.435  67.688  1.00  0.00    -0.131 A  
ENDROOT
BRANCH   3   7
HETATM    7  C   UNL     1      -8.705   9.475  67.545  1.00  0.00    -0.126 C  
BRANCH   7   8
HETATM    8  O   UNL     1      -8.113   8.176  67.555  1.00  0.00    -0.119 OA 
BRANCH   8   9
HETATM    9  C   UNL     1      -8.902   7.115  66.981  1.00  0.00    -0.124 C  
BRANCH   9  10
HETATM   10  C   UNL     1      -9.125   6.034  68.051  1.00  0.00    -0.117 A  
HETATM   11  C   UNL     1      -8.731   3.742  68.836  1.00  0.00    -0.132 A  
HETATM   12  C   UNL     1      -9.927   6.234  69.192  1.00  0.00    -0.150 A  
HETATM   13  C   UNL     1      -8.513   4.769  67.913  1.00  0.00    -0.103 A  
HETATM   14 CL   UNL     1     -10.623   7.768  69.583  1.00  0.00    -0.243 Cl 
HETATM   15 CL   UNL     1      -9.878   2.681  71.032  1.00  0.00    -0.144 Cl 
HETATM   16  C   UNL     1     -10.177   5.194  70.099  1.00  0.00    -0.348 A  
HETATM   17  C   UNL     1      -9.580   3.953  69.913  1.00  0.00    -0.200 A  
ENDBRANCH   9  10
BRANCH   9  18
HETATM   18  C   UNL     1      -8.252   6.584  65.679  1.00  0.00    -0.137 C  
BRANCH  18  19
HETATM   19  N   UNL     1      -7.755   7.613  64.791  1.00  0.00    -0.109 NA 
HETATM   20  N   UNL     1      -6.312   8.788  63.589  1.00  0.00    -0.084 NA 
HETATM   21  C   UNL     1      -8.503   8.476  64.043  1.00  0.00    -0.028 A  
HETATM   22  C   UNL     1      -7.589   9.196  63.310  1.00  0.00    -0.107 A  
HETATM   23  C   UNL     1      -6.441   7.829  64.475  1.00  0.00    -0.048 A  
ENDBRANCH  18  19
ENDBRANCH   9  18
ENDBRANCH   8   9
ENDBRANCH   7   8
ENDBRANCH   3   7
TORSDOF 6
ENDMDL
MODEL      302
REMARK 921   NORMALIZED FREE ENERGY PREDICTED BY IDOCK:   -1.94 KCAL/MOL
REMARK 922        TOTAL FREE ENERGY PREDICTED BY IDOCK:   -3.66 KCAL/MOL
REMARK 923 INTER-LIGAND FREE ENERGY PREDICTED BY IDOCK:   -4.01 KCAL/MOL
REMARK 924 INTRA-LIGAND FREE ENERGY PREDICTED BY IDOCK:    0.35 KCAL/MOL
REMARK 927      BINDING AFFINITY PREDICTED BY RF-SCORE:    0.00 PKD
ROOT
HETATM    1 CL   UNL     1      -7.444   7.213  74.071  1.00  0.00    -0.114 Cl 
HETATM    2  C   UNL     1      -8.924   6.408  73.713  1.00  0.00    -0.126 A  
HETATM    3  C   UNL     1      -9.866   6.779  72.777  1.00  0.00    -0.183 A  
HETATM    4  C   UNL     1     -10.934   5.812  72.760  1.00  0.00    -0.314 A  
HETATM    5  S   UNL     1      -9.305   4.993  74.561  1.00  0.00    -0.132 SA 
HETATM    6  C   UNL     1     -10.758   4.800  73.680  1.00  0.00    -0.285 A  
ENDROOT
BRANCH   3   7
HETATM    7  C   UNL     1      -9.773   7.974  71.875  1.00  0.00    -0.190 C  
BRANCH   7   8
HETATM    8  O   UNL     1      -8.548   7.967  71.144  1.00  0.00    -0.122 OA 
BRANCH   8   9
HETATM    9  C   UNL     1      -8.662   7.826  69.714  1.00  0.00    -0.139 C  
BRANCH   9  10
HETATM   10  C   UNL     1      -9.439   9.032  69.161  1.00  0.00    -0.153 A  
HETATM   11  C   UNL     1     -11.317  10.598  69.373  1.00  0.00    -0.348 A  
HETATM   12  C   UNL     1      -9.096   9.684  67.959  1.00  0.00    -0.125 A  
HETATM   13  C   UNL     1     -10.553   9.536  69.867  1.00  0.00    -0.269 A  
HETATM   14 CL   UNL     1      -7.674   9.286  67.058  1.00  0.00    -0.095 Cl 
HETATM   15 CL   UNL     1     -11.947  12.457  67.527  1.00  0.00    -0.348 Cl 
HETATM   16  C   UNL     1      -9.882  10.724  67.445  1.00  0.00    -0.204 A  
HETATM   17  C   UNL     1     -10.990  11.173  68.153  1.00  0.00    -0.238 A  
ENDBRANCH   9  10
BRANCH   9  18
HETATM   18  C   UNL     1      -9.282   6.457  69.339  1.00  0.00    -0.143 C  
BRANCH  18  19
HETATM   19  N   UNL     1      -8.637   5.787  68.229  1.00  0.00    -0.112 NA 
HETATM   20  N   UNL     1      -7.521   4.228  67.121  1.00  0.00    -0.076 NA 
HETATM   21  C   UNL     1      -8.712   6.136  66.912  1.00  0.00    -0.109 A  
HETATM   22  C   UNL     1      -8.010   5.160  66.245  1.00  0.00    -0.104 A  
HETATM   23  C   UNL     1      -7.921   4.625  68.307  1.00  0.00    -0.084 A  
ENDBRANCH  18  19
ENDBRANCH   9  18
ENDBRANCH   8   9
ENDBRANCH   7   8
ENDBRANCH   3   7
TORSDOF 6
ENDMDL
MODEL      303
REMARK 921   NORMALIZED FREE ENERGY PREDICTED BY IDOCK:   -1.72 KCAL/MOL
REMARK 922        TOTAL FREE ENERGY PREDICTED BY IDOCK:   -3.37 KCAL/MOL
REMARK 923 INTER-LIGAND FREE ENERGY PREDICTED BY IDOCK:   -2.75 KCAL/MOL
REMARK 924 INTRA-LIGAND FREE ENERGY PREDICTED BY IDOCK:   -0.62 KCAL/MOL
REMARK 927      BINDING AFFINITY PREDICTED BY RF-SCORE:    0.00 PKD
ROOT
HETATM    1 CL   UNL     1      -8.650   5.777  72.194  1.00  0.00    -0.129 Cl 
HETATM    2  C   UNL     1      -9.908   6.952  72.239  1.00  0.00    -0.150 A  
HETATM    3  C   UNL     1     -10.433   7.648  71.172  1.00  0.00    -0.220 A  
HETATM    4  C   UNL     1     -11.501   8.500  71.631  1.00  0.00    -0.365 A  
HETATM    5  S   UNL     1     -10.623   7.319  73.729  1.00  0.00     0.008 SA 
HETATM    6  C   UNL     1     -11.701   8.423  72.993  1.00  0.00     0.295 A  
ENDROOT
BRANCH   3   7
HETATM    7  C   UNL     1     -10.003   7.504  69.742  1.00  0.00    -0.186 C  
BRANCH   7   8
HETATM    8  O   UNL     1     -10.247   8.705  69.011  1.00  0.00    -0.198 OA 
BRANCH   8   9
HETATM    9  C   UNL     1      -9.196   9.132  68.122  1.00  0.00    -0.131 C  
BRANCH   9  10
HETATM   10  C   UNL     1      -8.941  10.631  68.346  1.00  0.00    -0.149 A  
HETATM   11  C   UNL     1      -7.374  12.434  68.910  1.00  0.00    -0.031 A  
HETATM   12  C   UNL     1      -9.955  11.606  68.264  1.00  0.00    -0.201 A  
HETATM   13  C   UNL     1      -7.639  11.086  68.650  1.00  0.00    -0.124 A  
HETATM   14 CL   UNL     1     -11.565  11.232  67.755  1.00  0.00    -0.338 Cl 
HETATM   15 CL   UNL     1      -8.094  15.011  69.239  1.00  0.00    -0.190 Cl 
HETATM   16  C   UNL     1      -9.699  12.951  68.561  1.00  0.00    -0.129 A  
HETATM   17  C   UNL     1      -8.410  13.357  68.886  1.00  0.00     0.207 A  
ENDBRANCH   9  10
BRANCH   9  18
HETATM   18  C   UNL     1      -9.529   8.765  66.654  1.00  0.00    -0.203 C  
BRANCH  18  19
HETATM   19  N   UNL     1      -8.654   7.773  66.068  1.00  0.00    -0.145 NA 
HETATM   20  N   UNL     1      -7.413   6.752  64.543  1.00  0.00    -0.091 NA 
HETATM   21  C   UNL     1      -7.987   6.781  66.728  1.00  0.00    -0.108 A  
HETATM   22  C   UNL     1      -7.229   6.159  65.764  1.00  0.00    -0.075 A  
HETATM   23  C   UNL     1      -8.267   7.726  64.757  1.00  0.00    -0.096 A  
ENDBRANCH  18  19
ENDBRANCH   9  18
ENDBRANCH   8   9
ENDBRANCH   7   8
ENDBRANCH   3   7
TORSDOF 6
ENDMDL
MODEL      304
REMARK 921   NORMALIZED FREE ENERGY PREDICTED BY IDOCK:   -1.67 KCAL/MOL
REMARK 922        TOTAL FREE ENERGY PREDICTED BY IDOCK:   -3.29 KCAL/MOL
REMARK 923 INTER-LIGAND FREE ENERGY PREDICTED BY IDOCK:   -3.32 KCAL/MOL
REMARK 924 INTRA-LIGAND FREE ENERGY PREDICTED BY IDOCK:    0.03 KCAL/MOL
REMARK 927      BINDING AFFINITY PREDICTED BY RF-SCORE:    0.00 PKD
ROOT
HETATM    1 CL   UNL     1      -9.758   4.410  71.022  1.00  0.00    -0.248 Cl 
HETATM    2  C   UNL     1      -8.422   5.498  71.014  1.00  0.00    -0.125 A  
HETATM    3  C   UNL     1      -8.025   6.318  69.980  1.00  0.00    -0.111 A  
HETATM    4  C   UNL     1      -6.891   7.103  70.397  1.00  0.00    -0.057 A  
HETATM    5  S   UNL     1      -7.470   5.625  72.409  1.00  0.00    -0.098 SA 
HETATM    6  C   UNL     1      -6.486   6.821  71.685  1.00  0.00    -0.045 A  
ENDROOT
BRANCH   3   7
HETATM    7  C   UNL     1      -8.699   6.422  68.644  1.00  0.00    -0.122 C  
BRANCH   7   8
HETATM    8  O   UNL     1      -9.173   7.748  68.413  1.00  0.00    -0.138 OA 
BRANCH   8   9
HETATM    9  C   UNL     1      -8.188   8.709  67.984  1.00  0.00    -0.115 C  
BRANCH   9  10
HETATM   10  C   UNL     1      -8.720  10.122  68.272  1.00  0.00    -0.120 A  
HETATM   11  C   UNL     1     -10.616  11.583  68.812  1.00  0.00    -0.241 A  
HETATM   12  C   UNL     1      -7.908  11.273  68.233  1.00  0.00    -0.130 A  
HETATM   13  C   UNL     1     -10.082  10.310  68.593  1.00  0.00    -0.187 A  
HETATM   14 CL   UNL     1      -6.196  11.196  68.004  1.00  0.00    -0.049 Cl 
HETATM   15 CL   UNL     1     -10.463  14.271  68.936  1.00  0.00    -0.246 Cl 
HETATM   16  C   UNL     1      -8.450  12.553  68.416  1.00  0.00    -0.125 A  
HETATM   17  C   UNL     1      -9.801  12.701  68.701  1.00  0.00    -0.069 A  
ENDBRANCH   9  10
BRANCH   9  18
HETATM   18  C   UNL     1      -7.796   8.476  66.504  1.00  0.00    -0.096 C  
BRANCH  18  19
HETATM   19  N   UNL     1      -8.477   9.334  65.558  1.00  0.00    -0.132 NA 
HETATM   20  N   UNL     1     -10.144  10.395  64.556  1.00  0.00    -0.338 NA 
HETATM   21  C   UNL     1      -7.897  10.198  64.674  1.00  0.00    -0.144 A  
HETATM   22  C   UNL     1      -8.947  10.840  64.062  1.00  0.00    -0.155 A  
HETATM   23  C   UNL     1      -9.832   9.497  65.461  1.00  0.00    -0.234 A  
ENDBRANCH  18  19
ENDBRANCH   9  18
ENDBRANCH   8   9
ENDBRANCH   7   8
ENDBRANCH   3   7
TORSDOF 6
ENDMDL
MODEL      305
REMARK 921   NORMALIZED FREE ENERGY PREDICTED BY IDOCK:   -0.60 KCAL/MOL
REMARK 922        TOTAL FREE ENERGY PREDICTED BY IDOCK:   -1.85 KCAL/MOL
REMARK 923 INTER-LIGAND FREE ENERGY PREDICTED BY IDOCK:   -1.91 KCAL/MOL
REMARK 924 INTRA-LIGAND FREE ENERGY PREDICTED BY IDOCK:    0.06 KCAL/MOL
REMARK 927      BINDING AFFINITY PREDICTED BY RF-SCORE:    0.00 PKD
ROOT
HETATM    1 CL   UNL     1     -10.274   4.597  68.366  1.00  0.00    -0.071 Cl 
HETATM    2  C   UNL     1      -8.646   5.151  68.455  1.00  0.00    -0.098 A  
HETATM    3  C   UNL     1      -8.199   6.445  68.295  1.00  0.00    -0.116 A  
HETATM    4  C   UNL     1      -6.772   6.490  68.492  1.00  0.00    -0.068 A  
HETATM    5  S   UNL     1      -7.423   4.028  68.788  1.00  0.00    -0.054 SA 
HETATM    6  C   UNL     1      -6.228   5.251  68.758  1.00  0.00    -0.030 A  
ENDROOT
BRANCH   3   7
HETATM    7  C   UNL     1      -9.066   7.637  68.014  1.00  0.00    -0.135 C  
BRANCH   7   8
HETATM    8  O   UNL     1      -9.381   7.723  66.625  1.00  0.00    -0.168 OA 
BRANCH   8   9
HETATM    9  C   UNL     1      -8.559   8.611  65.841  1.00  0.00    -0.157 C  
BRANCH   9  10
HETATM   10  C   UNL     1      -7.857   9.597  66.789  1.00  0.00    -0.102 A  
HETATM   11  C   UNL     1      -7.988  11.576  68.234  1.00  0.00    -0.142 A  
HETATM   12  C   UNL     1      -6.481   9.532  67.086  1.00  0.00    -0.066 A  
HETATM   13  C   UNL     1      -8.597  10.629  67.406  1.00  0.00    -0.122 A  
HETATM   14 CL   UNL     1      -5.470   8.243  66.532  1.00  0.00    -0.028 Cl 
HETATM   15 CL   UNL     1      -5.859  12.705  69.443  1.00  0.00    -0.086 Cl 
HETATM   16  C   UNL     1      -5.862  10.502  67.886  1.00  0.00    -0.043 A  
HETATM   17  C   UNL     1      -6.618  11.521  68.452  1.00  0.00    -0.060 A  
ENDBRANCH   9  10
BRANCH   9  18
HETATM   18  C   UNL     1      -9.390   9.296  64.727  1.00  0.00    -0.011 C  
BRANCH  18  19
HETATM   19  N   UNL     1      -8.608  10.039  63.763  1.00  0.00    -0.180 NA 
HETATM   20  N   UNL     1      -8.012  11.698  62.422  1.00  0.00     0.055 NA 
HETATM   21  C   UNL     1      -7.355   9.731  63.317  1.00  0.00    -0.123 A  
HETATM   22  C   UNL     1      -7.008  10.769  62.485  1.00  0.00    -0.020 A  
HETATM   23  C   UNL     1      -8.958  11.239  63.206  1.00  0.00    -0.081 A  
ENDBRANCH  18  19
ENDBRANCH   9  18
ENDBRANCH   8   9
ENDBRANCH   7   8
ENDBRANCH   3   7
TORSDOF 6
ENDMDL
MODEL      306
REMARK 921   NORMALIZED FREE ENERGY PREDICTED BY IDOCK:    6.73 KCAL/MOL
REMARK 922        TOTAL FREE ENERGY PREDICTED BY IDOCK:    8.05 KCAL/MOL
REMARK 923 INTER-LIGAND FREE ENERGY PREDICTED BY IDOCK:   -2.20 KCAL/MOL
REMARK 924 INTRA-LIGAND FREE ENERGY PREDICTED BY IDOCK:   10.26 KCAL/MOL
REMARK 927      BINDING AFFINITY PREDICTED BY RF-SCORE:    0.00 PKD
ROOT
HETATM    1 CL   UNL     1     -10.294   5.994  70.420  1.00  0.00    -0.264 Cl 
HETATM    2  C   UNL     1     -10.285   7.702  70.639  1.00  0.00    -0.199 A  
HETATM    3  C   UNL     1      -9.188   8.506  70.861  1.00  0.00    -0.213 A  
HETATM    4  C   UNL     1      -9.607   9.882  70.943  1.00  0.00     0.326 A  
HETATM    5  S   UNL     1     -11.757   8.537  70.569  1.00  0.00     0.019 SA 
HETATM    6  C   UNL     1     -10.971  10.037  70.809  1.00  0.00    -0.305 A  
ENDROOT
BRANCH   3   7
HETATM    7  C   UNL     1      -7.766   8.033  70.948  1.00  0.00    -0.084 C  
BRANCH   7   8
HETATM    8  O   UNL     1      -7.387   7.336  69.761  1.00  0.00    -0.080 OA 
BRANCH   8   9
HETATM    9  C   UNL     1      -7.257   8.137  68.569  1.00  0.00    -0.088 C  
BRANCH   9  10
HETATM   10  C   UNL     1      -8.509   9.018  68.429  1.00  0.00    -0.129 A  
HETATM   11  C   UNL     1     -10.901   9.202  67.911  1.00  0.00    -0.147 A  
HETATM   12  C   UNL     1      -8.493  10.414  68.617  1.00  0.00    -0.129 A  
HETATM   13  C   UNL     1      -9.750   8.431  68.097  1.00  0.00    -0.175 A  
HETATM   14 CL   UNL     1      -7.091  11.262  69.171  1.00  0.00    -0.116 Cl 
HETATM   15 CL   UNL     1     -12.240  11.537  67.777  1.00  0.00     0.148 Cl 
HETATM   16  C   UNL     1      -9.637  11.193  68.394  1.00  0.00    -0.192 A  
HETATM   17  C   UNL     1     -10.834  10.582  68.039  1.00  0.00    -0.263 A  
ENDBRANCH   9  10
BRANCH   9  18
HETATM   18  C   UNL     1      -6.975   7.247  67.333  1.00  0.00    -0.079 C  
BRANCH  18  19
HETATM   19  N   UNL     1      -6.311   7.927  66.241  1.00  0.00    -0.045 NA 
HETATM   20  N   UNL     1      -5.402   8.236  64.245  1.00  0.00    -0.040 NA 
HETATM   21  C   UNL     1      -6.060   9.266  66.145  1.00  0.00    -0.059 A  
HETATM   22  C   UNL     1      -5.493   9.433  64.903  1.00  0.00    -0.053 A  
HETATM   23  C   UNL     1      -5.909   7.348  65.068  1.00  0.00    -0.037 A  
ENDBRANCH  18  19
ENDBRANCH   9  18
ENDBRANCH   8   9
ENDBRANCH   7   8
ENDBRANCH   3   7
TORSDOF 6
ENDMDL
MODEL      307
REMARK 921   NORMALIZED FREE ENERGY PREDICTED BY IDOCK:   33.44 KCAL/MOL
REMARK 922        TOTAL FREE ENERGY PREDICTED BY IDOCK:   44.12 KCAL/MOL
REMARK 923 INTER-LIGAND FREE ENERGY PREDICTED BY IDOCK:    1.09 KCAL/MOL
REMARK 924 INTRA-LIGAND FREE ENERGY PREDICTED BY IDOCK:   43.03 KCAL/MOL
REMARK 927      BINDING AFFINITY PREDICTED BY RF-SCORE:    0.00 PKD
ROOT
HETATM    1 CL   UNL     1      -9.399   3.661  70.429  1.00  0.00    -0.222 Cl 
HETATM    2  C   UNL     1      -9.412   5.379  70.555  1.00  0.00    -0.165 A  
HETATM    3  C   UNL     1      -8.327   6.205  70.753  1.00  0.00    -0.126 A  
HETATM    4  C   UNL     1      -8.762   7.579  70.752  1.00  0.00    -0.140 A  
HETATM    5  S   UNL     1     -10.890   6.191  70.412  1.00  0.00    -0.334 SA 
HETATM    6  C   UNL     1     -10.125   7.711  70.584  1.00  0.00    -0.187 A  
ENDROOT
BRANCH   3   7
HETATM    7  C   UNL     1      -6.903   5.754  70.892  1.00  0.00    -0.058 C  
BRANCH   7   8
HETATM    8  O   UNL     1      -6.431   5.171  69.679  1.00  0.00    -0.035 OA 
BRANCH   8   9
HETATM    9  C   UNL     1      -6.783   5.862  68.464  1.00  0.00    -0.057 C  
BRANCH   9  10
HETATM   10  C   UNL     1      -8.193   6.452  68.623  1.00  0.00    -0.121 A  
HETATM   11  C   UNL     1     -10.619   6.098  68.724  1.00  0.00    -0.330 A  
HETATM   12  C   UNL     1      -8.439   7.832  68.763  1.00  0.00    -0.129 A  
HETATM   13  C   UNL     1      -9.317   5.598  68.633  1.00  0.00    -0.142 A  
HETATM   14 CL   UNL     1      -7.165   8.992  68.921  1.00  0.00    -0.072 Cl 
HETATM   15 CL   UNL     1     -12.430   8.089  68.873  1.00  0.00     3.613 Cl 
HETATM   16  C   UNL     1      -9.744   8.338  68.818  1.00  0.00    -0.160 A  
HETATM   17  C   UNL     1     -10.827   7.468  68.795  1.00  0.00    -0.015 A  
ENDBRANCH   9  10
BRANCH   9  18
HETATM   18  C   UNL     1      -6.627   4.933  67.233  1.00  0.00    -0.050 C  
BRANCH  18  19
HETATM   19  N   UNL     1      -6.446   5.626  65.975  1.00  0.00    -0.039 NA 
HETATM   20  N   UNL     1      -6.039   5.923  63.818  1.00  0.00    -0.025 NA 
HETATM   21  C   UNL     1      -6.741   6.933  65.713  1.00  0.00    -0.052 A  
HETATM   22  C   UNL     1      -6.476   7.095  64.374  1.00  0.00    -0.040 A  
HETATM   23  C   UNL     1      -6.039   5.053  64.801  1.00  0.00    -0.026 A  
ENDBRANCH  18  19
ENDBRANCH   9  18
ENDBRANCH   8   9
ENDBRANCH   7   8
ENDBRANCH   3   7
TORSDOF 6
ENDMDL
