MODEL        1
REMARK 921   NORMALIZED FREE ENERGY PREDICTED BY IDOCK:   -4.68 KCAL/MOL
REMARK 922        TOTAL FREE ENERGY PREDICTED BY IDOCK:   -5.31 KCAL/MOL
REMARK 923 INTER-LIGAND FREE ENERGY PREDICTED BY IDOCK:   -5.22 KCAL/MOL
REMARK 924 INTRA-LIGAND FREE ENERGY PREDICTED BY IDOCK:   -0.09 KCAL/MOL
REMARK 927      BINDING AFFINITY PREDICTED BY RF-SCORE:    0.00 PKD
ROOT
HETATM    1  C   UNL     1      -8.706  16.434  66.252  1.00  0.00    -0.369 C  
HETATM    2  C   UNL     1     -10.186  16.791  66.272  1.00  0.00    -0.332 C  
HETATM    3  S   UNL     1     -10.397  18.607  66.222  1.00  0.00    -0.428 SA 
HETATM    4  H   UNL     1     -11.748  18.933  66.240  1.00  0.00     0.000 H  
ENDROOT
BRANCH   2   5
HETATM    5  C   UNL     1     -10.947  16.147  65.109  1.00  0.00    -0.316 C  
HETATM    6  O   UNL     1     -11.307  16.758  64.109  1.00  0.00    -1.194 OA 
HETATM    7  N   UNL     1     -11.098  14.773  65.217  1.00  0.00    -0.350 N  
HETATM    8  H   UNL     1     -10.624  14.266  65.966  1.00  0.00     0.000 HD 
BRANCH   7   9
HETATM    9  C   UNL     1     -11.935  14.044  64.259  1.00  0.00    -0.435 C  
HETATM   10  C   UNL     1     -12.634  12.831  64.871  1.00  0.00    -0.470 C  
HETATM   11  O   UNL     1     -13.386  12.093  64.250  1.00  0.00    -0.761 OA 
HETATM   12  O   UNL     1     -12.389  12.674  66.193  1.00  0.00    -0.570 OA 
ENDBRANCH   7   9
ENDBRANCH   2   5
TORSDOF 2
ENDMDL
MODEL        2
REMARK 921   NORMALIZED FREE ENERGY PREDICTED BY IDOCK:   -4.21 KCAL/MOL
REMARK 922        TOTAL FREE ENERGY PREDICTED BY IDOCK:   -4.79 KCAL/MOL
REMARK 923 INTER-LIGAND FREE ENERGY PREDICTED BY IDOCK:   -4.70 KCAL/MOL
REMARK 924 INTRA-LIGAND FREE ENERGY PREDICTED BY IDOCK:   -0.10 KCAL/MOL
REMARK 927      BINDING AFFINITY PREDICTED BY RF-SCORE:    0.00 PKD
ROOT
HETATM    1  C   UNL     1     -12.169  12.491  63.401  1.00  0.00    -0.613 C  
HETATM    2  C   UNL     1     -11.138  11.893  64.348  1.00  0.00    -0.336 C  
HETATM    3  S   UNL     1      -9.888  10.949  63.404  1.00  0.00    -0.378 SA 
HETATM    4  H   UNL     1      -8.947  10.403  64.269  1.00  0.00     0.000 H  
ENDROOT
BRANCH   2   5
HETATM    5  C   UNL     1     -10.447  12.967  65.195  1.00  0.00    -0.309 C  
HETATM    6  O   UNL     1      -9.667  12.718  66.108  1.00  0.00    -0.258 OA 
HETATM    7  N   UNL     1     -10.679  14.266  64.769  1.00  0.00    -0.489 N  
HETATM    8  H   UNL     1     -11.177  14.433  63.894  1.00  0.00     0.000 HD 
BRANCH   7   9
HETATM    9  C   UNL     1     -10.210  15.401  65.572  1.00  0.00    -0.382 C  
HETATM   10  C   UNL     1     -10.686  16.752  65.040  1.00  0.00    -0.100 C  
HETATM   11  O   UNL     1     -10.419  17.823  65.565  1.00  0.00    -0.646 OA 
HETATM   12  O   UNL     1     -11.488  16.654  63.953  1.00  0.00    -1.186 OA 
ENDBRANCH   7   9
ENDBRANCH   2   5
TORSDOF 2
ENDMDL
MODEL        3
REMARK 921   NORMALIZED FREE ENERGY PREDICTED BY IDOCK:   -4.21 KCAL/MOL
REMARK 922        TOTAL FREE ENERGY PREDICTED BY IDOCK:   -4.79 KCAL/MOL
REMARK 923 INTER-LIGAND FREE ENERGY PREDICTED BY IDOCK:   -4.69 KCAL/MOL
REMARK 924 INTRA-LIGAND FREE ENERGY PREDICTED BY IDOCK:   -0.10 KCAL/MOL
REMARK 927      BINDING AFFINITY PREDICTED BY RF-SCORE:    0.00 PKD
ROOT
HETATM    1  C   UNL     1      -9.855  13.993  66.216  1.00  0.00    -0.318 C  
HETATM    2  C   UNL     1     -10.705  14.528  65.072  1.00  0.00    -0.427 C  
HETATM    3  S   UNL     1     -12.384  13.807  65.142  1.00  0.00    -0.455 SA 
HETATM    4  H   UNL     1     -13.159  14.295  64.098  1.00  0.00     0.000 H  
ENDROOT
BRANCH   2   5
HETATM    5  C   UNL     1     -10.796  16.058  65.092  1.00  0.00    -0.395 C  
HETATM    6  O   UNL     1     -11.308  16.722  64.198  1.00  0.00    -1.194 OA 
HETATM    7  N   UNL     1     -10.355  16.640  66.271  1.00  0.00    -0.321 N  
HETATM    8  H   UNL     1     -10.112  16.052  67.069  1.00  0.00     0.000 HD 
BRANCH   7   9
HETATM    9  C   UNL     1     -10.239  18.098  66.376  1.00  0.00    -0.399 C  
HETATM   10  C   UNL     1     -10.360  18.610  67.811  1.00  0.00    -0.410 C  
HETATM   11  O   UNL     1     -10.281  19.790  68.122  1.00  0.00    -0.421 OA 
HETATM   12  O   UNL     1     -10.508  17.624  68.727  1.00  0.00    -0.351 OA 
ENDBRANCH   7   9
ENDBRANCH   2   5
TORSDOF 2
ENDMDL
MODEL        4
REMARK 921   NORMALIZED FREE ENERGY PREDICTED BY IDOCK:   -4.13 KCAL/MOL
REMARK 922        TOTAL FREE ENERGY PREDICTED BY IDOCK:   -4.71 KCAL/MOL
REMARK 923 INTER-LIGAND FREE ENERGY PREDICTED BY IDOCK:   -4.60 KCAL/MOL
REMARK 924 INTRA-LIGAND FREE ENERGY PREDICTED BY IDOCK:   -0.10 KCAL/MOL
REMARK 927      BINDING AFFINITY PREDICTED BY RF-SCORE:    0.00 PKD
ROOT
HETATM    1  C   UNL     1     -10.457  18.264  66.929  1.00  0.00    -0.396 C  
HETATM    2  C   UNL     1     -10.328  16.748  66.884  1.00  0.00    -0.294 C  
HETATM    3  S   UNL     1     -11.150  16.002  68.337  1.00  0.00    -0.357 SA 
HETATM    4  H   UNL     1     -11.032  14.618  68.296  1.00  0.00     0.000 H  
ENDROOT
BRANCH   2   5
HETATM    5  C   UNL     1     -10.915  16.160  65.596  1.00  0.00    -0.140 C  
HETATM    6  O   UNL     1     -10.996  16.777  64.541  1.00  0.00    -0.921 OA 
HETATM    7  N   UNL     1     -11.245  14.816  65.682  1.00  0.00    -0.338 N  
HETATM    8  H   UNL     1     -10.991  14.281  66.513  1.00  0.00     0.000 HD 
BRANCH   7   9
HETATM    9  C   UNL     1     -11.958  14.159  64.581  1.00  0.00    -0.445 C  
HETATM   10  C   UNL     1     -12.592  12.828  64.983  1.00  0.00    -0.468 C  
HETATM   11  O   UNL     1     -13.240  12.125  64.221  1.00  0.00    -0.768 OA 
HETATM   12  O   UNL     1     -12.419  12.518  66.289  1.00  0.00    -0.475 OA 
ENDBRANCH   7   9
ENDBRANCH   2   5
TORSDOF 2
ENDMDL
MODEL        5
REMARK 921   NORMALIZED FREE ENERGY PREDICTED BY IDOCK:   -4.08 KCAL/MOL
REMARK 922        TOTAL FREE ENERGY PREDICTED BY IDOCK:   -4.65 KCAL/MOL
REMARK 923 INTER-LIGAND FREE ENERGY PREDICTED BY IDOCK:   -4.53 KCAL/MOL
REMARK 924 INTRA-LIGAND FREE ENERGY PREDICTED BY IDOCK:   -0.12 KCAL/MOL
REMARK 927      BINDING AFFINITY PREDICTED BY RF-SCORE:    0.00 PKD
ROOT
HETATM    1  C   UNL     1     -12.477  11.971  63.694  1.00  0.00    -0.637 C  
HETATM    2  C   UNL     1     -12.375  12.725  65.013  1.00  0.00    -0.499 C  
HETATM    3  S   UNL     1     -11.104  11.958  66.080  1.00  0.00    -0.322 SA 
HETATM    4  H   UNL     1     -11.011  12.647  67.284  1.00  0.00     0.000 H  
ENDROOT
BRANCH   2   5
HETATM    5  C   UNL     1     -12.051  14.208  64.802  1.00  0.00    -0.441 C  
HETATM    6  O   UNL     1     -12.674  14.941  64.043  1.00  0.00    -0.792 OA 
HETATM    7  N   UNL     1     -11.058  14.699  65.637  1.00  0.00    -0.328 N  
HETATM    8  H   UNL     1     -10.690  14.114  66.388  1.00  0.00     0.000 HD 
BRANCH   7   9
HETATM    9  C   UNL     1     -10.536  16.056  65.445  1.00  0.00    -0.408 C  
HETATM   10  C   UNL     1      -9.121  16.240  65.991  1.00  0.00    -0.297 C  
HETATM   11  O   UNL     1      -8.496  17.289  65.924  1.00  0.00    -0.533 OA 
HETATM   12  O   UNL     1      -8.590  15.109  66.512  1.00  0.00    -0.270 OA 
ENDBRANCH   7   9
ENDBRANCH   2   5
TORSDOF 2
ENDMDL
MODEL        6
REMARK 921   NORMALIZED FREE ENERGY PREDICTED BY IDOCK:   -4.04 KCAL/MOL
REMARK 922        TOTAL FREE ENERGY PREDICTED BY IDOCK:   -4.60 KCAL/MOL
REMARK 923 INTER-LIGAND FREE ENERGY PREDICTED BY IDOCK:   -4.50 KCAL/MOL
REMARK 924 INTRA-LIGAND FREE ENERGY PREDICTED BY IDOCK:   -0.10 KCAL/MOL
REMARK 927      BINDING AFFINITY PREDICTED BY RF-SCORE:    0.00 PKD
ROOT
HETATM    1  C   UNL     1     -10.151  13.861  66.256  1.00  0.00    -0.306 C  
HETATM    2  C   UNL     1     -10.556  14.457  64.914  1.00  0.00    -0.434 C  
HETATM    3  S   UNL     1     -12.034  13.598  64.265  1.00  0.00    -0.437 SA 
HETATM    4  H   UNL     1     -12.404  14.142  63.041  1.00  0.00     0.000 H  
ENDROOT
BRANCH   2   5
HETATM    5  C   UNL     1     -10.832  15.961  65.014  1.00  0.00    -0.426 C  
HETATM    6  O   UNL     1     -11.429  16.603  64.158  1.00  0.00    -1.131 OA 
HETATM    7  N   UNL     1     -10.454  16.531  66.221  1.00  0.00    -0.303 N  
HETATM    8  H   UNL     1     -10.133  15.936  66.987  1.00  0.00     0.000 HD 
BRANCH   7   9
HETATM    9  C   UNL     1     -10.515  17.985  66.402  1.00  0.00    -0.339 C  
HETATM   10  C   UNL     1      -9.164  18.673  66.207  1.00  0.00    -0.234 C  
HETATM   11  O   UNL     1      -8.995  19.880  66.301  1.00  0.00    -0.364 OA 
HETATM   12  O   UNL     1      -8.168  17.823  65.862  1.00  0.00    -0.525 OA 
ENDBRANCH   7   9
ENDBRANCH   2   5
TORSDOF 2
ENDMDL
MODEL        7
REMARK 921   NORMALIZED FREE ENERGY PREDICTED BY IDOCK:   -3.99 KCAL/MOL
REMARK 922        TOTAL FREE ENERGY PREDICTED BY IDOCK:   -4.54 KCAL/MOL
REMARK 923 INTER-LIGAND FREE ENERGY PREDICTED BY IDOCK:   -4.42 KCAL/MOL
REMARK 924 INTRA-LIGAND FREE ENERGY PREDICTED BY IDOCK:   -0.12 KCAL/MOL
REMARK 927      BINDING AFFINITY PREDICTED BY RF-SCORE:    0.00 PKD
ROOT
HETATM    1  C   UNL     1      -8.144  17.167  68.164  1.00  0.00    -0.219 C  
HETATM    2  C   UNL     1      -9.554  17.717  67.991  1.00  0.00    -0.289 C  
HETATM    3  S   UNL     1      -9.553  19.082  66.775  1.00  0.00    -0.351 SA 
HETATM    4  H   UNL     1     -10.840  19.583  66.617  1.00  0.00     0.000 H  
ENDROOT
BRANCH   2   5
HETATM    5  C   UNL     1     -10.543  16.631  67.554  1.00  0.00    -0.311 C  
HETATM    6  O   UNL     1     -11.464  16.225  68.254  1.00  0.00    -0.333 OA 
HETATM    7  N   UNL     1     -10.391  16.218  66.238  1.00  0.00    -0.316 N  
HETATM    8  H   UNL     1      -9.740  16.708  65.623  1.00  0.00     0.000 HD 
BRANCH   7   9
HETATM    9  C   UNL     1     -11.163  15.080  65.728  1.00  0.00    -0.318 C  
HETATM   10  C   UNL     1     -11.875  15.378  64.409  1.00  0.00    -0.256 C  
HETATM   11  O   UNL     1     -12.562  14.566  63.807  1.00  0.00    -0.825 OA 
HETATM   12  O   UNL     1     -11.630  16.621  63.930  1.00  0.00    -1.204 OA 
ENDBRANCH   7   9
ENDBRANCH   2   5
TORSDOF 2
ENDMDL
MODEL        8
REMARK 921   NORMALIZED FREE ENERGY PREDICTED BY IDOCK:   -3.97 KCAL/MOL
REMARK 922        TOTAL FREE ENERGY PREDICTED BY IDOCK:   -4.52 KCAL/MOL
REMARK 923 INTER-LIGAND FREE ENERGY PREDICTED BY IDOCK:   -4.41 KCAL/MOL
REMARK 924 INTRA-LIGAND FREE ENERGY PREDICTED BY IDOCK:   -0.11 KCAL/MOL
REMARK 927      BINDING AFFINITY PREDICTED BY RF-SCORE:    0.00 PKD
ROOT
HETATM    1  C   UNL     1     -10.285  17.381  66.595  1.00  0.00    -0.324 C  
HETATM    2  C   UNL     1      -9.535  16.200  65.992  1.00  0.00    -0.339 C  
HETATM    3  S   UNL     1      -8.042  15.831  66.981  1.00  0.00    -0.257 SA 
HETATM    4  H   UNL     1      -7.358  14.754  66.431  1.00  0.00     0.000 H  
ENDROOT
BRANCH   2   5
HETATM    5  C   UNL     1     -10.416  14.951  65.895  1.00  0.00    -0.315 C  
HETATM    6  O   UNL     1     -11.198  14.598  66.771  1.00  0.00    -0.328 OA 
HETATM    7  N   UNL     1     -10.351  14.301  64.672  1.00  0.00    -0.594 N  
HETATM    8  H   UNL     1      -9.837  14.723  63.898  1.00  0.00     0.000 HD 
BRANCH   7   9
HETATM    9  C   UNL     1     -11.019  13.008  64.486  1.00  0.00    -0.358 C  
HETATM   10  C   UNL     1     -12.354  13.119  63.751  1.00  0.00    -0.383 C  
HETATM   11  O   UNL     1     -13.066  12.163  63.483  1.00  0.00    -0.785 OA 
HETATM   12  O   UNL     1     -12.656  14.382  63.367  1.00  0.00    -0.729 OA 
ENDBRANCH   7   9
ENDBRANCH   2   5
TORSDOF 2
ENDMDL
MODEL        9
REMARK 921   NORMALIZED FREE ENERGY PREDICTED BY IDOCK:   -3.97 KCAL/MOL
REMARK 922        TOTAL FREE ENERGY PREDICTED BY IDOCK:   -4.52 KCAL/MOL
REMARK 923 INTER-LIGAND FREE ENERGY PREDICTED BY IDOCK:   -4.41 KCAL/MOL
REMARK 924 INTRA-LIGAND FREE ENERGY PREDICTED BY IDOCK:   -0.11 KCAL/MOL
REMARK 927      BINDING AFFINITY PREDICTED BY RF-SCORE:    0.00 PKD
ROOT
HETATM    1  C   UNL     1     -13.988  13.952  72.100  1.00  0.00    -0.639 C  
HETATM    2  C   UNL     1     -13.420  15.357  72.253  1.00  0.00    -0.472 C  
HETATM    3  S   UNL     1     -12.580  15.523  73.869  1.00  0.00    -0.634 SA 
HETATM    4  H   UNL     1     -12.061  16.805  74.009  1.00  0.00     0.000 H  
ENDROOT
BRANCH   2   5
HETATM    5  C   UNL     1     -12.447  15.709  71.123  1.00  0.00    -0.448 C  
HETATM    6  O   UNL     1     -11.441  16.392  71.278  1.00  0.00    -0.396 OA 
HETATM    7  N   UNL     1     -12.728  15.089  69.915  1.00  0.00    -0.602 N  
HETATM    8  H   UNL     1     -13.460  14.379  69.865  1.00  0.00     0.000 HD 
BRANCH   7   9
HETATM    9  C   UNL     1     -11.977  15.449  68.708  1.00  0.00    -0.253 C  
HETATM   10  C   UNL     1     -11.545  14.237  67.883  1.00  0.00    -0.336 C  
HETATM   11  O   UNL     1     -10.919  14.315  66.835  1.00  0.00    -0.294 OA 
HETATM   12  O   UNL     1     -11.970  13.057  68.391  1.00  0.00    -0.336 OA 
ENDBRANCH   7   9
ENDBRANCH   2   5
TORSDOF 2
ENDMDL
MODEL       10
REMARK 921   NORMALIZED FREE ENERGY PREDICTED BY IDOCK:   -3.93 KCAL/MOL
REMARK 922        TOTAL FREE ENERGY PREDICTED BY IDOCK:   -4.47 KCAL/MOL
REMARK 923 INTER-LIGAND FREE ENERGY PREDICTED BY IDOCK:   -4.32 KCAL/MOL
REMARK 924 INTRA-LIGAND FREE ENERGY PREDICTED BY IDOCK:   -0.16 KCAL/MOL
REMARK 927      BINDING AFFINITY PREDICTED BY RF-SCORE:    0.00 PKD
ROOT
HETATM    1  C   UNL     1     -12.025  13.860  67.229  1.00  0.00    -0.446 C  
HETATM    2  C   UNL     1     -11.431  13.452  68.570  1.00  0.00    -0.310 C  
HETATM    3  S   UNL     1     -12.024  14.572  69.888  1.00  0.00    -0.346 SA 
HETATM    4  H   UNL     1     -11.482  14.200  71.113  1.00  0.00     0.000 H  
ENDROOT
BRANCH   2   5
HETATM    5  C   UNL     1     -11.770  12.002  68.930  1.00  0.00    -0.326 C  
HETATM    6  O   UNL     1     -12.219  11.188  68.131  1.00  0.00    -0.612 OA 
HETATM    7  N   UNL     1     -11.413  11.636  70.219  1.00  0.00    -0.501 N  
HETATM    8  H   UNL     1     -10.869  12.277  70.799  1.00  0.00     0.000 HD 
BRANCH   7   9
HETATM    9  C   UNL     1     -11.814  10.330  70.753  1.00  0.00    -0.365 C  
HETATM   10  C   UNL     1     -12.913  10.423  71.811  1.00  0.00    -0.475 C  
HETATM   11  O   UNL     1     -13.399   9.454  72.375  1.00  0.00    -0.452 OA 
HETATM   12  O   UNL     1     -13.347  11.687  72.031  1.00  0.00    -0.481 OA 
ENDBRANCH   7   9
ENDBRANCH   2   5
TORSDOF 2
ENDMDL
MODEL       11
REMARK 921   NORMALIZED FREE ENERGY PREDICTED BY IDOCK:   -3.86 KCAL/MOL
REMARK 922        TOTAL FREE ENERGY PREDICTED BY IDOCK:   -4.40 KCAL/MOL
REMARK 923 INTER-LIGAND FREE ENERGY PREDICTED BY IDOCK:   -4.32 KCAL/MOL
REMARK 924 INTRA-LIGAND FREE ENERGY PREDICTED BY IDOCK:   -0.09 KCAL/MOL
REMARK 927      BINDING AFFINITY PREDICTED BY RF-SCORE:    0.00 PKD
ROOT
HETATM    1  C   UNL     1     -11.157  15.436  70.046  1.00  0.00    -0.317 C  
HETATM    2  C   UNL     1     -11.644  15.638  68.618  1.00  0.00    -0.382 C  
HETATM    3  S   UNL     1     -10.455  16.670  67.688  1.00  0.00    -0.319 SA 
HETATM    4  H   UNL     1     -10.899  16.855  66.384  1.00  0.00     0.000 H  
ENDROOT
BRANCH   2   5
HETATM    5  C   UNL     1     -11.857  14.307  67.890  1.00  0.00    -0.358 C  
HETATM    6  O   UNL     1     -11.749  13.211  68.428  1.00  0.00    -0.310 OA 
HETATM    7  N   UNL     1     -12.305  14.437  66.584  1.00  0.00    -0.518 N  
HETATM    8  H   UNL     1     -12.567  15.356  66.224  1.00  0.00     0.000 HD 
BRANCH   7   9
HETATM    9  C   UNL     1     -12.405  13.258  65.717  1.00  0.00    -0.447 C  
HETATM   10  C   UNL     1     -12.579  13.609  64.240  1.00  0.00    -0.136 C  
HETATM   11  O   UNL     1     -12.672  12.777  63.349  1.00  0.00    -0.698 OA 
HETATM   12  O   UNL     1     -12.566  14.940  63.995  1.00  0.00    -0.832 OA 
ENDBRANCH   7   9
ENDBRANCH   2   5
TORSDOF 2
ENDMDL
MODEL       12
REMARK 921   NORMALIZED FREE ENERGY PREDICTED BY IDOCK:   -3.85 KCAL/MOL
REMARK 922        TOTAL FREE ENERGY PREDICTED BY IDOCK:   -4.39 KCAL/MOL
REMARK 923 INTER-LIGAND FREE ENERGY PREDICTED BY IDOCK:   -4.25 KCAL/MOL
REMARK 924 INTRA-LIGAND FREE ENERGY PREDICTED BY IDOCK:   -0.14 KCAL/MOL
REMARK 927      BINDING AFFINITY PREDICTED BY RF-SCORE:    0.00 PKD
ROOT
HETATM    1  C   UNL     1     -10.670  12.948  68.079  1.00  0.00    -0.244 C  
HETATM    2  C   UNL     1     -11.884  13.002  68.996  1.00  0.00    -0.316 C  
HETATM    3  S   UNL     1     -11.886  11.561  70.123  1.00  0.00    -0.339 SA 
HETATM    4  H   UNL     1     -12.994  11.611  70.960  1.00  0.00     0.000 H  
ENDROOT
BRANCH   2   5
HETATM    5  C   UNL     1     -11.929  14.299  69.811  1.00  0.00    -0.339 C  
HETATM    6  O   UNL     1     -12.076  15.410  69.316  1.00  0.00    -0.315 OA 
HETATM    7  N   UNL     1     -11.911  14.110  71.185  1.00  0.00    -0.492 N  
HETATM    8  H   UNL     1     -11.979  13.167  71.570  1.00  0.00     0.000 HD 
BRANCH   7   9
HETATM    9  C   UNL     1     -11.794  15.260  72.087  1.00  0.00    -0.439 C  
HETATM   10  C   UNL     1     -12.979  15.400  73.042  1.00  0.00    -0.488 C  
HETATM   11  O   UNL     1     -13.077  16.283  73.882  1.00  0.00    -0.693 OA 
HETATM   12  O   UNL     1     -13.899  14.414  72.912  1.00  0.00    -0.589 OA 
ENDBRANCH   7   9
ENDBRANCH   2   5
TORSDOF 2
ENDMDL
MODEL       13
REMARK 921   NORMALIZED FREE ENERGY PREDICTED BY IDOCK:   -3.85 KCAL/MOL
REMARK 922        TOTAL FREE ENERGY PREDICTED BY IDOCK:   -4.38 KCAL/MOL
REMARK 923 INTER-LIGAND FREE ENERGY PREDICTED BY IDOCK:   -4.25 KCAL/MOL
REMARK 924 INTRA-LIGAND FREE ENERGY PREDICTED BY IDOCK:   -0.14 KCAL/MOL
REMARK 927      BINDING AFFINITY PREDICTED BY RF-SCORE:    0.00 PKD
ROOT
HETATM    1  C   UNL     1      -9.660  10.064  64.722  1.00  0.00    -0.374 C  
HETATM    2  C   UNL     1     -10.353  11.218  65.433  1.00  0.00    -0.272 C  
HETATM    3  S   UNL     1      -9.218  11.983  66.646  1.00  0.00    -0.212 SA 
HETATM    4  H   UNL     1      -9.850  13.037  67.295  1.00  0.00     0.000 H  
ENDROOT
BRANCH   2   5
HETATM    5  C   UNL     1     -10.854  12.281  64.449  1.00  0.00    -0.329 C  
HETATM    6  O   UNL     1     -10.647  12.243  63.242  1.00  0.00    -0.421 OA 
HETATM    7  N   UNL     1     -11.677  13.242  65.018  1.00  0.00    -0.321 N  
HETATM    8  H   UNL     1     -11.985  13.140  65.985  1.00  0.00     0.000 HD 
BRANCH   7   9
HETATM    9  C   UNL     1     -12.105  14.405  64.233  1.00  0.00    -0.436 C  
HETATM   10  C   UNL     1     -11.340  15.681  64.581  1.00  0.00    -0.349 C  
HETATM   11  O   UNL     1     -11.532  16.760  64.038  1.00  0.00    -1.198 OA 
HETATM   12  O   UNL     1     -10.379  15.498  65.517  1.00  0.00    -0.336 OA 
ENDBRANCH   7   9
ENDBRANCH   2   5
TORSDOF 2
ENDMDL
MODEL       14
REMARK 921   NORMALIZED FREE ENERGY PREDICTED BY IDOCK:   -3.79 KCAL/MOL
REMARK 922        TOTAL FREE ENERGY PREDICTED BY IDOCK:   -4.32 KCAL/MOL
REMARK 923 INTER-LIGAND FREE ENERGY PREDICTED BY IDOCK:   -4.19 KCAL/MOL
REMARK 924 INTRA-LIGAND FREE ENERGY PREDICTED BY IDOCK:   -0.13 KCAL/MOL
REMARK 927      BINDING AFFINITY PREDICTED BY RF-SCORE:    0.00 PKD
ROOT
HETATM    1  C   UNL     1      -9.211  10.009  65.213  1.00  0.00    -0.268 C  
HETATM    2  C   UNL     1     -10.444  10.882  65.404  1.00  0.00    -0.223 C  
HETATM    3  S   UNL     1     -10.746  11.164  67.186  1.00  0.00    -0.273 SA 
HETATM    4  H   UNL     1     -11.871  11.961  67.361  1.00  0.00     0.000 H  
ENDROOT
BRANCH   2   5
HETATM    5  C   UNL     1     -10.313  12.227  64.681  1.00  0.00    -0.301 C  
HETATM    6  O   UNL     1     -10.065  12.336  63.486  1.00  0.00    -0.416 OA 
HETATM    7  N   UNL     1     -10.619  13.329  65.466  1.00  0.00    -0.281 N  
HETATM    8  H   UNL     1     -11.005  13.196  66.401  1.00  0.00     0.000 HD 
BRANCH   7   9
HETATM    9  C   UNL     1     -10.390  14.684  64.955  1.00  0.00    -0.402 C  
HETATM   10  C   UNL     1     -11.657  15.349  64.419  1.00  0.00    -0.264 C  
HETATM   11  O   UNL     1     -11.690  16.480  63.958  1.00  0.00    -1.111 OA 
HETATM   12  O   UNL     1     -12.767  14.584  64.551  1.00  0.00    -0.653 OA 
ENDBRANCH   7   9
ENDBRANCH   2   5
TORSDOF 2
ENDMDL
MODEL       15
REMARK 921   NORMALIZED FREE ENERGY PREDICTED BY IDOCK:   -3.79 KCAL/MOL
REMARK 922        TOTAL FREE ENERGY PREDICTED BY IDOCK:   -4.32 KCAL/MOL
REMARK 923 INTER-LIGAND FREE ENERGY PREDICTED BY IDOCK:   -4.22 KCAL/MOL
REMARK 924 INTRA-LIGAND FREE ENERGY PREDICTED BY IDOCK:   -0.10 KCAL/MOL
REMARK 927      BINDING AFFINITY PREDICTED BY RF-SCORE:    0.00 PKD
ROOT
HETATM    1  C   UNL     1     -10.670   9.381  71.260  1.00  0.00    -0.421 C  
HETATM    2  C   UNL     1     -12.070   9.629  70.715  1.00  0.00    -0.248 C  
HETATM    3  S   UNL     1     -13.314   9.358  72.028  1.00  0.00    -0.476 SA 
HETATM    4  H   UNL     1     -14.592   9.585  71.530  1.00  0.00     0.000 H  
ENDROOT
BRANCH   2   5
HETATM    5  C   UNL     1     -12.220  11.042  70.141  1.00  0.00    -0.344 C  
HETATM    6  O   UNL     1     -12.234  11.293  68.941  1.00  0.00    -0.494 OA 
HETATM    7  N   UNL     1     -12.463  12.021  71.093  1.00  0.00    -0.316 N  
HETATM    8  H   UNL     1     -12.634  11.756  72.064  1.00  0.00     0.000 HD 
BRANCH   7   9
HETATM    9  C   UNL     1     -12.474  13.437  70.709  1.00  0.00    -0.341 C  
HETATM   10  C   UNL     1     -13.364  14.297  71.606  1.00  0.00    -0.365 C  
HETATM   11  O   UNL     1     -13.508  15.503  71.468  1.00  0.00    -0.479 OA 
HETATM   12  O   UNL     1     -13.945  13.606  72.615  1.00  0.00    -0.733 OA 
ENDBRANCH   7   9
ENDBRANCH   2   5
TORSDOF 2
ENDMDL
MODEL       16
REMARK 921   NORMALIZED FREE ENERGY PREDICTED BY IDOCK:   -3.76 KCAL/MOL
REMARK 922        TOTAL FREE ENERGY PREDICTED BY IDOCK:   -4.29 KCAL/MOL
REMARK 923 INTER-LIGAND FREE ENERGY PREDICTED BY IDOCK:   -4.18 KCAL/MOL
REMARK 924 INTRA-LIGAND FREE ENERGY PREDICTED BY IDOCK:   -0.11 KCAL/MOL
REMARK 927      BINDING AFFINITY PREDICTED BY RF-SCORE:    0.00 PKD
ROOT
HETATM    1  C   UNL     1      -9.242  10.817  67.032  1.00  0.00    -0.166 C  
HETATM    2  C   UNL     1      -9.919  12.081  67.544  1.00  0.00    -0.192 C  
HETATM    3  S   UNL     1      -8.666  13.359  67.918  1.00  0.00    -0.199 SA 
HETATM    4  H   UNL     1      -9.283  14.513  68.385  1.00  0.00     0.000 H  
ENDROOT
BRANCH   2   5
HETATM    5  C   UNL     1     -10.940  12.631  66.543  1.00  0.00    -0.269 C  
HETATM    6  O   UNL     1     -11.942  12.022  66.187  1.00  0.00    -0.581 OA 
HETATM    7  N   UNL     1     -10.706  13.941  66.153  1.00  0.00    -0.281 N  
HETATM    8  H   UNL     1      -9.974  14.486  66.610  1.00  0.00     0.000 HD 
BRANCH   7   9
HETATM    9  C   UNL     1     -11.509  14.547  65.085  1.00  0.00    -0.368 C  
HETATM   10  C   UNL     1     -11.067  15.967  64.731  1.00  0.00    -0.384 C  
HETATM   11  O   UNL     1     -11.593  16.647  63.862  1.00  0.00    -1.204 OA 
HETATM   12  O   UNL     1      -9.989  16.390  65.434  1.00  0.00    -0.534 OA 
ENDBRANCH   7   9
ENDBRANCH   2   5
TORSDOF 2
ENDMDL
MODEL       17
REMARK 921   NORMALIZED FREE ENERGY PREDICTED BY IDOCK:   -3.75 KCAL/MOL
REMARK 922        TOTAL FREE ENERGY PREDICTED BY IDOCK:   -4.27 KCAL/MOL
REMARK 923 INTER-LIGAND FREE ENERGY PREDICTED BY IDOCK:   -4.13 KCAL/MOL
REMARK 924 INTRA-LIGAND FREE ENERGY PREDICTED BY IDOCK:   -0.14 KCAL/MOL
REMARK 927      BINDING AFFINITY PREDICTED BY RF-SCORE:    0.00 PKD
ROOT
HETATM    1  C   UNL     1     -10.954  12.454  64.661  1.00  0.00    -0.344 C  
HETATM    2  C   UNL     1     -11.694  12.639  65.979  1.00  0.00    -0.417 C  
HETATM    3  S   UNL     1     -11.147  11.383  67.190  1.00  0.00    -0.298 SA 
HETATM    4  H   UNL     1     -11.822  11.551  68.393  1.00  0.00     0.000 H  
ENDROOT
BRANCH   2   5
HETATM    5  C   UNL     1     -11.490  14.043  66.559  1.00  0.00    -0.357 C  
HETATM    6  O   UNL     1     -11.961  14.413  67.628  1.00  0.00    -0.377 OA 
HETATM    7  N   UNL     1     -10.620  14.840  65.831  1.00  0.00    -0.300 N  
HETATM    8  H   UNL     1     -10.096  14.441  65.050  1.00  0.00     0.000 HD 
BRANCH   7   9
HETATM    9  C   UNL     1     -10.448  16.254  66.178  1.00  0.00    -0.322 C  
HETATM   10  C   UNL     1     -10.923  17.206  65.081  1.00  0.00     0.048 C  
HETATM   11  O   UNL     1     -10.880  18.425  65.171  1.00  0.00    -0.630 OA 
HETATM   12  O   UNL     1     -11.454  16.574  64.008  1.00  0.00    -1.137 OA 
ENDBRANCH   7   9
ENDBRANCH   2   5
TORSDOF 2
ENDMDL
MODEL       18
REMARK 921   NORMALIZED FREE ENERGY PREDICTED BY IDOCK:   -3.73 KCAL/MOL
REMARK 922        TOTAL FREE ENERGY PREDICTED BY IDOCK:   -4.25 KCAL/MOL
REMARK 923 INTER-LIGAND FREE ENERGY PREDICTED BY IDOCK:   -4.16 KCAL/MOL
REMARK 924 INTRA-LIGAND FREE ENERGY PREDICTED BY IDOCK:   -0.10 KCAL/MOL
REMARK 927      BINDING AFFINITY PREDICTED BY RF-SCORE:    0.00 PKD
ROOT
HETATM    1  C   UNL     1     -13.727  13.536  72.353  1.00  0.00    -0.704 C  
HETATM    2  C   UNL     1     -13.274  14.680  71.457  1.00  0.00    -0.355 C  
HETATM    3  S   UNL     1     -12.263  15.867  72.413  1.00  0.00    -0.538 SA 
HETATM    4  H   UNL     1     -11.849  16.911  71.596  1.00  0.00     0.000 H  
ENDROOT
BRANCH   2   5
HETATM    5  C   UNL     1     -12.481  14.181  70.245  1.00  0.00    -0.353 C  
HETATM    6  O   UNL     1     -12.044  13.040  70.140  1.00  0.00    -0.336 OA 
HETATM    7  N   UNL     1     -12.394  15.093  69.204  1.00  0.00    -0.592 N  
HETATM    8  H   UNL     1     -12.927  15.963  69.244  1.00  0.00     0.000 HD 
BRANCH   7   9
HETATM    9  C   UNL     1     -11.538  14.813  68.047  1.00  0.00    -0.343 C  
HETATM   10  C   UNL     1     -10.717  16.022  67.599  1.00  0.00    -0.320 C  
HETATM   11  O   UNL     1      -9.932  16.002  66.662  1.00  0.00    -0.247 OA 
HETATM   12  O   UNL     1     -10.894  17.116  68.376  1.00  0.00    -0.367 OA 
ENDBRANCH   7   9
ENDBRANCH   2   5
TORSDOF 2
ENDMDL
MODEL       19
REMARK 921   NORMALIZED FREE ENERGY PREDICTED BY IDOCK:   -3.72 KCAL/MOL
REMARK 922        TOTAL FREE ENERGY PREDICTED BY IDOCK:   -4.25 KCAL/MOL
REMARK 923 INTER-LIGAND FREE ENERGY PREDICTED BY IDOCK:   -4.13 KCAL/MOL
REMARK 924 INTRA-LIGAND FREE ENERGY PREDICTED BY IDOCK:   -0.12 KCAL/MOL
REMARK 927      BINDING AFFINITY PREDICTED BY RF-SCORE:    0.00 PKD
ROOT
HETATM    1  C   UNL     1     -11.098  11.220  67.216  1.00  0.00    -0.367 C  
HETATM    2  C   UNL     1     -12.000  12.151  68.016  1.00  0.00    -0.166 C  
HETATM    3  S   UNL     1     -11.870  11.773  69.801  1.00  0.00    -0.338 SA 
HETATM    4  H   UNL     1     -12.692  12.623  70.531  1.00  0.00     0.000 H  
ENDROOT
BRANCH   2   5
HETATM    5  C   UNL     1     -11.663  13.625  67.771  1.00  0.00    -0.362 C  
HETATM    6  O   UNL     1     -11.814  14.507  68.609  1.00  0.00    -0.319 OA 
HETATM    7  N   UNL     1     -11.052  13.876  66.552  1.00  0.00    -0.304 N  
HETATM    8  H   UNL     1     -10.768  13.098  65.955  1.00  0.00     0.000 HD 
BRANCH   7   9
HETATM    9  C   UNL     1     -10.814  15.255  66.115  1.00  0.00    -0.320 C  
HETATM   10  C   UNL     1     -11.407  15.564  64.741  1.00  0.00    -0.357 C  
HETATM   11  O   UNL     1     -11.333  16.656  64.197  1.00  0.00    -1.141 OA 
HETATM   12  O   UNL     1     -12.082  14.524  64.197  1.00  0.00    -0.454 OA 
ENDBRANCH   7   9
ENDBRANCH   2   5
TORSDOF 2
ENDMDL
MODEL       20
REMARK 921   NORMALIZED FREE ENERGY PREDICTED BY IDOCK:   -3.72 KCAL/MOL
REMARK 922        TOTAL FREE ENERGY PREDICTED BY IDOCK:   -4.24 KCAL/MOL
REMARK 923 INTER-LIGAND FREE ENERGY PREDICTED BY IDOCK:   -4.15 KCAL/MOL
REMARK 924 INTRA-LIGAND FREE ENERGY PREDICTED BY IDOCK:   -0.10 KCAL/MOL
REMARK 927      BINDING AFFINITY PREDICTED BY RF-SCORE:    0.00 PKD
ROOT
HETATM    1  C   UNL     1     -13.605  12.893  72.250  1.00  0.00    -0.611 C  
HETATM    2  C   UNL     1     -13.482  14.395  72.031  1.00  0.00    -0.402 C  
HETATM    3  S   UNL     1     -12.613  15.169  73.442  1.00  0.00    -0.562 SA 
HETATM    4  H   UNL     1     -12.501  16.539  73.242  1.00  0.00     0.000 H  
ENDROOT
BRANCH   2   5
HETATM    5  C   UNL     1     -12.751  14.726  70.726  1.00  0.00    -0.362 C  
HETATM    6  O   UNL     1     -12.321  15.840  70.449  1.00  0.00    -0.398 OA 
HETATM    7  N   UNL     1     -12.501  13.627  69.917  1.00  0.00    -0.230 N  
HETATM    8  H   UNL     1     -12.702  12.687  70.260  1.00  0.00     0.000 HD 
BRANCH   7   9
HETATM    9  C   UNL     1     -11.948  13.811  68.571  1.00  0.00    -0.367 C  
HETATM   10  C   UNL     1     -11.778  12.500  67.805  1.00  0.00    -0.359 C  
HETATM   11  O   UNL     1     -11.345  12.429  66.665  1.00  0.00    -0.299 OA 
HETATM   12  O   UNL     1     -12.208  11.413  68.490  1.00  0.00    -0.557 OA 
ENDBRANCH   7   9
ENDBRANCH   2   5
TORSDOF 2
ENDMDL
MODEL       21
REMARK 921   NORMALIZED FREE ENERGY PREDICTED BY IDOCK:   -3.72 KCAL/MOL
REMARK 922        TOTAL FREE ENERGY PREDICTED BY IDOCK:   -4.24 KCAL/MOL
REMARK 923 INTER-LIGAND FREE ENERGY PREDICTED BY IDOCK:   -4.10 KCAL/MOL
REMARK 924 INTRA-LIGAND FREE ENERGY PREDICTED BY IDOCK:   -0.14 KCAL/MOL
REMARK 927      BINDING AFFINITY PREDICTED BY RF-SCORE:    0.00 PKD
ROOT
HETATM    1  C   UNL     1     -12.023  11.260  68.993  1.00  0.00    -0.393 C  
HETATM    2  C   UNL     1     -10.674  11.224  68.288  1.00  0.00    -0.194 C  
HETATM    3  S   UNL     1     -10.363   9.554  67.610  1.00  0.00    -0.259 SA 
HETATM    4  H   UNL     1      -9.132   9.520  66.966  1.00  0.00     0.000 H  
ENDROOT
BRANCH   2   5
HETATM    5  C   UNL     1     -10.584  12.264  67.167  1.00  0.00    -0.225 C  
HETATM    6  O   UNL     1      -9.629  12.365  66.405  1.00  0.00    -0.237 OA 
HETATM    7  N   UNL     1     -11.735  13.020  66.996  1.00  0.00    -0.366 N  
HETATM    8  H   UNL     1     -12.580  12.785  67.519  1.00  0.00     0.000 HD 
BRANCH   7   9
HETATM    9  C   UNL     1     -11.742  14.154  66.067  1.00  0.00    -0.382 C  
HETATM   10  C   UNL     1     -12.498  13.867  64.771  1.00  0.00    -0.354 C  
HETATM   11  O   UNL     1     -12.635  14.679  63.867  1.00  0.00    -0.834 OA 
HETATM   12  O   UNL     1     -13.060  12.636  64.734  1.00  0.00    -0.852 OA 
ENDBRANCH   7   9
ENDBRANCH   2   5
TORSDOF 2
ENDMDL
MODEL       22
REMARK 921   NORMALIZED FREE ENERGY PREDICTED BY IDOCK:   -3.70 KCAL/MOL
REMARK 922        TOTAL FREE ENERGY PREDICTED BY IDOCK:   -4.22 KCAL/MOL
REMARK 923 INTER-LIGAND FREE ENERGY PREDICTED BY IDOCK:   -4.10 KCAL/MOL
REMARK 924 INTRA-LIGAND FREE ENERGY PREDICTED BY IDOCK:   -0.13 KCAL/MOL
REMARK 927      BINDING AFFINITY PREDICTED BY RF-SCORE:    0.00 PKD
ROOT
HETATM    1  C   UNL     1      -8.579  16.403  66.256  1.00  0.00    -0.375 C  
HETATM    2  C   UNL     1      -9.237  15.377  67.169  1.00  0.00    -0.213 C  
HETATM    3  S   UNL     1     -10.673  16.122  68.021  1.00  0.00    -0.330 SA 
HETATM    4  H   UNL     1     -11.274  15.185  68.853  1.00  0.00     0.000 H  
ENDROOT
BRANCH   2   5
HETATM    5  C   UNL     1      -9.679  14.127  66.401  1.00  0.00    -0.298 C  
HETATM    6  O   UNL     1      -9.328  12.989  66.692  1.00  0.00    -0.245 OA 
HETATM    7  N   UNL     1     -10.617  14.369  65.409  1.00  0.00    -0.341 N  
HETATM    8  H   UNL     1     -11.032  15.297  65.316  1.00  0.00     0.000 HD 
BRANCH   7   9
HETATM    9  C   UNL     1     -11.017  13.295  64.493  1.00  0.00    -0.382 C  
HETATM   10  C   UNL     1     -12.525  13.052  64.471  1.00  0.00    -0.363 C  
HETATM   11  O   UNL     1     -13.070  12.212  63.769  1.00  0.00    -0.774 OA 
HETATM   12  O   UNL     1     -13.222  13.898  65.266  1.00  0.00    -0.774 OA 
ENDBRANCH   7   9
ENDBRANCH   2   5
TORSDOF 2
ENDMDL
MODEL       23
REMARK 921   NORMALIZED FREE ENERGY PREDICTED BY IDOCK:   -3.67 KCAL/MOL
REMARK 922        TOTAL FREE ENERGY PREDICTED BY IDOCK:   -4.19 KCAL/MOL
REMARK 923 INTER-LIGAND FREE ENERGY PREDICTED BY IDOCK:   -4.11 KCAL/MOL
REMARK 924 INTRA-LIGAND FREE ENERGY PREDICTED BY IDOCK:   -0.08 KCAL/MOL
REMARK 927      BINDING AFFINITY PREDICTED BY RF-SCORE:    0.00 PKD
ROOT
HETATM    1  C   UNL     1     -12.255  13.934  66.377  1.00  0.00    -0.487 C  
HETATM    2  C   UNL     1     -11.854  13.562  67.798  1.00  0.00    -0.362 C  
HETATM    3  S   UNL     1     -10.177  12.833  67.808  1.00  0.00    -0.228 SA 
HETATM    4  H   UNL     1      -9.810  12.493  69.105  1.00  0.00     0.000 H  
ENDROOT
BRANCH   2   5
HETATM    5  C   UNL     1     -11.903  14.767  68.742  1.00  0.00    -0.296 C  
HETATM    6  O   UNL     1     -11.322  15.825  68.528  1.00  0.00    -0.337 OA 
HETATM    7  N   UNL     1     -12.764  14.614  69.819  1.00  0.00    -0.574 N  
HETATM    8  H   UNL     1     -13.376  13.798  69.869  1.00  0.00     0.000 HD 
BRANCH   7   9
HETATM    9  C   UNL     1     -12.798  15.619  70.886  1.00  0.00    -0.442 C  
HETATM   10  C   UNL     1     -13.370  15.086  72.198  1.00  0.00    -0.387 C  
HETATM   11  O   UNL     1     -13.478  15.754  73.216  1.00  0.00    -0.551 OA 
HETATM   12  O   UNL     1     -13.701  13.773  72.151  1.00  0.00    -0.449 OA 
ENDBRANCH   7   9
ENDBRANCH   2   5
TORSDOF 2
ENDMDL
MODEL       24
REMARK 921   NORMALIZED FREE ENERGY PREDICTED BY IDOCK:   -3.66 KCAL/MOL
REMARK 922        TOTAL FREE ENERGY PREDICTED BY IDOCK:   -4.18 KCAL/MOL
REMARK 923 INTER-LIGAND FREE ENERGY PREDICTED BY IDOCK:   -4.06 KCAL/MOL
REMARK 924 INTRA-LIGAND FREE ENERGY PREDICTED BY IDOCK:   -0.11 KCAL/MOL
REMARK 927      BINDING AFFINITY PREDICTED BY RF-SCORE:    0.00 PKD
ROOT
HETATM    1  C   UNL     1     -11.942  13.627  69.083  1.00  0.00    -0.394 C  
HETATM    2  C   UNL     1     -11.829  15.038  68.521  1.00  0.00    -0.291 C  
HETATM    3  S   UNL     1     -10.793  16.072  69.618  1.00  0.00    -0.355 SA 
HETATM    4  H   UNL     1     -10.689  17.359  69.105  1.00  0.00     0.000 H  
ENDROOT
BRANCH   2   5
HETATM    5  C   UNL     1     -11.252  15.045  67.102  1.00  0.00    -0.336 C  
HETATM    6  O   UNL     1     -10.653  15.998  66.614  1.00  0.00    -0.317 OA 
HETATM    7  N   UNL     1     -11.352  13.831  66.439  1.00  0.00    -0.310 N  
HETATM    8  H   UNL     1     -11.684  13.005  66.938  1.00  0.00     0.000 HD 
BRANCH   7   9
HETATM    9  C   UNL     1     -10.983  13.730  65.023  1.00  0.00    -0.357 C  
HETATM   10  C   UNL     1     -12.051  13.048  64.169  1.00  0.00    -0.427 C  
HETATM   11  O   UNL     1     -11.950  12.872  62.964  1.00  0.00    -0.428 OA 
HETATM   12  O   UNL     1     -13.160  12.700  64.865  1.00  0.00    -0.850 OA 
ENDBRANCH   7   9
ENDBRANCH   2   5
TORSDOF 2
ENDMDL
MODEL       25
REMARK 921   NORMALIZED FREE ENERGY PREDICTED BY IDOCK:   -3.66 KCAL/MOL
REMARK 922        TOTAL FREE ENERGY PREDICTED BY IDOCK:   -4.17 KCAL/MOL
REMARK 923 INTER-LIGAND FREE ENERGY PREDICTED BY IDOCK:   -4.07 KCAL/MOL
REMARK 924 INTRA-LIGAND FREE ENERGY PREDICTED BY IDOCK:   -0.10 KCAL/MOL
REMARK 927      BINDING AFFINITY PREDICTED BY RF-SCORE:    0.00 PKD
ROOT
HETATM    1  C   UNL     1     -13.063  13.449  71.472  1.00  0.00    -0.427 C  
HETATM    2  C   UNL     1     -12.891  14.903  71.054  1.00  0.00    -0.362 C  
HETATM    3  S   UNL     1     -12.065  15.848  72.385  1.00  0.00    -0.551 SA 
HETATM    4  H   UNL     1     -11.908  17.175  72.004  1.00  0.00     0.000 H  
ENDROOT
BRANCH   2   5
HETATM    5  C   UNL     1     -12.094  15.036  69.752  1.00  0.00    -0.314 C  
HETATM    6  O   UNL     1     -11.138  15.790  69.611  1.00  0.00    -0.257 OA 
HETATM    7  N   UNL     1     -12.463  14.136  68.763  1.00  0.00    -0.483 N  
HETATM    8  H   UNL     1     -13.133  13.394  68.974  1.00  0.00     0.000 HD 
BRANCH   7   9
HETATM    9  C   UNL     1     -11.895  14.246  67.416  1.00  0.00    -0.409 C  
HETATM   10  C   UNL     1     -11.676  12.892  66.742  1.00  0.00    -0.383 C  
HETATM   11  O   UNL     1     -11.224  12.758  65.614  1.00  0.00    -0.287 OA 
HETATM   12  O   UNL     1     -12.085  11.841  67.492  1.00  0.00    -0.599 OA 
ENDBRANCH   7   9
ENDBRANCH   2   5
TORSDOF 2
ENDMDL
MODEL       26
REMARK 921   NORMALIZED FREE ENERGY PREDICTED BY IDOCK:   -3.63 KCAL/MOL
REMARK 922        TOTAL FREE ENERGY PREDICTED BY IDOCK:   -4.14 KCAL/MOL
REMARK 923 INTER-LIGAND FREE ENERGY PREDICTED BY IDOCK:   -4.01 KCAL/MOL
REMARK 924 INTRA-LIGAND FREE ENERGY PREDICTED BY IDOCK:   -0.12 KCAL/MOL
REMARK 927      BINDING AFFINITY PREDICTED BY RF-SCORE:    0.00 PKD
ROOT
HETATM    1  C   UNL     1     -12.938  12.131  71.189  1.00  0.00    -0.240 C  
HETATM    2  C   UNL     1     -11.801  12.305  70.191  1.00  0.00    -0.272 C  
HETATM    3  S   UNL     1     -11.632  10.804  69.160  1.00  0.00    -0.299 SA 
HETATM    4  H   UNL     1     -10.595  10.963  68.249  1.00  0.00     0.000 H  
ENDROOT
BRANCH   2   5
HETATM    5  C   UNL     1     -12.006  13.530  69.294  1.00  0.00    -0.330 C  
HETATM    6  O   UNL     1     -12.236  14.656  69.721  1.00  0.00    -0.313 OA 
HETATM    7  N   UNL     1     -11.792  13.292  67.945  1.00  0.00    -0.352 N  
HETATM    8  H   UNL     1     -11.418  12.393  67.640  1.00  0.00     0.000 HD 
BRANCH   7   9
HETATM    9  C   UNL     1     -12.101  14.329  66.954  1.00  0.00    -0.409 C  
HETATM   10  C   UNL     1     -12.469  13.762  65.584  1.00  0.00    -0.503 C  
HETATM   11  O   UNL     1     -12.772  14.451  64.621  1.00  0.00    -0.655 OA 
HETATM   12  O   UNL     1     -12.486  12.408  65.544  1.00  0.00    -0.643 OA 
ENDBRANCH   7   9
ENDBRANCH   2   5
TORSDOF 2
ENDMDL
MODEL       27
REMARK 921   NORMALIZED FREE ENERGY PREDICTED BY IDOCK:   -3.62 KCAL/MOL
REMARK 922        TOTAL FREE ENERGY PREDICTED BY IDOCK:   -4.13 KCAL/MOL
REMARK 923 INTER-LIGAND FREE ENERGY PREDICTED BY IDOCK:   -4.02 KCAL/MOL
REMARK 924 INTRA-LIGAND FREE ENERGY PREDICTED BY IDOCK:   -0.11 KCAL/MOL
REMARK 927      BINDING AFFINITY PREDICTED BY RF-SCORE:    0.00 PKD
ROOT
HETATM    1  C   UNL     1     -11.727  15.773  71.185  1.00  0.00    -0.476 C  
HETATM    2  C   UNL     1     -11.932  15.585  69.688  1.00  0.00    -0.359 C  
HETATM    3  S   UNL     1     -10.637  16.481  68.758  1.00  0.00    -0.344 SA 
HETATM    4  H   UNL     1     -10.823  16.310  67.392  1.00  0.00     0.000 H  
ENDROOT
BRANCH   2   5
HETATM    5  C   UNL     1     -11.928  14.106  69.289  1.00  0.00    -0.340 C  
HETATM    6  O   UNL     1     -11.869  13.713  68.130  1.00  0.00    -0.342 OA 
HETATM    7  N   UNL     1     -11.876  13.227  70.361  1.00  0.00    -0.536 N  
HETATM    8  H   UNL     1     -11.735  13.584  71.306  1.00  0.00     0.000 HD 
BRANCH   7   9
HETATM    9  C   UNL     1     -12.021  11.784  70.139  1.00  0.00    -0.339 C  
HETATM   10  C   UNL     1     -12.872  11.094  71.205  1.00  0.00    -0.412 C  
HETATM   11  O   UNL     1     -13.127   9.899  71.204  1.00  0.00    -0.367 OA 
HETATM   12  O   UNL     1     -13.371  11.944  72.133  1.00  0.00    -0.503 OA 
ENDBRANCH   7   9
ENDBRANCH   2   5
TORSDOF 2
ENDMDL
MODEL       28
REMARK 921   NORMALIZED FREE ENERGY PREDICTED BY IDOCK:   -3.58 KCAL/MOL
REMARK 922        TOTAL FREE ENERGY PREDICTED BY IDOCK:   -4.08 KCAL/MOL
REMARK 923 INTER-LIGAND FREE ENERGY PREDICTED BY IDOCK:   -3.98 KCAL/MOL
REMARK 924 INTRA-LIGAND FREE ENERGY PREDICTED BY IDOCK:   -0.10 KCAL/MOL
REMARK 927      BINDING AFFINITY PREDICTED BY RF-SCORE:    0.00 PKD
ROOT
HETATM    1  C   UNL     1      -9.923   9.379  66.393  1.00  0.00    -0.346 C  
HETATM    2  C   UNL     1     -10.427  10.109  67.631  1.00  0.00    -0.245 C  
HETATM    3  S   UNL     1      -9.016  10.658  68.656  1.00  0.00    -0.176 SA 
HETATM    4  H   UNL     1      -9.476  11.324  69.786  1.00  0.00     0.000 H  
ENDROOT
BRANCH   2   5
HETATM    5  C   UNL     1     -11.307  11.311  67.270  1.00  0.00    -0.255 C  
HETATM    6  O   UNL     1     -12.127  11.808  68.033  1.00  0.00    -0.572 OA 
HETATM    7  N   UNL     1     -11.018  11.879  66.039  1.00  0.00    -0.299 N  
HETATM    8  H   UNL     1     -10.205  11.561  65.509  1.00  0.00     0.000 HD 
BRANCH   7   9
HETATM    9  C   UNL     1     -11.877  12.936  65.495  1.00  0.00    -0.411 C  
HETATM   10  C   UNL     1     -11.782  13.067  63.975  1.00  0.00    -0.436 C  
HETATM   11  O   UNL     1     -12.421  13.877  63.320  1.00  0.00    -0.817 OA 
HETATM   12  O   UNL     1     -10.958  12.157  63.404  1.00  0.00    -0.426 OA 
ENDBRANCH   7   9
ENDBRANCH   2   5
TORSDOF 2
ENDMDL
MODEL       29
REMARK 921   NORMALIZED FREE ENERGY PREDICTED BY IDOCK:   -3.58 KCAL/MOL
REMARK 922        TOTAL FREE ENERGY PREDICTED BY IDOCK:   -4.08 KCAL/MOL
REMARK 923 INTER-LIGAND FREE ENERGY PREDICTED BY IDOCK:   -3.93 KCAL/MOL
REMARK 924 INTRA-LIGAND FREE ENERGY PREDICTED BY IDOCK:   -0.15 KCAL/MOL
REMARK 927      BINDING AFFINITY PREDICTED BY RF-SCORE:    0.00 PKD
ROOT
HETATM    1  C   UNL     1     -11.983  12.600  63.249  1.00  0.00    -0.526 C  
HETATM    2  C   UNL     1     -11.839  12.240  64.722  1.00  0.00    -0.364 C  
HETATM    3  S   UNL     1     -10.092  11.859  65.109  1.00  0.00    -0.261 SA 
HETATM    4  H   UNL     1      -9.960  11.531  66.453  1.00  0.00     0.000 H  
ENDROOT
BRANCH   2   5
HETATM    5  C   UNL     1     -12.341  13.361  65.638  1.00  0.00    -0.470 C  
HETATM    6  O   UNL     1     -13.387  13.974  65.454  1.00  0.00    -0.721 OA 
HETATM    7  N   UNL     1     -11.574  13.554  66.777  1.00  0.00    -0.345 N  
HETATM    8  H   UNL     1     -10.819  12.903  66.998  1.00  0.00     0.000 HD 
BRANCH   7   9
HETATM    9  C   UNL     1     -11.844  14.689  67.665  1.00  0.00    -0.337 C  
HETATM   10  C   UNL     1     -10.773  15.777  67.595  1.00  0.00    -0.310 C  
HETATM   11  O   UNL     1     -10.810  16.812  68.244  1.00  0.00    -0.353 OA 
HETATM   12  O   UNL     1      -9.795  15.517  66.696  1.00  0.00    -0.238 OA 
ENDBRANCH   7   9
ENDBRANCH   2   5
TORSDOF 2
ENDMDL
MODEL       30
REMARK 921   NORMALIZED FREE ENERGY PREDICTED BY IDOCK:   -3.57 KCAL/MOL
REMARK 922        TOTAL FREE ENERGY PREDICTED BY IDOCK:   -4.08 KCAL/MOL
REMARK 923 INTER-LIGAND FREE ENERGY PREDICTED BY IDOCK:   -3.94 KCAL/MOL
REMARK 924 INTRA-LIGAND FREE ENERGY PREDICTED BY IDOCK:   -0.14 KCAL/MOL
REMARK 927      BINDING AFFINITY PREDICTED BY RF-SCORE:    0.00 PKD
ROOT
HETATM    1  C   UNL     1     -10.614  14.110  68.545  1.00  0.00    -0.257 C  
HETATM    2  C   UNL     1     -11.685  13.065  68.824  1.00  0.00    -0.324 C  
HETATM    3  S   UNL     1     -10.935  11.399  68.899  1.00  0.00    -0.243 SA 
HETATM    4  H   UNL     1     -11.912  10.444  69.154  1.00  0.00     0.000 H  
ENDROOT
BRANCH   2   5
HETATM    5  C   UNL     1     -12.443  13.352  70.124  1.00  0.00    -0.174 C  
HETATM    6  O   UNL     1     -12.559  12.544  71.038  1.00  0.00    -0.361 OA 
HETATM    7  N   UNL     1     -12.893  14.658  70.245  1.00  0.00    -0.550 N  
HETATM    8  H   UNL     1     -12.618  15.358  69.555  1.00  0.00     0.000 HD 
BRANCH   7   9
HETATM    9  C   UNL     1     -13.764  15.038  71.362  1.00  0.00    -0.473 C  
HETATM   10  C   UNL     1     -13.040  15.835  72.447  1.00  0.00    -0.465 C  
HETATM   11  O   UNL     1     -13.581  16.258  73.458  1.00  0.00    -0.642 OA 
HETATM   12  O   UNL     1     -11.739  16.082  72.160  1.00  0.00    -0.455 OA 
ENDBRANCH   7   9
ENDBRANCH   2   5
TORSDOF 2
ENDMDL
MODEL       31
REMARK 921   NORMALIZED FREE ENERGY PREDICTED BY IDOCK:   -3.55 KCAL/MOL
REMARK 922        TOTAL FREE ENERGY PREDICTED BY IDOCK:   -4.05 KCAL/MOL
REMARK 923 INTER-LIGAND FREE ENERGY PREDICTED BY IDOCK:   -3.91 KCAL/MOL
REMARK 924 INTRA-LIGAND FREE ENERGY PREDICTED BY IDOCK:   -0.14 KCAL/MOL
REMARK 927      BINDING AFFINITY PREDICTED BY RF-SCORE:    0.00 PKD
ROOT
HETATM    1  C   UNL     1     -12.316  13.328  71.018  1.00  0.00    -0.379 C  
HETATM    2  C   UNL     1     -12.407  14.114  69.717  1.00  0.00    -0.299 C  
HETATM    3  S   UNL     1     -11.463  15.674  69.857  1.00  0.00    -0.370 SA 
HETATM    4  H   UNL     1     -11.546  16.392  68.670  1.00  0.00     0.000 H  
ENDROOT
BRANCH   2   5
HETATM    5  C   UNL     1     -11.899  13.305  68.520  1.00  0.00    -0.349 C  
HETATM    6  O   UNL     1     -11.800  12.083  68.516  1.00  0.00    -0.318 OA 
HETATM    7  N   UNL     1     -11.667  14.059  67.379  1.00  0.00    -0.367 N  
HETATM    8  H   UNL     1     -11.938  15.042  67.355  1.00  0.00     0.000 HD 
BRANCH   7   9
HETATM    9  C   UNL     1     -11.034  13.447  66.206  1.00  0.00    -0.288 C  
HETATM   10  C   UNL     1     -11.961  13.368  64.993  1.00  0.00    -0.374 C  
HETATM   11  O   UNL     1     -11.630  12.904  63.912  1.00  0.00    -0.391 OA 
HETATM   12  O   UNL     1     -13.181  13.915  65.208  1.00  0.00    -0.774 OA 
ENDBRANCH   7   9
ENDBRANCH   2   5
TORSDOF 2
ENDMDL
MODEL       32
REMARK 921   NORMALIZED FREE ENERGY PREDICTED BY IDOCK:   -3.53 KCAL/MOL
REMARK 922        TOTAL FREE ENERGY PREDICTED BY IDOCK:   -4.02 KCAL/MOL
REMARK 923 INTER-LIGAND FREE ENERGY PREDICTED BY IDOCK:   -3.93 KCAL/MOL
REMARK 924 INTRA-LIGAND FREE ENERGY PREDICTED BY IDOCK:   -0.10 KCAL/MOL
REMARK 927      BINDING AFFINITY PREDICTED BY RF-SCORE:    0.00 PKD
ROOT
HETATM    1  C   UNL     1     -11.147   8.900  71.958  1.00  0.00    -0.421 C  
HETATM    2  C   UNL     1     -12.369   9.335  71.160  1.00  0.00    -0.293 C  
HETATM    3  S   UNL     1     -13.897   8.781  71.998  1.00  0.00    -0.461 SA 
HETATM    4  H   UNL     1     -15.012   9.179  71.271  1.00  0.00     0.000 H  
ENDROOT
BRANCH   2   5
HETATM    5  C   UNL     1     -12.409  10.853  70.955  1.00  0.00    -0.393 C  
HETATM    6  O   UNL     1     -12.931  11.633  71.743  1.00  0.00    -0.435 OA 
HETATM    7  N   UNL     1     -11.694  11.298  69.853  1.00  0.00    -0.322 N  
HETATM    8  H   UNL     1     -11.114  10.646  69.325  1.00  0.00     0.000 HD 
BRANCH   7   9
HETATM    9  C   UNL     1     -11.769  12.705  69.445  1.00  0.00    -0.325 C  
HETATM   10  C   UNL     1     -11.996  12.885  67.944  1.00  0.00    -0.282 C  
HETATM   11  O   UNL     1     -12.100  13.973  67.396  1.00  0.00    -0.402 OA 
HETATM   12  O   UNL     1     -12.130  11.716  67.273  1.00  0.00    -0.595 OA 
ENDBRANCH   7   9
ENDBRANCH   2   5
TORSDOF 2
ENDMDL
MODEL       33
REMARK 921   NORMALIZED FREE ENERGY PREDICTED BY IDOCK:   -3.46 KCAL/MOL
REMARK 922        TOTAL FREE ENERGY PREDICTED BY IDOCK:   -3.95 KCAL/MOL
REMARK 923 INTER-LIGAND FREE ENERGY PREDICTED BY IDOCK:   -3.85 KCAL/MOL
REMARK 924 INTRA-LIGAND FREE ENERGY PREDICTED BY IDOCK:   -0.10 KCAL/MOL
REMARK 927      BINDING AFFINITY PREDICTED BY RF-SCORE:    0.00 PKD
ROOT
HETATM    1  C   UNL     1     -10.278  15.033  65.185  1.00  0.00    -0.399 C  
HETATM    2  C   UNL     1     -11.485  14.604  66.009  1.00  0.00    -0.332 C  
HETATM    3  S   UNL     1     -12.311  13.176  65.218  1.00  0.00    -0.495 SA 
HETATM    4  H   UNL     1     -13.412  12.784  65.970  1.00  0.00     0.000 H  
ENDROOT
BRANCH   2   5
HETATM    5  C   UNL     1     -11.099  14.248  67.448  1.00  0.00    -0.304 C  
HETATM    6  O   UNL     1      -9.953  14.300  67.880  1.00  0.00    -0.222 OA 
HETATM    7  N   UNL     1     -12.177  13.973  68.276  1.00  0.00    -0.540 N  
HETATM    8  H   UNL     1     -13.129  14.122  67.939  1.00  0.00     0.000 HD 
BRANCH   7   9
HETATM    9  C   UNL     1     -11.954  13.469  69.636  1.00  0.00    -0.337 C  
HETATM   10  C   UNL     1     -12.013  11.945  69.730  1.00  0.00    -0.307 C  
HETATM   11  O   UNL     1     -11.843  11.320  70.767  1.00  0.00    -0.322 OA 
HETATM   12  O   UNL     1     -12.216  11.336  68.538  1.00  0.00    -0.588 OA 
ENDBRANCH   7   9
ENDBRANCH   2   5
TORSDOF 2
ENDMDL
MODEL       34
REMARK 921   NORMALIZED FREE ENERGY PREDICTED BY IDOCK:   -3.44 KCAL/MOL
REMARK 922        TOTAL FREE ENERGY PREDICTED BY IDOCK:   -3.93 KCAL/MOL
REMARK 923 INTER-LIGAND FREE ENERGY PREDICTED BY IDOCK:   -3.82 KCAL/MOL
REMARK 924 INTRA-LIGAND FREE ENERGY PREDICTED BY IDOCK:   -0.12 KCAL/MOL
REMARK 927      BINDING AFFINITY PREDICTED BY RF-SCORE:    0.00 PKD
ROOT
HETATM    1  C   UNL     1     -11.178   6.555  69.644  1.00  0.00    -0.446 C  
HETATM    2  C   UNL     1     -11.480   6.251  71.105  1.00  0.00    -0.299 C  
HETATM    3  S   UNL     1     -10.007   5.532  71.916  1.00  0.00    -0.185 SA 
HETATM    4  H   UNL     1     -10.282   5.254  73.249  1.00  0.00     0.000 H  
ENDROOT
BRANCH   2   5
HETATM    5  C   UNL     1     -11.936   7.499  71.869  1.00  0.00    -0.301 C  
HETATM    6  O   UNL     1     -11.473   7.843  72.950  1.00  0.00    -0.403 OA 
HETATM    7  N   UNL     1     -12.842   8.290  71.179  1.00  0.00    -0.499 N  
HETATM    8  H   UNL     1     -13.065   8.078  70.205  1.00  0.00     0.000 HD 
BRANCH   7   9
HETATM    9  C   UNL     1     -13.482   9.430  71.843  1.00  0.00    -0.426 C  
HETATM   10  C   UNL     1     -12.825  10.769  71.507  1.00  0.00    -0.462 C  
HETATM   11  O   UNL     1     -13.208  11.844  71.944  1.00  0.00    -0.482 OA 
HETATM   12  O   UNL     1     -11.803  10.664  70.625  1.00  0.00    -0.312 OA 
ENDBRANCH   7   9
ENDBRANCH   2   5
TORSDOF 2
ENDMDL
MODEL       35
REMARK 921   NORMALIZED FREE ENERGY PREDICTED BY IDOCK:   -3.44 KCAL/MOL
REMARK 922        TOTAL FREE ENERGY PREDICTED BY IDOCK:   -3.93 KCAL/MOL
REMARK 923 INTER-LIGAND FREE ENERGY PREDICTED BY IDOCK:   -3.82 KCAL/MOL
REMARK 924 INTRA-LIGAND FREE ENERGY PREDICTED BY IDOCK:   -0.11 KCAL/MOL
REMARK 927      BINDING AFFINITY PREDICTED BY RF-SCORE:    0.00 PKD
ROOT
HETATM    1  C   UNL     1      -9.152  10.840  62.434  1.00  0.00    -0.332 C  
HETATM    2  C   UNL     1      -9.226  10.225  63.826  1.00  0.00    -0.275 C  
HETATM    3  S   UNL     1      -7.547   9.809  64.420  1.00  0.00    -0.139 SA 
HETATM    4  H   UNL     1      -7.614   9.248  65.690  1.00  0.00     0.000 H  
ENDROOT
BRANCH   2   5
HETATM    5  C   UNL     1      -9.916  11.156  64.828  1.00  0.00    -0.287 C  
HETATM    6  O   UNL     1     -10.100  10.872  66.006  1.00  0.00    -0.232 OA 
HETATM    7  N   UNL     1     -10.217  12.413  64.326  1.00  0.00    -0.428 N  
HETATM    8  H   UNL     1      -9.882  12.685  63.400  1.00  0.00     0.000 HD 
BRANCH   7   9
HETATM    9  C   UNL     1     -11.015  13.354  65.119  1.00  0.00    -0.303 C  
HETATM   10  C   UNL     1     -12.494  13.361  64.737  1.00  0.00    -0.365 C  
HETATM   11  O   UNL     1     -13.335  14.063  65.281  1.00  0.00    -0.741 OA 
HETATM   12  O   UNL     1     -12.807  12.469  63.768  1.00  0.00    -0.721 OA 
ENDBRANCH   7   9
ENDBRANCH   2   5
TORSDOF 2
ENDMDL
MODEL       36
REMARK 921   NORMALIZED FREE ENERGY PREDICTED BY IDOCK:   -3.44 KCAL/MOL
REMARK 922        TOTAL FREE ENERGY PREDICTED BY IDOCK:   -3.92 KCAL/MOL
REMARK 923 INTER-LIGAND FREE ENERGY PREDICTED BY IDOCK:   -3.81 KCAL/MOL
REMARK 924 INTRA-LIGAND FREE ENERGY PREDICTED BY IDOCK:   -0.12 KCAL/MOL
REMARK 927      BINDING AFFINITY PREDICTED BY RF-SCORE:    0.00 PKD
ROOT
HETATM    1  C   UNL     1     -10.472  19.690  65.718  1.00  0.00    -0.540 C  
HETATM    2  C   UNL     1      -9.763  18.731  66.665  1.00  0.00    -0.344 C  
HETATM    3  S   UNL     1      -9.960  19.294  68.394  1.00  0.00    -0.439 SA 
HETATM    4  H   UNL     1      -9.313  18.419  69.258  1.00  0.00     0.000 H  
ENDROOT
BRANCH   2   5
HETATM    5  C   UNL     1     -10.282  17.297  66.523  1.00  0.00    -0.325 C  
HETATM    6  O   UNL     1     -10.347  16.698  65.456  1.00  0.00    -0.533 OA 
HETATM    7  N   UNL     1     -10.565  16.671  67.728  1.00  0.00    -0.336 N  
HETATM    8  H   UNL     1     -10.322  17.128  68.608  1.00  0.00     0.000 HD 
BRANCH   7   9
HETATM    9  C   UNL     1     -11.213  15.355  67.742  1.00  0.00    -0.321 C  
HETATM   10  C   UNL     1     -11.809  14.992  69.102  1.00  0.00    -0.308 C  
HETATM   11  O   UNL     1     -12.403  13.948  69.328  1.00  0.00    -0.323 OA 
HETATM   12  O   UNL     1     -11.670  15.967  70.032  1.00  0.00    -0.338 OA 
ENDBRANCH   7   9
ENDBRANCH   2   5
TORSDOF 2
ENDMDL
MODEL       37
REMARK 921   NORMALIZED FREE ENERGY PREDICTED BY IDOCK:   -3.43 KCAL/MOL
REMARK 922        TOTAL FREE ENERGY PREDICTED BY IDOCK:   -3.92 KCAL/MOL
REMARK 923 INTER-LIGAND FREE ENERGY PREDICTED BY IDOCK:   -3.84 KCAL/MOL
REMARK 924 INTRA-LIGAND FREE ENERGY PREDICTED BY IDOCK:   -0.08 KCAL/MOL
REMARK 927      BINDING AFFINITY PREDICTED BY RF-SCORE:    0.00 PKD
ROOT
HETATM    1  C   UNL     1     -11.485  13.635  64.823  1.00  0.00    -0.367 C  
HETATM    2  C   UNL     1     -11.879  13.403  66.276  1.00  0.00    -0.394 C  
HETATM    3  S   UNL     1     -11.205  11.808  66.864  1.00  0.00    -0.323 SA 
HETATM    4  H   UNL     1     -11.564  11.596  68.190  1.00  0.00     0.000 H  
ENDROOT
BRANCH   2   5
HETATM    5  C   UNL     1     -11.401  14.537  67.188  1.00  0.00    -0.350 C  
HETATM    6  O   UNL     1     -10.384  15.190  66.988  1.00  0.00    -0.262 OA 
HETATM    7  N   UNL     1     -12.282  14.856  68.211  1.00  0.00    -0.576 N  
HETATM    8  H   UNL     1     -13.206  14.423  68.240  1.00  0.00     0.000 HD 
BRANCH   7   9
HETATM    9  C   UNL     1     -11.890  15.813  69.251  1.00  0.00    -0.346 C  
HETATM   10  C   UNL     1     -12.488  15.492  70.621  1.00  0.00    -0.435 C  
HETATM   11  O   UNL     1     -12.280  16.155  71.627  1.00  0.00    -0.460 OA 
HETATM   12  O   UNL     1     -13.233  14.362  70.635  1.00  0.00    -0.322 OA 
ENDBRANCH   7   9
ENDBRANCH   2   5
TORSDOF 2
ENDMDL
MODEL       38
REMARK 921   NORMALIZED FREE ENERGY PREDICTED BY IDOCK:   -3.42 KCAL/MOL
REMARK 922        TOTAL FREE ENERGY PREDICTED BY IDOCK:   -3.90 KCAL/MOL
REMARK 923 INTER-LIGAND FREE ENERGY PREDICTED BY IDOCK:   -3.81 KCAL/MOL
REMARK 924 INTRA-LIGAND FREE ENERGY PREDICTED BY IDOCK:   -0.10 KCAL/MOL
REMARK 927      BINDING AFFINITY PREDICTED BY RF-SCORE:    0.00 PKD
ROOT
HETATM    1  C   UNL     1      -9.405  11.415  67.783  1.00  0.00    -0.162 C  
HETATM    2  C   UNL     1     -10.386  12.514  68.169  1.00  0.00    -0.232 C  
HETATM    3  S   UNL     1     -11.040  13.328  66.667  1.00  0.00    -0.298 SA 
HETATM    4  H   UNL     1     -11.936  14.331  67.019  1.00  0.00     0.000 H  
ENDROOT
BRANCH   2   5
HETATM    5  C   UNL     1     -11.545  11.977  69.015  1.00  0.00    -0.313 C  
HETATM    6  O   UNL     1     -12.321  11.108  68.635  1.00  0.00    -0.549 OA 
HETATM    7  N   UNL     1     -11.581  12.470  70.311  1.00  0.00    -0.534 N  
HETATM    8  H   UNL     1     -10.813  13.046  70.658  1.00  0.00     0.000 HD 
BRANCH   7   9
HETATM    9  C   UNL     1     -12.718  12.165  71.186  1.00  0.00    -0.253 C  
HETATM   10  C   UNL     1     -13.327  13.406  71.837  1.00  0.00    -0.451 C  
HETATM   11  O   UNL     1     -14.288  13.378  72.591  1.00  0.00    -0.709 OA 
HETATM   12  O   UNL     1     -12.735  14.563  71.455  1.00  0.00    -0.305 OA 
ENDBRANCH   7   9
ENDBRANCH   2   5
TORSDOF 2
ENDMDL
MODEL       39
REMARK 921   NORMALIZED FREE ENERGY PREDICTED BY IDOCK:   -3.41 KCAL/MOL
REMARK 922        TOTAL FREE ENERGY PREDICTED BY IDOCK:   -3.89 KCAL/MOL
REMARK 923 INTER-LIGAND FREE ENERGY PREDICTED BY IDOCK:   -3.78 KCAL/MOL
REMARK 924 INTRA-LIGAND FREE ENERGY PREDICTED BY IDOCK:   -0.12 KCAL/MOL
REMARK 927      BINDING AFFINITY PREDICTED BY RF-SCORE:    0.00 PKD
ROOT
HETATM    1  C   UNL     1     -11.298  12.822  68.212  1.00  0.00    -0.335 C  
HETATM    2  C   UNL     1     -12.005  13.930  67.443  1.00  0.00    -0.401 C  
HETATM    3  S   UNL     1     -11.144  15.523  67.699  1.00  0.00    -0.285 SA 
HETATM    4  H   UNL     1     -11.789  16.534  66.997  1.00  0.00     0.000 H  
ENDROOT
BRANCH   2   5
HETATM    5  C   UNL     1     -12.095  13.622  65.945  1.00  0.00    -0.439 C  
HETATM    6  O   UNL     1     -13.114  13.767  65.279  1.00  0.00    -0.756 OA 
HETATM    7  N   UNL     1     -10.886  13.275  65.361  1.00  0.00    -0.286 N  
HETATM    8  H   UNL     1     -10.021  13.346  65.899  1.00  0.00     0.000 HD 
BRANCH   7   9
HETATM    9  C   UNL     1     -10.845  12.805  63.972  1.00  0.00    -0.424 C  
HETATM   10  C   UNL     1      -9.982  11.558  63.783  1.00  0.00    -0.349 C  
HETATM   11  O   UNL     1      -9.821  10.997  62.709  1.00  0.00    -0.286 OA 
HETATM   12  O   UNL     1      -9.449  11.088  64.936  1.00  0.00    -0.218 OA 
ENDBRANCH   7   9
ENDBRANCH   2   5
TORSDOF 2
ENDMDL
MODEL       40
REMARK 921   NORMALIZED FREE ENERGY PREDICTED BY IDOCK:   -3.41 KCAL/MOL
REMARK 922        TOTAL FREE ENERGY PREDICTED BY IDOCK:   -3.89 KCAL/MOL
REMARK 923 INTER-LIGAND FREE ENERGY PREDICTED BY IDOCK:   -3.76 KCAL/MOL
REMARK 924 INTRA-LIGAND FREE ENERGY PREDICTED BY IDOCK:   -0.14 KCAL/MOL
REMARK 927      BINDING AFFINITY PREDICTED BY RF-SCORE:    0.00 PKD
ROOT
HETATM    1  C   UNL     1     -11.734  13.482  67.342  1.00  0.00    -0.419 C  
HETATM    2  C   UNL     1     -11.275  13.104  68.743  1.00  0.00    -0.281 C  
HETATM    3  S   UNL     1     -11.668  14.448  69.920  1.00  0.00    -0.317 SA 
HETATM    4  H   UNL     1     -11.250  14.102  71.199  1.00  0.00     0.000 H  
ENDROOT
BRANCH   2   5
HETATM    5  C   UNL     1     -11.910  11.793  69.221  1.00  0.00    -0.326 C  
HETATM    6  O   UNL     1     -12.333  10.926  68.465  1.00  0.00    -0.490 OA 
HETATM    7  N   UNL     1     -11.863  11.604  70.594  1.00  0.00    -0.471 N  
HETATM    8  H   UNL     1     -11.337  12.253  71.179  1.00  0.00     0.000 HD 
BRANCH   7   9
HETATM    9  C   UNL     1     -12.566  10.472  71.207  1.00  0.00    -0.426 C  
HETATM   10  C   UNL     1     -11.638   9.319  71.585  1.00  0.00    -0.393 C  
HETATM   11  O   UNL     1     -12.016   8.286  72.118  1.00  0.00    -0.323 OA 
HETATM   12  O   UNL     1     -10.332   9.568  71.326  1.00  0.00    -0.312 OA 
ENDBRANCH   7   9
ENDBRANCH   2   5
TORSDOF 2
ENDMDL
MODEL       41
REMARK 921   NORMALIZED FREE ENERGY PREDICTED BY IDOCK:   -3.41 KCAL/MOL
REMARK 922        TOTAL FREE ENERGY PREDICTED BY IDOCK:   -3.89 KCAL/MOL
REMARK 923 INTER-LIGAND FREE ENERGY PREDICTED BY IDOCK:   -3.81 KCAL/MOL
REMARK 924 INTRA-LIGAND FREE ENERGY PREDICTED BY IDOCK:   -0.08 KCAL/MOL
REMARK 927      BINDING AFFINITY PREDICTED BY RF-SCORE:    0.00 PKD
ROOT
HETATM    1  C   UNL     1     -13.207  10.235  71.713  1.00  0.00    -0.534 C  
HETATM    2  C   UNL     1     -11.878  10.461  71.005  1.00  0.00    -0.361 C  
HETATM    3  S   UNL     1     -11.171   8.862  70.467  1.00  0.00    -0.231 SA 
HETATM    4  H   UNL     1      -9.958   9.068  69.822  1.00  0.00     0.000 H  
ENDROOT
BRANCH   2   5
HETATM    5  C   UNL     1     -12.021  11.397  69.801  1.00  0.00    -0.353 C  
HETATM    6  O   UNL     1     -12.243  11.010  68.659  1.00  0.00    -0.571 OA 
HETATM    7  N   UNL     1     -11.998  12.746  70.121  1.00  0.00    -0.461 N  
HETATM    8  H   UNL     1     -12.001  13.037  71.099  1.00  0.00     0.000 HD 
BRANCH   7   9
HETATM    9  C   UNL     1     -11.969  13.757  69.059  1.00  0.00    -0.360 C  
HETATM   10  C   UNL     1     -11.501  15.128  69.544  1.00  0.00    -0.296 C  
HETATM   11  O   UNL     1     -11.393  16.107  68.819  1.00  0.00    -0.346 OA 
HETATM   12  O   UNL     1     -11.156  15.150  70.853  1.00  0.00    -0.299 OA 
ENDBRANCH   7   9
ENDBRANCH   2   5
TORSDOF 2
ENDMDL
MODEL       42
REMARK 921   NORMALIZED FREE ENERGY PREDICTED BY IDOCK:   -3.40 KCAL/MOL
REMARK 922        TOTAL FREE ENERGY PREDICTED BY IDOCK:   -3.88 KCAL/MOL
REMARK 923 INTER-LIGAND FREE ENERGY PREDICTED BY IDOCK:   -3.76 KCAL/MOL
REMARK 924 INTRA-LIGAND FREE ENERGY PREDICTED BY IDOCK:   -0.12 KCAL/MOL
REMARK 927      BINDING AFFINITY PREDICTED BY RF-SCORE:    0.00 PKD
ROOT
HETATM    1  C   UNL     1      -9.960  10.332  68.838  1.00  0.00    -0.209 C  
HETATM    2  C   UNL     1      -9.821  10.641  67.353  1.00  0.00    -0.170 C  
HETATM    3  S   UNL     1      -9.514   9.101  66.416  1.00  0.00    -0.249 SA 
HETATM    4  H   UNL     1      -9.388   9.382  65.061  1.00  0.00     0.000 H  
ENDROOT
BRANCH   2   5
HETATM    5  C   UNL     1     -11.059  11.350  66.796  1.00  0.00    -0.281 C  
HETATM    6  O   UNL     1     -12.117  11.455  67.407  1.00  0.00    -0.533 OA 
HETATM    7  N   UNL     1     -10.856  11.981  65.578  1.00  0.00    -0.283 N  
HETATM    8  H   UNL     1      -9.915  12.037  65.185  1.00  0.00     0.000 HD 
BRANCH   7   9
HETATM    9  C   UNL     1     -11.987  12.567  64.852  1.00  0.00    -0.412 C  
HETATM   10  C   UNL     1     -11.824  14.063  64.588  1.00  0.00    -0.417 C  
HETATM   11  O   UNL     1     -12.645  14.743  63.989  1.00  0.00    -0.822 OA 
HETATM   12  O   UNL     1     -10.648  14.566  65.032  1.00  0.00    -0.386 OA 
ENDBRANCH   7   9
ENDBRANCH   2   5
TORSDOF 2
ENDMDL
MODEL       43
REMARK 921   NORMALIZED FREE ENERGY PREDICTED BY IDOCK:   -3.39 KCAL/MOL
REMARK 922        TOTAL FREE ENERGY PREDICTED BY IDOCK:   -3.87 KCAL/MOL
REMARK 923 INTER-LIGAND FREE ENERGY PREDICTED BY IDOCK:   -3.76 KCAL/MOL
REMARK 924 INTRA-LIGAND FREE ENERGY PREDICTED BY IDOCK:   -0.12 KCAL/MOL
REMARK 927      BINDING AFFINITY PREDICTED BY RF-SCORE:    0.00 PKD
ROOT
HETATM    1  C   UNL     1     -11.947   6.786  71.991  1.00  0.00    -0.355 C  
HETATM    2  C   UNL     1     -11.519   8.131  72.561  1.00  0.00    -0.404 C  
HETATM    3  S   UNL     1      -9.707   8.329  72.415  1.00  0.00    -0.314 SA 
HETATM    4  H   UNL     1      -9.315   9.556  72.936  1.00  0.00     0.000 H  
ENDROOT
BRANCH   2   5
HETATM    5  C   UNL     1     -12.226   9.300  71.867  1.00  0.00    -0.378 C  
HETATM    6  O   UNL     1     -13.371   9.653  72.123  1.00  0.00    -0.427 OA 
HETATM    7  N   UNL     1     -11.420  10.018  70.996  1.00  0.00    -0.374 N  
HETATM    8  H   UNL     1     -10.420   9.818  70.945  1.00  0.00     0.000 HD 
BRANCH   7   9
HETATM    9  C   UNL     1     -11.999  11.064  70.147  1.00  0.00    -0.360 C  
HETATM   10  C   UNL     1     -11.635  10.913  68.671  1.00  0.00    -0.303 C  
HETATM   11  O   UNL     1     -12.022  11.670  67.792  1.00  0.00    -0.608 OA 
HETATM   12  O   UNL     1     -10.882   9.818  68.408  1.00  0.00    -0.233 OA 
ENDBRANCH   7   9
ENDBRANCH   2   5
TORSDOF 2
ENDMDL
MODEL       44
REMARK 921   NORMALIZED FREE ENERGY PREDICTED BY IDOCK:   -3.38 KCAL/MOL
REMARK 922        TOTAL FREE ENERGY PREDICTED BY IDOCK:   -3.86 KCAL/MOL
REMARK 923 INTER-LIGAND FREE ENERGY PREDICTED BY IDOCK:   -3.72 KCAL/MOL
REMARK 924 INTRA-LIGAND FREE ENERGY PREDICTED BY IDOCK:   -0.14 KCAL/MOL
REMARK 927      BINDING AFFINITY PREDICTED BY RF-SCORE:    0.00 PKD
ROOT
HETATM    1  C   UNL     1     -11.548   6.879  72.269  1.00  0.00    -0.309 C  
HETATM    2  C   UNL     1     -12.268   7.750  71.247  1.00  0.00    -0.303 C  
HETATM    3  S   UNL     1     -14.060   7.794  71.609  1.00  0.00    -0.408 SA 
HETATM    4  H   UNL     1     -14.717   8.589  70.677  1.00  0.00     0.000 H  
ENDROOT
BRANCH   2   5
HETATM    5  C   UNL     1     -11.709   9.176  71.213  1.00  0.00    -0.326 C  
HETATM    6  O   UNL     1     -10.570   9.470  71.558  1.00  0.00    -0.323 OA 
HETATM    7  N   UNL     1     -12.561  10.109  70.642  1.00  0.00    -0.459 N  
HETATM    8  H   UNL     1     -13.425   9.802  70.193  1.00  0.00     0.000 HD 
BRANCH   7   9
HETATM    9  C   UNL     1     -12.226  11.536  70.681  1.00  0.00    -0.378 C  
HETATM   10  C   UNL     1     -11.908  12.118  69.304  1.00  0.00    -0.313 C  
HETATM   11  O   UNL     1     -11.615  13.289  69.110  1.00  0.00    -0.279 OA 
HETATM   12  O   UNL     1     -12.036  11.223  68.295  1.00  0.00    -0.619 OA 
ENDBRANCH   7   9
ENDBRANCH   2   5
TORSDOF 2
ENDMDL
MODEL       45
REMARK 921   NORMALIZED FREE ENERGY PREDICTED BY IDOCK:   -3.36 KCAL/MOL
REMARK 922        TOTAL FREE ENERGY PREDICTED BY IDOCK:   -3.84 KCAL/MOL
REMARK 923 INTER-LIGAND FREE ENERGY PREDICTED BY IDOCK:   -3.70 KCAL/MOL
REMARK 924 INTRA-LIGAND FREE ENERGY PREDICTED BY IDOCK:   -0.14 KCAL/MOL
REMARK 927      BINDING AFFINITY PREDICTED BY RF-SCORE:    0.00 PKD
ROOT
HETATM    1  C   UNL     1      -9.816   8.681  66.391  1.00  0.00    -0.341 C  
HETATM    2  C   UNL     1     -10.289  10.081  66.757  1.00  0.00    -0.217 C  
HETATM    3  S   UNL     1      -9.086  10.879  67.881  1.00  0.00    -0.152 SA 
HETATM    4  H   UNL     1      -9.518  12.156  68.215  1.00  0.00     0.000 H  
ENDROOT
BRANCH   2   5
HETATM    5  C   UNL     1     -10.502  10.957  65.519  1.00  0.00    -0.219 C  
HETATM    6  O   UNL     1     -10.526  10.523  64.373  1.00  0.00    -0.304 OA 
HETATM    7  N   UNL     1     -10.790  12.284  65.801  1.00  0.00    -0.269 N  
HETATM    8  H   UNL     1     -10.950  12.576  66.766  1.00  0.00     0.000 HD 
BRANCH   7   9
HETATM    9  C   UNL     1     -10.866  13.270  64.718  1.00  0.00    -0.360 C  
HETATM   10  C   UNL     1     -12.261  13.870  64.546  1.00  0.00    -0.417 C  
HETATM   11  O   UNL     1     -12.540  14.717  63.710  1.00  0.00    -0.806 OA 
HETATM   12  O   UNL     1     -13.161  13.417  65.451  1.00  0.00    -0.618 OA 
ENDBRANCH   7   9
ENDBRANCH   2   5
TORSDOF 2
ENDMDL
MODEL       46
REMARK 921   NORMALIZED FREE ENERGY PREDICTED BY IDOCK:   -3.36 KCAL/MOL
REMARK 922        TOTAL FREE ENERGY PREDICTED BY IDOCK:   -3.84 KCAL/MOL
REMARK 923 INTER-LIGAND FREE ENERGY PREDICTED BY IDOCK:   -3.71 KCAL/MOL
REMARK 924 INTRA-LIGAND FREE ENERGY PREDICTED BY IDOCK:   -0.13 KCAL/MOL
REMARK 927      BINDING AFFINITY PREDICTED BY RF-SCORE:    0.00 PKD
ROOT
HETATM    1  C   UNL     1     -10.305  14.849  66.008  1.00  0.00    -0.313 C  
HETATM    2  C   UNL     1     -11.705  14.392  66.396  1.00  0.00    -0.386 C  
HETATM    3  S   UNL     1     -12.196  12.947  65.388  1.00  0.00    -0.478 SA 
HETATM    4  H   UNL     1     -13.474  12.529  65.741  1.00  0.00     0.000 H  
ENDROOT
BRANCH   2   5
HETATM    5  C   UNL     1     -11.803  14.045  67.884  1.00  0.00    -0.376 C  
HETATM    6  O   UNL     1     -11.376  13.004  68.371  1.00  0.00    -0.252 OA 
HETATM    7  N   UNL     1     -12.314  15.063  68.675  1.00  0.00    -0.589 N  
HETATM    8  H   UNL     1     -12.484  15.985  68.271  1.00  0.00     0.000 HD 
BRANCH   7   9
HETATM    9  C   UNL     1     -12.609  14.821  70.091  1.00  0.00    -0.271 C  
HETATM   10  C   UNL     1     -11.651  15.543  71.038  1.00  0.00    -0.382 C  
HETATM   11  O   UNL     1     -11.726  15.485  72.257  1.00  0.00    -0.413 OA 
HETATM   12  O   UNL     1     -10.733  16.307  70.401  1.00  0.00    -0.250 OA 
ENDBRANCH   7   9
ENDBRANCH   2   5
TORSDOF 2
ENDMDL
MODEL       47
REMARK 921   NORMALIZED FREE ENERGY PREDICTED BY IDOCK:   -3.36 KCAL/MOL
REMARK 922        TOTAL FREE ENERGY PREDICTED BY IDOCK:   -3.84 KCAL/MOL
REMARK 923 INTER-LIGAND FREE ENERGY PREDICTED BY IDOCK:   -3.72 KCAL/MOL
REMARK 924 INTRA-LIGAND FREE ENERGY PREDICTED BY IDOCK:   -0.12 KCAL/MOL
REMARK 927      BINDING AFFINITY PREDICTED BY RF-SCORE:    0.00 PKD
ROOT
HETATM    1  C   UNL     1     -12.361  14.072  66.423  1.00  0.00    -0.468 C  
HETATM    2  C   UNL     1     -11.265  14.160  67.478  1.00  0.00    -0.306 C  
HETATM    3  S   UNL     1      -9.623  13.969  66.696  1.00  0.00    -0.294 SA 
HETATM    4  H   UNL     1      -8.623  14.049  67.658  1.00  0.00     0.000 H  
ENDROOT
BRANCH   2   5
HETATM    5  C   UNL     1     -11.321  15.480  68.253  1.00  0.00    -0.357 C  
HETATM    6  O   UNL     1     -12.064  15.679  69.207  1.00  0.00    -0.347 OA 
HETATM    7  N   UNL     1     -10.367  16.409  67.866  1.00  0.00    -0.276 N  
HETATM    8  H   UNL     1      -9.640  16.146  67.200  1.00  0.00     0.000 HD 
BRANCH   7   9
HETATM    9  C   UNL     1     -10.399  17.770  68.412  1.00  0.00    -0.376 C  
HETATM   10  C   UNL     1     -10.351  18.853  67.335  1.00  0.00    -0.427 C  
HETATM   11  O   UNL     1     -10.378  20.052  67.572  1.00  0.00    -0.401 OA 
HETATM   12  O   UNL     1     -10.332  18.361  66.073  1.00  0.00    -0.468 OA 
ENDBRANCH   7   9
ENDBRANCH   2   5
TORSDOF 2
ENDMDL
MODEL       48
REMARK 921   NORMALIZED FREE ENERGY PREDICTED BY IDOCK:   -3.34 KCAL/MOL
REMARK 922        TOTAL FREE ENERGY PREDICTED BY IDOCK:   -3.81 KCAL/MOL
REMARK 923 INTER-LIGAND FREE ENERGY PREDICTED BY IDOCK:   -3.69 KCAL/MOL
REMARK 924 INTRA-LIGAND FREE ENERGY PREDICTED BY IDOCK:   -0.12 KCAL/MOL
REMARK 927      BINDING AFFINITY PREDICTED BY RF-SCORE:    0.00 PKD
ROOT
HETATM    1  C   UNL     1     -12.623  13.215  71.059  1.00  0.00    -0.397 C  
HETATM    2  C   UNL     1     -11.809  12.202  70.264  1.00  0.00    -0.254 C  
HETATM    3  S   UNL     1     -12.304  10.501  70.717  1.00  0.00    -0.411 SA 
HETATM    4  H   UNL     1     -11.561   9.577  69.992  1.00  0.00     0.000 H  
ENDROOT
BRANCH   2   5
HETATM    5  C   UNL     1     -11.963  12.403  68.753  1.00  0.00    -0.229 C  
HETATM    6  O   UNL     1     -12.070  11.482  67.951  1.00  0.00    -0.630 OA 
HETATM    7  N   UNL     1     -12.093  13.727  68.363  1.00  0.00    -0.436 N  
HETATM    8  H   UNL     1     -12.190  14.458  69.069  1.00  0.00     0.000 HD 
BRANCH   7   9
HETATM    9  C   UNL     1     -12.093  14.082  66.940  1.00  0.00    -0.430 C  
HETATM   10  C   UNL     1     -10.950  15.019  66.553  1.00  0.00    -0.327 C  
HETATM   11  O   UNL     1     -10.760  15.428  65.417  1.00  0.00    -0.347 OA 
HETATM   12  O   UNL     1     -10.121  15.316  67.582  1.00  0.00    -0.232 OA 
ENDBRANCH   7   9
ENDBRANCH   2   5
TORSDOF 2
ENDMDL
MODEL       49
REMARK 921   NORMALIZED FREE ENERGY PREDICTED BY IDOCK:   -3.32 KCAL/MOL
REMARK 922        TOTAL FREE ENERGY PREDICTED BY IDOCK:   -3.80 KCAL/MOL
REMARK 923 INTER-LIGAND FREE ENERGY PREDICTED BY IDOCK:   -3.71 KCAL/MOL
REMARK 924 INTRA-LIGAND FREE ENERGY PREDICTED BY IDOCK:   -0.09 KCAL/MOL
REMARK 927      BINDING AFFINITY PREDICTED BY RF-SCORE:    0.00 PKD
ROOT
HETATM    1  C   UNL     1     -12.963  10.529  71.527  1.00  0.00    -0.565 C  
HETATM    2  C   UNL     1     -13.008   9.214  72.293  1.00  0.00    -0.420 C  
HETATM    3  S   UNL     1     -14.409   8.193  71.710  1.00  0.00    -0.491 SA 
HETATM    4  H   UNL     1     -14.449   6.993  72.409  1.00  0.00     0.000 H  
ENDROOT
BRANCH   2   5
HETATM    5  C   UNL     1     -11.700   8.427  72.158  1.00  0.00    -0.375 C  
HETATM    6  O   UNL     1     -10.598   8.951  72.039  1.00  0.00    -0.341 OA 
HETATM    7  N   UNL     1     -11.842   7.055  72.304  1.00  0.00    -0.401 N  
HETATM    8  H   UNL     1     -12.741   6.664  72.591  1.00  0.00     0.000 HD 
BRANCH   7   9
HETATM    9  C   UNL     1     -10.706   6.164  72.048  1.00  0.00    -0.233 C  
HETATM   10  C   UNL     1     -10.659   5.646  70.611  1.00  0.00    -0.277 C  
HETATM   11  O   UNL     1      -9.789   4.901  70.184  1.00  0.00    -0.197 OA 
HETATM   12  O   UNL     1     -11.646   6.138  69.825  1.00  0.00    -0.405 OA 
ENDBRANCH   7   9
ENDBRANCH   2   5
TORSDOF 2
ENDMDL
MODEL       50
REMARK 921   NORMALIZED FREE ENERGY PREDICTED BY IDOCK:   -3.32 KCAL/MOL
REMARK 922        TOTAL FREE ENERGY PREDICTED BY IDOCK:   -3.79 KCAL/MOL
REMARK 923 INTER-LIGAND FREE ENERGY PREDICTED BY IDOCK:   -3.64 KCAL/MOL
REMARK 924 INTRA-LIGAND FREE ENERGY PREDICTED BY IDOCK:   -0.15 KCAL/MOL
REMARK 927      BINDING AFFINITY PREDICTED BY RF-SCORE:    0.00 PKD
ROOT
HETATM    1  C   UNL     1     -11.166  13.395  68.518  1.00  0.00    -0.316 C  
HETATM    2  C   UNL     1     -10.576  13.555  67.123  1.00  0.00    -0.264 C  
HETATM    3  S   UNL     1     -11.887  13.377  65.860  1.00  0.00    -0.399 SA 
HETATM    4  H   UNL     1     -11.348  13.523  64.588  1.00  0.00     0.000 H  
ENDROOT
BRANCH   2   5
HETATM    5  C   UNL     1      -9.869  14.903  66.951  1.00  0.00    -0.240 C  
HETATM    6  O   UNL     1      -8.701  15.020  66.596  1.00  0.00    -0.265 OA 
HETATM    7  N   UNL     1     -10.695  16.005  67.114  1.00  0.00    -0.308 N  
HETATM    8  H   UNL     1     -11.701  15.876  67.222  1.00  0.00     0.000 HD 
BRANCH   7   9
HETATM    9  C   UNL     1     -10.127  17.358  67.131  1.00  0.00    -0.307 C  
HETATM   10  C   UNL     1     -10.405  18.144  65.850  1.00  0.00    -0.277 C  
HETATM   11  O   UNL     1     -10.031  19.292  65.661  1.00  0.00    -0.409 OA 
HETATM   12  O   UNL     1     -11.160  17.467  64.953  1.00  0.00    -0.860 OA 
ENDBRANCH   7   9
ENDBRANCH   2   5
TORSDOF 2
ENDMDL
MODEL       51
REMARK 921   NORMALIZED FREE ENERGY PREDICTED BY IDOCK:   -3.32 KCAL/MOL
REMARK 922        TOTAL FREE ENERGY PREDICTED BY IDOCK:   -3.79 KCAL/MOL
REMARK 923 INTER-LIGAND FREE ENERGY PREDICTED BY IDOCK:   -3.69 KCAL/MOL
REMARK 924 INTRA-LIGAND FREE ENERGY PREDICTED BY IDOCK:   -0.10 KCAL/MOL
REMARK 927      BINDING AFFINITY PREDICTED BY RF-SCORE:    0.00 PKD
ROOT
HETATM    1  C   UNL     1     -10.966  10.301  69.605  1.00  0.00    -0.314 C  
HETATM    2  C   UNL     1     -11.503   9.333  70.651  1.00  0.00    -0.274 C  
HETATM    3  S   UNL     1     -10.123   8.626  71.620  1.00  0.00    -0.323 SA 
HETATM    4  H   UNL     1     -10.612   7.743  72.575  1.00  0.00     0.000 H  
ENDROOT
BRANCH   2   5
HETATM    5  C   UNL     1     -12.508  10.005  71.592  1.00  0.00    -0.418 C  
HETATM    6  O   UNL     1     -13.105   9.414  72.485  1.00  0.00    -0.404 OA 
HETATM    7  N   UNL     1     -12.607  11.379  71.434  1.00  0.00    -0.362 N  
HETATM    8  H   UNL     1     -11.961  11.868  70.814  1.00  0.00     0.000 HD 
BRANCH   7   9
HETATM    9  C   UNL     1     -13.637  12.133  72.156  1.00  0.00    -0.183 C  
HETATM   10  C   UNL     1     -13.412  13.644  72.124  1.00  0.00    -0.512 C  
HETATM   11  O   UNL     1     -14.157  14.455  72.654  1.00  0.00    -0.553 OA 
HETATM   12  O   UNL     1     -12.329  14.015  71.400  1.00  0.00    -0.350 OA 
ENDBRANCH   7   9
ENDBRANCH   2   5
TORSDOF 2
ENDMDL
MODEL       52
REMARK 921   NORMALIZED FREE ENERGY PREDICTED BY IDOCK:   -3.31 KCAL/MOL
REMARK 922        TOTAL FREE ENERGY PREDICTED BY IDOCK:   -3.78 KCAL/MOL
REMARK 923 INTER-LIGAND FREE ENERGY PREDICTED BY IDOCK:   -3.66 KCAL/MOL
REMARK 924 INTRA-LIGAND FREE ENERGY PREDICTED BY IDOCK:   -0.12 KCAL/MOL
REMARK 927      BINDING AFFINITY PREDICTED BY RF-SCORE:    0.00 PKD
ROOT
HETATM    1  C   UNL     1     -10.745  12.878  63.945  1.00  0.00    -0.390 C  
HETATM    2  C   UNL     1     -11.628  13.588  64.962  1.00  0.00    -0.327 C  
HETATM    3  S   UNL     1     -11.710  12.619  66.511  1.00  0.00    -0.388 SA 
HETATM    4  H   UNL     1     -12.516  13.267  67.439  1.00  0.00     0.000 H  
ENDROOT
BRANCH   2   5
HETATM    5  C   UNL     1     -11.131  15.006  65.262  1.00  0.00    -0.386 C  
HETATM    6  O   UNL     1     -11.125  15.914  64.439  1.00  0.00    -0.486 OA 
HETATM    7  N   UNL     1     -10.795  15.224  66.590  1.00  0.00    -0.311 N  
HETATM    8  H   UNL     1     -10.990  14.505  67.288  1.00  0.00     0.000 HD 
BRANCH   7   9
HETATM    9  C   UNL     1     -10.161  16.483  66.994  1.00  0.00    -0.279 C  
HETATM   10  C   UNL     1     -10.671  17.011  68.334  1.00  0.00    -0.361 C  
HETATM   11  O   UNL     1     -10.267  18.039  68.859  1.00  0.00    -0.379 OA 
HETATM   12  O   UNL     1     -11.581  16.202  68.924  1.00  0.00    -0.357 OA 
ENDBRANCH   7   9
ENDBRANCH   2   5
TORSDOF 2
ENDMDL
MODEL       53
REMARK 921   NORMALIZED FREE ENERGY PREDICTED BY IDOCK:   -3.30 KCAL/MOL
REMARK 922        TOTAL FREE ENERGY PREDICTED BY IDOCK:   -3.77 KCAL/MOL
REMARK 923 INTER-LIGAND FREE ENERGY PREDICTED BY IDOCK:   -3.62 KCAL/MOL
REMARK 924 INTRA-LIGAND FREE ENERGY PREDICTED BY IDOCK:   -0.15 KCAL/MOL
REMARK 927      BINDING AFFINITY PREDICTED BY RF-SCORE:    0.00 PKD
ROOT
HETATM    1  C   UNL     1      -9.598  17.467  68.468  1.00  0.00    -0.298 C  
HETATM    2  C   UNL     1     -10.696  16.749  67.696  1.00  0.00    -0.305 C  
HETATM    3  S   UNL     1     -10.082  16.246  66.049  1.00  0.00    -0.368 SA 
HETATM    4  H   UNL     1     -11.085  15.590  65.344  1.00  0.00     0.000 H  
ENDROOT
BRANCH   2   5
HETATM    5  C   UNL     1     -11.222  15.523  68.451  1.00  0.00    -0.341 C  
HETATM    6  O   UNL     1     -12.142  15.564  69.260  1.00  0.00    -0.332 OA 
HETATM    7  N   UNL     1     -10.649  14.323  68.058  1.00  0.00    -0.235 N  
HETATM    8  H   UNL     1     -10.024  14.297  67.252  1.00  0.00     0.000 HD 
BRANCH   7   9
HETATM    9  C   UNL     1     -10.940  13.090  68.796  1.00  0.00    -0.258 C  
HETATM   10  C   UNL     1     -11.782  12.094  67.999  1.00  0.00    -0.344 C  
HETATM   11  O   UNL     1     -12.127  11.001  68.422  1.00  0.00    -0.594 OA 
HETATM   12  O   UNL     1     -12.069  12.512  66.743  1.00  0.00    -0.546 OA 
ENDBRANCH   7   9
ENDBRANCH   2   5
TORSDOF 2
ENDMDL
MODEL       54
REMARK 921   NORMALIZED FREE ENERGY PREDICTED BY IDOCK:   -3.30 KCAL/MOL
REMARK 922        TOTAL FREE ENERGY PREDICTED BY IDOCK:   -3.77 KCAL/MOL
REMARK 923 INTER-LIGAND FREE ENERGY PREDICTED BY IDOCK:   -3.66 KCAL/MOL
REMARK 924 INTRA-LIGAND FREE ENERGY PREDICTED BY IDOCK:   -0.11 KCAL/MOL
REMARK 927      BINDING AFFINITY PREDICTED BY RF-SCORE:    0.00 PKD
ROOT
HETATM    1  C   UNL     1      -8.552  15.945  68.514  1.00  0.00    -0.190 C  
HETATM    2  C   UNL     1      -9.890  16.569  68.889  1.00  0.00    -0.260 C  
HETATM    3  S   UNL     1     -10.101  18.169  68.030  1.00  0.00    -0.386 SA 
HETATM    4  H   UNL     1     -11.321  18.739  68.372  1.00  0.00     0.000 H  
ENDROOT
BRANCH   2   5
HETATM    5  C   UNL     1     -11.066  15.644  68.562  1.00  0.00    -0.322 C  
HETATM    6  O   UNL     1     -12.156  15.704  69.120  1.00  0.00    -0.344 OA 
HETATM    7  N   UNL     1     -10.844  14.798  67.486  1.00  0.00    -0.280 N  
HETATM    8  H   UNL     1     -10.000  14.902  66.922  1.00  0.00     0.000 HD 
BRANCH   7   9
HETATM    9  C   UNL     1     -11.819  13.753  67.155  1.00  0.00    -0.406 C  
HETATM   10  C   UNL     1     -12.030  13.581  65.651  1.00  0.00    -0.397 C  
HETATM   11  O   UNL     1     -12.790  12.760  65.160  1.00  0.00    -0.726 OA 
HETATM   12  O   UNL     1     -11.249  14.392  64.898  1.00  0.00    -0.352 OA 
ENDBRANCH   7   9
ENDBRANCH   2   5
TORSDOF 2
ENDMDL
MODEL       55
REMARK 921   NORMALIZED FREE ENERGY PREDICTED BY IDOCK:   -3.27 KCAL/MOL
REMARK 922        TOTAL FREE ENERGY PREDICTED BY IDOCK:   -3.74 KCAL/MOL
REMARK 923 INTER-LIGAND FREE ENERGY PREDICTED BY IDOCK:   -3.64 KCAL/MOL
REMARK 924 INTRA-LIGAND FREE ENERGY PREDICTED BY IDOCK:   -0.10 KCAL/MOL
REMARK 927      BINDING AFFINITY PREDICTED BY RF-SCORE:    0.00 PKD
ROOT
HETATM    1  C   UNL     1     -12.250  12.906  70.508  1.00  0.00    -0.395 C  
HETATM    2  C   UNL     1     -12.454  14.325  69.994  1.00  0.00    -0.300 C  
HETATM    3  S   UNL     1     -11.598  15.519  71.083  1.00  0.00    -0.437 SA 
HETATM    4  H   UNL     1     -11.783  16.813  70.614  1.00  0.00     0.000 H  
ENDROOT
BRANCH   2   5
HETATM    5  C   UNL     1     -11.959  14.489  68.553  1.00  0.00    -0.286 C  
HETATM    6  O   UNL     1     -12.137  13.656  67.672  1.00  0.00    -0.355 OA 
HETATM    7  N   UNL     1     -11.388  15.724  68.284  1.00  0.00    -0.358 N  
HETATM    8  H   UNL     1     -11.424  16.466  68.984  1.00  0.00     0.000 HD 
BRANCH   7   9
HETATM    9  C   UNL     1     -10.732  15.969  66.994  1.00  0.00    -0.277 C  
HETATM   10  C   UNL     1     -10.316  17.426  66.797  1.00  0.00    -0.305 C  
HETATM   11  O   UNL     1      -9.745  17.842  65.800  1.00  0.00    -0.527 OA 
HETATM   12  O   UNL     1     -10.587  18.216  67.863  1.00  0.00    -0.400 OA 
ENDBRANCH   7   9
ENDBRANCH   2   5
TORSDOF 2
ENDMDL
MODEL       56
REMARK 921   NORMALIZED FREE ENERGY PREDICTED BY IDOCK:   -3.27 KCAL/MOL
REMARK 922        TOTAL FREE ENERGY PREDICTED BY IDOCK:   -3.74 KCAL/MOL
REMARK 923 INTER-LIGAND FREE ENERGY PREDICTED BY IDOCK:   -3.59 KCAL/MOL
REMARK 924 INTRA-LIGAND FREE ENERGY PREDICTED BY IDOCK:   -0.15 KCAL/MOL
REMARK 927      BINDING AFFINITY PREDICTED BY RF-SCORE:    0.00 PKD
ROOT
HETATM    1  C   UNL     1     -12.874  10.458  71.045  1.00  0.00    -0.494 C  
HETATM    2  C   UNL     1     -11.561   9.715  71.253  1.00  0.00    -0.393 C  
HETATM    3  S   UNL     1     -11.886   7.954  71.625  1.00  0.00    -0.302 SA 
HETATM    4  H   UNL     1     -10.689   7.275  71.814  1.00  0.00     0.000 H  
ENDROOT
BRANCH   2   5
HETATM    5  C   UNL     1     -10.639   9.827  70.034  1.00  0.00    -0.276 C  
HETATM    6  O   UNL     1      -9.417   9.888  70.107  1.00  0.00    -0.237 OA 
HETATM    7  N   UNL     1     -11.293   9.732  68.814  1.00  0.00    -0.482 N  
HETATM    8  H   UNL     1     -12.285   9.492  68.785  1.00  0.00     0.000 HD 
BRANCH   7   9
HETATM    9  C   UNL     1     -10.564   9.975  67.565  1.00  0.00    -0.280 C  
HETATM   10  C   UNL     1     -11.009  11.247  66.845  1.00  0.00    -0.290 C  
HETATM   11  O   UNL     1     -10.524  11.641  65.795  1.00  0.00    -0.246 OA 
HETATM   12  O   UNL     1     -11.964  11.940  67.511  1.00  0.00    -0.586 OA 
ENDBRANCH   7   9
ENDBRANCH   2   5
TORSDOF 2
ENDMDL
MODEL       57
REMARK 921   NORMALIZED FREE ENERGY PREDICTED BY IDOCK:   -3.27 KCAL/MOL
REMARK 922        TOTAL FREE ENERGY PREDICTED BY IDOCK:   -3.74 KCAL/MOL
REMARK 923 INTER-LIGAND FREE ENERGY PREDICTED BY IDOCK:   -3.63 KCAL/MOL
REMARK 924 INTRA-LIGAND FREE ENERGY PREDICTED BY IDOCK:   -0.11 KCAL/MOL
REMARK 927      BINDING AFFINITY PREDICTED BY RF-SCORE:    0.00 PKD
ROOT
HETATM    1  C   UNL     1     -13.975   8.547  72.314  1.00  0.00    -0.423 C  
HETATM    2  C   UNL     1     -12.764   9.002  71.510  1.00  0.00    -0.339 C  
HETATM    3  S   UNL     1     -12.755  10.824  71.360  1.00  0.00    -0.443 SA 
HETATM    4  H   UNL     1     -11.650  11.239  70.627  1.00  0.00     0.000 H  
ENDROOT
BRANCH   2   5
HETATM    5  C   UNL     1     -11.449   8.525  72.136  1.00  0.00    -0.376 C  
HETATM    6  O   UNL     1     -10.362   9.047  71.917  1.00  0.00    -0.341 OA 
HETATM    7  N   UNL     1     -11.597   7.518  73.078  1.00  0.00    -0.612 N  
HETATM    8  H   UNL     1     -12.531   7.235  73.377  1.00  0.00     0.000 HD 
BRANCH   7   9
HETATM    9  C   UNL     1     -10.417   6.859  73.645  1.00  0.00    -0.369 C  
HETATM   10  C   UNL     1     -10.560   5.340  73.737  1.00  0.00    -0.287 C  
HETATM   11  O   UNL     1      -9.690   4.598  74.168  1.00  0.00    -0.124 OA 
HETATM   12  O   UNL     1     -11.731   4.876  73.238  1.00  0.00    -0.312 OA 
ENDBRANCH   7   9
ENDBRANCH   2   5
TORSDOF 2
ENDMDL
MODEL       58
REMARK 921   NORMALIZED FREE ENERGY PREDICTED BY IDOCK:   -3.24 KCAL/MOL
REMARK 922        TOTAL FREE ENERGY PREDICTED BY IDOCK:   -3.70 KCAL/MOL
REMARK 923 INTER-LIGAND FREE ENERGY PREDICTED BY IDOCK:   -3.59 KCAL/MOL
REMARK 924 INTRA-LIGAND FREE ENERGY PREDICTED BY IDOCK:   -0.11 KCAL/MOL
REMARK 927      BINDING AFFINITY PREDICTED BY RF-SCORE:    0.00 PKD
ROOT
HETATM    1  C   UNL     1     -13.088  12.133  72.012  1.00  0.00    -0.462 C  
HETATM    2  C   UNL     1     -13.225  10.875  71.165  1.00  0.00    -0.128 C  
HETATM    3  S   UNL     1     -11.966  10.868  69.839  1.00  0.00    -0.375 SA 
HETATM    4  H   UNL     1     -12.090   9.719  69.067  1.00  0.00     0.000 H  
ENDROOT
BRANCH   2   5
HETATM    5  C   UNL     1     -13.100   9.601  72.007  1.00  0.00    -0.445 C  
HETATM    6  O   UNL     1     -14.038   9.082  72.603  1.00  0.00    -0.516 OA 
HETATM    7  N   UNL     1     -11.852   8.999  71.949  1.00  0.00    -0.365 N  
HETATM    8  H   UNL     1     -11.148   9.348  71.296  1.00  0.00     0.000 HD 
BRANCH   7   9
HETATM    9  C   UNL     1     -11.539   7.862  72.821  1.00  0.00    -0.329 C  
HETATM   10  C   UNL     1     -11.721   6.509  72.136  1.00  0.00    -0.311 C  
HETATM   11  O   UNL     1     -11.504   5.435  72.680  1.00  0.00    -0.283 OA 
HETATM   12  O   UNL     1     -12.096   6.605  70.838  1.00  0.00    -0.377 OA 
ENDBRANCH   7   9
ENDBRANCH   2   5
TORSDOF 2
ENDMDL
MODEL       59
REMARK 921   NORMALIZED FREE ENERGY PREDICTED BY IDOCK:   -3.24 KCAL/MOL
REMARK 922        TOTAL FREE ENERGY PREDICTED BY IDOCK:   -3.70 KCAL/MOL
REMARK 923 INTER-LIGAND FREE ENERGY PREDICTED BY IDOCK:   -3.58 KCAL/MOL
REMARK 924 INTRA-LIGAND FREE ENERGY PREDICTED BY IDOCK:   -0.12 KCAL/MOL
REMARK 927      BINDING AFFINITY PREDICTED BY RF-SCORE:    0.00 PKD
ROOT
HETATM    1  C   UNL     1     -10.286  10.932  64.913  1.00  0.00    -0.381 C  
HETATM    2  C   UNL     1     -10.900  12.326  64.905  1.00  0.00    -0.302 C  
HETATM    3  S   UNL     1     -12.215  12.427  63.638  1.00  0.00    -0.567 SA 
HETATM    4  H   UNL     1     -12.776  13.698  63.631  1.00  0.00     0.000 H  
ENDROOT
BRANCH   2   5
HETATM    5  C   UNL     1     -11.467  12.711  66.275  1.00  0.00    -0.364 C  
HETATM    6  O   UNL     1     -12.051  11.928  67.015  1.00  0.00    -0.600 OA 
HETATM    7  N   UNL     1     -11.162  14.003  66.676  1.00  0.00    -0.316 N  
HETATM    8  H   UNL     1     -10.516  14.568  66.124  1.00  0.00     0.000 HD 
BRANCH   7   9
HETATM    9  C   UNL     1     -11.766  14.561  67.891  1.00  0.00    -0.351 C  
HETATM   10  C   UNL     1     -10.736  14.939  68.956  1.00  0.00    -0.247 C  
HETATM   11  O   UNL     1     -11.024  15.430  70.037  1.00  0.00    -0.256 OA 
HETATM   12  O   UNL     1      -9.455  14.732  68.568  1.00  0.00    -0.201 OA 
ENDBRANCH   7   9
ENDBRANCH   2   5
TORSDOF 2
ENDMDL
MODEL       60
REMARK 921   NORMALIZED FREE ENERGY PREDICTED BY IDOCK:   -3.21 KCAL/MOL
REMARK 922        TOTAL FREE ENERGY PREDICTED BY IDOCK:   -3.67 KCAL/MOL
REMARK 923 INTER-LIGAND FREE ENERGY PREDICTED BY IDOCK:   -3.54 KCAL/MOL
REMARK 924 INTRA-LIGAND FREE ENERGY PREDICTED BY IDOCK:   -0.13 KCAL/MOL
REMARK 927      BINDING AFFINITY PREDICTED BY RF-SCORE:    0.00 PKD
ROOT
HETATM    1  C   UNL     1     -10.071  11.331  63.591  1.00  0.00    -0.432 C  
HETATM    2  C   UNL     1     -11.069  12.467  63.767  1.00  0.00    -0.445 C  
HETATM    3  S   UNL     1     -12.769  11.865  63.461  1.00  0.00    -0.179 SA 
HETATM    4  H   UNL     1     -13.680  12.902  63.621  1.00  0.00     0.000 H  
ENDROOT
BRANCH   2   5
HETATM    5  C   UNL     1     -10.984  13.094  65.163  1.00  0.00    -0.298 C  
HETATM    6  O   UNL     1     -10.086  13.849  65.517  1.00  0.00    -0.309 OA 
HETATM    7  N   UNL     1     -12.080  12.836  65.972  1.00  0.00    -0.430 N  
HETATM    8  H   UNL     1     -12.898  12.362  65.586  1.00  0.00     0.000 HD 
BRANCH   7   9
HETATM    9  C   UNL     1     -12.069  13.240  67.382  1.00  0.00    -0.278 C  
HETATM   10  C   UNL     1     -11.884  12.067  68.344  1.00  0.00    -0.300 C  
HETATM   11  O   UNL     1     -11.835  12.185  69.559  1.00  0.00    -0.306 OA 
HETATM   12  O   UNL     1     -11.722  10.876  67.721  1.00  0.00    -0.569 OA 
ENDBRANCH   7   9
ENDBRANCH   2   5
TORSDOF 2
ENDMDL
MODEL       61
REMARK 921   NORMALIZED FREE ENERGY PREDICTED BY IDOCK:   -3.21 KCAL/MOL
REMARK 922        TOTAL FREE ENERGY PREDICTED BY IDOCK:   -3.67 KCAL/MOL
REMARK 923 INTER-LIGAND FREE ENERGY PREDICTED BY IDOCK:   -3.52 KCAL/MOL
REMARK 924 INTRA-LIGAND FREE ENERGY PREDICTED BY IDOCK:   -0.16 KCAL/MOL
REMARK 927      BINDING AFFINITY PREDICTED BY RF-SCORE:    0.00 PKD
ROOT
HETATM    1  C   UNL     1      -9.348  11.610  68.274  1.00  0.00    -0.191 C  
HETATM    2  C   UNL     1      -9.253  12.077  66.827  1.00  0.00    -0.201 C  
HETATM    3  S   UNL     1     -10.413  11.125  65.781  1.00  0.00    -0.224 SA 
HETATM    4  H   UNL     1     -10.327  11.550  64.461  1.00  0.00     0.000 H  
ENDROOT
BRANCH   2   5
HETATM    5  C   UNL     1      -9.539  13.576  66.688  1.00  0.00    -0.278 C  
HETATM    6  O   UNL     1      -9.646  14.341  67.640  1.00  0.00    -0.212 OA 
HETATM    7  N   UNL     1      -9.550  14.035  65.379  1.00  0.00    -0.552 N  
HETATM    8  H   UNL     1      -9.270  13.413  64.619  1.00  0.00     0.000 HD 
BRANCH   7   9
HETATM    9  C   UNL     1      -9.960  15.412  65.083  1.00  0.00    -0.194 C  
HETATM   10  C   UNL     1     -11.298  15.496  64.349  1.00  0.00    -0.252 C  
HETATM   11  O   UNL     1     -11.827  16.547  64.017  1.00  0.00    -1.022 OA 
HETATM   12  O   UNL     1     -11.880  14.291  64.143  1.00  0.00    -0.389 OA 
ENDBRANCH   7   9
ENDBRANCH   2   5
TORSDOF 2
ENDMDL
MODEL       62
REMARK 921   NORMALIZED FREE ENERGY PREDICTED BY IDOCK:   -3.21 KCAL/MOL
REMARK 922        TOTAL FREE ENERGY PREDICTED BY IDOCK:   -3.67 KCAL/MOL
REMARK 923 INTER-LIGAND FREE ENERGY PREDICTED BY IDOCK:   -3.53 KCAL/MOL
REMARK 924 INTRA-LIGAND FREE ENERGY PREDICTED BY IDOCK:   -0.14 KCAL/MOL
REMARK 927      BINDING AFFINITY PREDICTED BY RF-SCORE:    0.00 PKD
ROOT
HETATM    1  C   UNL     1      -8.677  14.227  67.039  1.00  0.00    -0.231 C  
HETATM    2  C   UNL     1      -9.849  14.568  66.129  1.00  0.00    -0.318 C  
HETATM    3  S   UNL     1     -11.421  14.052  66.909  1.00  0.00    -0.375 SA 
HETATM    4  H   UNL     1     -12.492  14.363  66.079  1.00  0.00     0.000 H  
ENDROOT
BRANCH   2   5
HETATM    5  C   UNL     1      -9.901  16.062  65.796  1.00  0.00    -0.323 C  
HETATM    6  O   UNL     1     -10.616  16.542  64.923  1.00  0.00    -0.689 OA 
HETATM    7  N   UNL     1      -9.156  16.863  66.649  1.00  0.00    -0.241 N  
HETATM    8  H   UNL     1      -8.724  16.458  67.480  1.00  0.00     0.000 HD 
BRANCH   7   9
HETATM    9  C   UNL     1      -8.987  18.291  66.360  1.00  0.00    -0.243 C  
HETATM   10  C   UNL     1      -9.688  19.197  67.372  1.00  0.00    -0.320 C  
HETATM   11  O   UNL     1      -9.664  20.418  67.324  1.00  0.00    -0.419 OA 
HETATM   12  O   UNL     1     -10.299  18.520  68.373  1.00  0.00    -0.371 OA 
ENDBRANCH   7   9
ENDBRANCH   2   5
TORSDOF 2
ENDMDL
MODEL       63
REMARK 921   NORMALIZED FREE ENERGY PREDICTED BY IDOCK:   -3.21 KCAL/MOL
REMARK 922        TOTAL FREE ENERGY PREDICTED BY IDOCK:   -3.67 KCAL/MOL
REMARK 923 INTER-LIGAND FREE ENERGY PREDICTED BY IDOCK:   -3.54 KCAL/MOL
REMARK 924 INTRA-LIGAND FREE ENERGY PREDICTED BY IDOCK:   -0.13 KCAL/MOL
REMARK 927      BINDING AFFINITY PREDICTED BY RF-SCORE:    0.00 PKD
ROOT
HETATM    1  C   UNL     1     -11.012   6.400  68.354  1.00  0.00    -0.390 C  
HETATM    2  C   UNL     1     -10.658   5.688  69.653  1.00  0.00    -0.331 C  
HETATM    3  S   UNL     1      -8.870   5.861  69.999  1.00  0.00    -0.138 SA 
HETATM    4  H   UNL     1      -8.547   5.212  71.184  1.00  0.00     0.000 H  
ENDROOT
BRANCH   2   5
HETATM    5  C   UNL     1     -11.470   6.221  70.838  1.00  0.00    -0.312 C  
HETATM    6  O   UNL     1     -11.082   6.187  72.000  1.00  0.00    -0.248 OA 
HETATM    7  N   UNL     1     -12.646   6.863  70.481  1.00  0.00    -0.553 N  
HETATM    8  H   UNL     1     -12.849   7.043  69.497  1.00  0.00     0.000 HD 
BRANCH   7   9
HETATM    9  C   UNL     1     -13.598   7.287  71.513  1.00  0.00    -0.356 C  
HETATM   10  C   UNL     1     -13.502   8.775  71.848  1.00  0.00    -0.404 C  
HETATM   11  O   UNL     1     -14.211   9.335  72.671  1.00  0.00    -0.498 OA 
HETATM   12  O   UNL     1     -12.587   9.439  71.102  1.00  0.00    -0.314 OA 
ENDBRANCH   7   9
ENDBRANCH   2   5
TORSDOF 2
ENDMDL
MODEL       64
REMARK 921   NORMALIZED FREE ENERGY PREDICTED BY IDOCK:   -3.20 KCAL/MOL
REMARK 922        TOTAL FREE ENERGY PREDICTED BY IDOCK:   -3.67 KCAL/MOL
REMARK 923 INTER-LIGAND FREE ENERGY PREDICTED BY IDOCK:   -3.56 KCAL/MOL
REMARK 924 INTRA-LIGAND FREE ENERGY PREDICTED BY IDOCK:   -0.10 KCAL/MOL
REMARK 927      BINDING AFFINITY PREDICTED BY RF-SCORE:    0.00 PKD
ROOT
HETATM    1  C   UNL     1     -10.385  11.709  65.595  1.00  0.00    -0.306 C  
HETATM    2  C   UNL     1     -10.547  12.905  64.667  1.00  0.00    -0.363 C  
HETATM    3  S   UNL     1     -11.914  12.609  63.490  1.00  0.00    -0.549 SA 
HETATM    4  H   UNL     1     -12.062  13.700  62.643  1.00  0.00     0.000 H  
ENDROOT
BRANCH   2   5
HETATM    5  C   UNL     1     -10.801  14.203  65.442  1.00  0.00    -0.337 C  
HETATM    6  O   UNL     1     -10.988  15.290  64.908  1.00  0.00    -0.408 OA 
HETATM    7  N   UNL     1     -10.926  14.033  66.813  1.00  0.00    -0.294 N  
HETATM    8  H   UNL     1     -10.954  13.093  67.209  1.00  0.00     0.000 HD 
BRANCH   7   9
HETATM    9  C   UNL     1     -11.017  15.200  67.696  1.00  0.00    -0.308 C  
HETATM   10  C   UNL     1     -11.775  14.918  68.992  1.00  0.00    -0.319 C  
HETATM   11  O   UNL     1     -11.955  15.748  69.871  1.00  0.00    -0.355 OA 
HETATM   12  O   UNL     1     -12.186  13.633  69.110  1.00  0.00    -0.326 OA 
ENDBRANCH   7   9
ENDBRANCH   2   5
TORSDOF 2
ENDMDL
MODEL       65
REMARK 921   NORMALIZED FREE ENERGY PREDICTED BY IDOCK:   -3.20 KCAL/MOL
REMARK 922        TOTAL FREE ENERGY PREDICTED BY IDOCK:   -3.66 KCAL/MOL
REMARK 923 INTER-LIGAND FREE ENERGY PREDICTED BY IDOCK:   -3.54 KCAL/MOL
REMARK 924 INTRA-LIGAND FREE ENERGY PREDICTED BY IDOCK:   -0.12 KCAL/MOL
REMARK 927      BINDING AFFINITY PREDICTED BY RF-SCORE:    0.00 PKD
ROOT
HETATM    1  C   UNL     1      -9.832  17.191  66.241  1.00  0.00    -0.306 C  
HETATM    2  C   UNL     1      -9.788  18.711  66.156  1.00  0.00    -0.287 C  
HETATM    3  S   UNL     1     -10.760  19.446  67.520  1.00  0.00    -0.390 SA 
HETATM    4  H   UNL     1     -10.720  20.832  67.443  1.00  0.00     0.000 H  
ENDROOT
BRANCH   2   5
HETATM    5  C   UNL     1      -8.353  19.246  66.194  1.00  0.00    -0.273 C  
HETATM    6  O   UNL     1      -7.433  18.778  65.532  1.00  0.00    -0.493 OA 
HETATM    7  N   UNL     1      -8.193  20.395  66.955  1.00  0.00    -0.472 N  
HETATM    8  H   UNL     1      -9.011  20.869  67.340  1.00  0.00     0.000 HD 
BRANCH   7   9
HETATM    9  C   UNL     1      -6.851  20.931  67.208  1.00  0.00    -0.365 C  
HETATM   10  C   UNL     1      -6.289  20.530  68.571  1.00  0.00    -0.306 C  
HETATM   11  O   UNL     1      -5.184  20.860  68.976  1.00  0.00    -0.293 OA 
HETATM   12  O   UNL     1      -7.111  19.718  69.277  1.00  0.00    -0.352 OA 
ENDBRANCH   7   9
ENDBRANCH   2   5
TORSDOF 2
ENDMDL
MODEL       66
REMARK 921   NORMALIZED FREE ENERGY PREDICTED BY IDOCK:   -3.18 KCAL/MOL
REMARK 922        TOTAL FREE ENERGY PREDICTED BY IDOCK:   -3.63 KCAL/MOL
REMARK 923 INTER-LIGAND FREE ENERGY PREDICTED BY IDOCK:   -3.53 KCAL/MOL
REMARK 924 INTRA-LIGAND FREE ENERGY PREDICTED BY IDOCK:   -0.11 KCAL/MOL
REMARK 927      BINDING AFFINITY PREDICTED BY RF-SCORE:    0.00 PKD
ROOT
HETATM    1  C   UNL     1     -11.454   6.653  70.021  1.00  0.00    -0.434 C  
HETATM    2  C   UNL     1     -11.790   7.681  71.092  1.00  0.00    -0.293 C  
HETATM    3  S   UNL     1     -11.069   7.178  72.696  1.00  0.00    -0.296 SA 
HETATM    4  H   UNL     1     -11.375   8.116  73.674  1.00  0.00     0.000 H  
ENDROOT
BRANCH   2   5
HETATM    5  C   UNL     1     -11.297   9.082  70.717  1.00  0.00    -0.277 C  
HETATM    6  O   UNL     1     -10.120   9.421  70.748  1.00  0.00    -0.263 OA 
HETATM    7  N   UNL     1     -12.284   9.919  70.218  1.00  0.00    -0.479 N  
HETATM    8  H   UNL     1     -13.216   9.550  70.027  1.00  0.00     0.000 HD 
BRANCH   7   9
HETATM    9  C   UNL     1     -11.992  11.334  69.963  1.00  0.00    -0.368 C  
HETATM   10  C   UNL     1     -12.614  12.273  70.996  1.00  0.00    -0.257 C  
HETATM   11  O   UNL     1     -12.485  13.488  70.976  1.00  0.00    -0.360 OA 
HETATM   12  O   UNL     1     -13.283  11.628  71.981  1.00  0.00    -0.501 OA 
ENDBRANCH   7   9
ENDBRANCH   2   5
TORSDOF 2
ENDMDL
MODEL       67
REMARK 921   NORMALIZED FREE ENERGY PREDICTED BY IDOCK:   -3.17 KCAL/MOL
REMARK 922        TOTAL FREE ENERGY PREDICTED BY IDOCK:   -3.62 KCAL/MOL
REMARK 923 INTER-LIGAND FREE ENERGY PREDICTED BY IDOCK:   -3.59 KCAL/MOL
REMARK 924 INTRA-LIGAND FREE ENERGY PREDICTED BY IDOCK:   -0.04 KCAL/MOL
REMARK 927      BINDING AFFINITY PREDICTED BY RF-SCORE:    0.00 PKD
ROOT
HETATM    1  C   UNL     1      -9.830   7.047  73.875  1.00  0.00    -0.354 C  
HETATM    2  C   UNL     1     -10.462   6.220  72.764  1.00  0.00    -0.214 C  
HETATM    3  S   UNL     1     -11.081   4.634  73.432  1.00  0.00    -0.334 SA 
HETATM    4  H   UNL     1     -11.658   3.880  72.418  1.00  0.00     0.000 H  
ENDROOT
BRANCH   2   5
HETATM    5  C   UNL     1     -11.602   6.971  72.068  1.00  0.00    -0.285 C  
HETATM    6  O   UNL     1     -12.138   6.589  71.034  1.00  0.00    -0.352 OA 
HETATM    7  N   UNL     1     -12.071   8.072  72.768  1.00  0.00    -0.615 N  
HETATM    8  H   UNL     1     -11.734   8.255  73.714  1.00  0.00     0.000 HD 
BRANCH   7   9
HETATM    9  C   UNL     1     -13.052   8.974  72.156  1.00  0.00    -0.435 C  
HETATM   10  C   UNL     1     -12.411  10.099  71.344  1.00  0.00    -0.416 C  
HETATM   11  O   UNL     1     -13.046  10.953  70.743  1.00  0.00    -0.272 OA 
HETATM   12  O   UNL     1     -11.059  10.034  71.303  1.00  0.00    -0.309 OA 
ENDBRANCH   7   9
ENDBRANCH   2   5
TORSDOF 2
ENDMDL
MODEL       68
REMARK 921   NORMALIZED FREE ENERGY PREDICTED BY IDOCK:   -3.15 KCAL/MOL
REMARK 922        TOTAL FREE ENERGY PREDICTED BY IDOCK:   -3.60 KCAL/MOL
REMARK 923 INTER-LIGAND FREE ENERGY PREDICTED BY IDOCK:   -3.48 KCAL/MOL
REMARK 924 INTRA-LIGAND FREE ENERGY PREDICTED BY IDOCK:   -0.12 KCAL/MOL
REMARK 927      BINDING AFFINITY PREDICTED BY RF-SCORE:    0.00 PKD
ROOT
HETATM    1  C   UNL     1     -12.445  13.415  70.635  1.00  0.00    -0.385 C  
HETATM    2  C   UNL     1     -12.403  14.936  70.696  1.00  0.00    -0.344 C  
HETATM    3  S   UNL     1     -12.180  15.490  72.425  1.00  0.00    -0.464 SA 
HETATM    4  H   UNL     1     -12.141  16.878  72.481  1.00  0.00     0.000 H  
ENDROOT
BRANCH   2   5
HETATM    5  C   UNL     1     -11.288  15.515  69.818  1.00  0.00    -0.319 C  
HETATM    6  O   UNL     1     -10.100  15.484  70.116  1.00  0.00    -0.298 OA 
HETATM    7  N   UNL     1     -11.718  15.978  68.583  1.00  0.00    -0.356 N  
HETATM    8  H   UNL     1     -12.681  15.819  68.287  1.00  0.00     0.000 HD 
BRANCH   7   9
HETATM    9  C   UNL     1     -10.792  16.697  67.702  1.00  0.00    -0.258 C  
HETATM   10  C   UNL     1     -10.282  15.845  66.540  1.00  0.00    -0.290 C  
HETATM   11  O   UNL     1      -9.511  16.252  65.684  1.00  0.00    -0.463 OA 
HETATM   12  O   UNL     1     -10.810  14.598  66.511  1.00  0.00    -0.303 OA 
ENDBRANCH   7   9
ENDBRANCH   2   5
TORSDOF 2
ENDMDL
MODEL       69
REMARK 921   NORMALIZED FREE ENERGY PREDICTED BY IDOCK:   -3.14 KCAL/MOL
REMARK 922        TOTAL FREE ENERGY PREDICTED BY IDOCK:   -3.59 KCAL/MOL
REMARK 923 INTER-LIGAND FREE ENERGY PREDICTED BY IDOCK:   -3.45 KCAL/MOL
REMARK 924 INTRA-LIGAND FREE ENERGY PREDICTED BY IDOCK:   -0.15 KCAL/MOL
REMARK 927      BINDING AFFINITY PREDICTED BY RF-SCORE:    0.00 PKD
ROOT
HETATM    1  C   UNL     1     -11.698  11.967  67.006  1.00  0.00    -0.341 C  
HETATM    2  C   UNL     1     -11.102  13.010  66.070  1.00  0.00    -0.278 C  
HETATM    3  S   UNL     1     -12.432  14.009  65.311  1.00  0.00    -0.458 SA 
HETATM    4  H   UNL     1     -11.889  14.960  64.456  1.00  0.00     0.000 H  
ENDROOT
BRANCH   2   5
HETATM    5  C   UNL     1     -10.109  13.928  66.790  1.00  0.00    -0.265 C  
HETATM    6  O   UNL     1      -9.883  13.876  67.994  1.00  0.00    -0.220 OA 
HETATM    7  N   UNL     1      -9.384  14.758  65.948  1.00  0.00    -0.508 N  
HETATM    8  H   UNL     1      -9.458  14.645  64.936  1.00  0.00     0.000 HD 
BRANCH   7   9
HETATM    9  C   UNL     1      -8.512  15.796  66.506  1.00  0.00    -0.300 C  
HETATM   10  C   UNL     1      -9.007  17.214  66.226  1.00  0.00    -0.228 C  
HETATM   11  O   UNL     1      -8.436  18.224  66.611  1.00  0.00    -0.250 OA 
HETATM   12  O   UNL     1     -10.182  17.254  65.554  1.00  0.00    -0.602 OA 
ENDBRANCH   7   9
ENDBRANCH   2   5
TORSDOF 2
ENDMDL
MODEL       70
REMARK 921   NORMALIZED FREE ENERGY PREDICTED BY IDOCK:   -3.11 KCAL/MOL
REMARK 922        TOTAL FREE ENERGY PREDICTED BY IDOCK:   -3.57 KCAL/MOL
REMARK 923 INTER-LIGAND FREE ENERGY PREDICTED BY IDOCK:   -3.42 KCAL/MOL
REMARK 924 INTRA-LIGAND FREE ENERGY PREDICTED BY IDOCK:   -0.14 KCAL/MOL
REMARK 927      BINDING AFFINITY PREDICTED BY RF-SCORE:    0.00 PKD
ROOT
HETATM    1  C   UNL     1      -9.319  19.821  68.362  1.00  0.00    -0.396 C  
HETATM    2  C   UNL     1      -9.296  19.553  66.863  1.00  0.00    -0.346 C  
HETATM    3  S   UNL     1      -7.572  19.376  66.281  1.00  0.00    -0.299 SA 
HETATM    4  H   UNL     1      -7.551  19.131  64.913  1.00  0.00     0.000 H  
ENDROOT
BRANCH   2   5
HETATM    5  C   UNL     1     -10.101  18.304  66.491  1.00  0.00    -0.385 C  
HETATM    6  O   UNL     1     -10.743  18.191  65.453  1.00  0.00    -0.620 OA 
HETATM    7  N   UNL     1      -9.951  17.245  67.374  1.00  0.00    -0.270 N  
HETATM    8  H   UNL     1      -9.263  17.303  68.126  1.00  0.00     0.000 HD 
BRANCH   7   9
HETATM    9  C   UNL     1     -10.778  16.042  67.231  1.00  0.00    -0.295 C  
HETATM   10  C   UNL     1     -10.006  14.843  66.681  1.00  0.00    -0.258 C  
HETATM   11  O   UNL     1     -10.502  13.741  66.495  1.00  0.00    -0.276 OA 
HETATM   12  O   UNL     1      -8.693  15.096  66.466  1.00  0.00    -0.278 OA 
ENDBRANCH   7   9
ENDBRANCH   2   5
TORSDOF 2
ENDMDL
MODEL       71
REMARK 921   NORMALIZED FREE ENERGY PREDICTED BY IDOCK:   -3.11 KCAL/MOL
REMARK 922        TOTAL FREE ENERGY PREDICTED BY IDOCK:   -3.56 KCAL/MOL
REMARK 923 INTER-LIGAND FREE ENERGY PREDICTED BY IDOCK:   -3.45 KCAL/MOL
REMARK 924 INTRA-LIGAND FREE ENERGY PREDICTED BY IDOCK:   -0.11 KCAL/MOL
REMARK 927      BINDING AFFINITY PREDICTED BY RF-SCORE:    0.00 PKD
ROOT
HETATM    1  C   UNL     1     -10.927   6.272  67.005  1.00  0.00    -0.442 C  
HETATM    2  C   UNL     1     -10.334   7.027  68.186  1.00  0.00    -0.191 C  
HETATM    3  S   UNL     1     -10.380   8.828  67.870  1.00  0.00    -0.213 SA 
HETATM    4  H   UNL     1      -9.839   9.517  68.948  1.00  0.00     0.000 H  
ENDROOT
BRANCH   2   5
HETATM    5  C   UNL     1     -11.065   6.711  69.495  1.00  0.00    -0.322 C  
HETATM    6  O   UNL     1     -11.063   5.607  70.027  1.00  0.00    -0.310 OA 
HETATM    7  N   UNL     1     -11.641   7.814  70.108  1.00  0.00    -0.479 N  
HETATM    8  H   UNL     1     -11.465   8.750  69.740  1.00  0.00     0.000 HD 
BRANCH   7   9
HETATM    9  C   UNL     1     -12.502   7.641  71.282  1.00  0.00    -0.298 C  
HETATM   10  C   UNL     1     -13.192   8.932  71.719  1.00  0.00    -0.378 C  
HETATM   11  O   UNL     1     -13.960   9.007  72.667  1.00  0.00    -0.463 OA 
HETATM   12  O   UNL     1     -12.919   9.990  70.919  1.00  0.00    -0.356 OA 
ENDBRANCH   7   9
ENDBRANCH   2   5
TORSDOF 2
ENDMDL
MODEL       72
REMARK 921   NORMALIZED FREE ENERGY PREDICTED BY IDOCK:   -3.08 KCAL/MOL
REMARK 922        TOTAL FREE ENERGY PREDICTED BY IDOCK:   -3.52 KCAL/MOL
REMARK 923 INTER-LIGAND FREE ENERGY PREDICTED BY IDOCK:   -3.43 KCAL/MOL
REMARK 924 INTRA-LIGAND FREE ENERGY PREDICTED BY IDOCK:   -0.09 KCAL/MOL
REMARK 927      BINDING AFFINITY PREDICTED BY RF-SCORE:    0.00 PKD
ROOT
HETATM    1  C   UNL     1     -11.251   4.566  73.219  1.00  0.00    -0.388 C  
HETATM    2  C   UNL     1     -10.438   5.545  74.054  1.00  0.00    -0.279 C  
HETATM    3  S   UNL     1      -8.689   5.013  74.125  1.00  0.00    -0.113 SA 
HETATM    4  H   UNL     1      -7.947   5.907  74.887  1.00  0.00     0.000 H  
ENDROOT
BRANCH   2   5
HETATM    5  C   UNL     1     -10.524   6.974  73.508  1.00  0.00    -0.375 C  
HETATM    6  O   UNL     1      -9.632   7.806  73.632  1.00  0.00    -0.286 OA 
HETATM    7  N   UNL     1     -11.655   7.227  72.747  1.00  0.00    -0.533 N  
HETATM    8  H   UNL     1     -12.286   6.462  72.504  1.00  0.00     0.000 HD 
BRANCH   7   9
HETATM    9  C   UNL     1     -11.949   8.589  72.290  1.00  0.00    -0.385 C  
HETATM   10  C   UNL     1     -13.332   8.727  71.654  1.00  0.00    -0.359 C  
HETATM   11  O   UNL     1     -13.779   9.777  71.218  1.00  0.00    -0.301 OA 
HETATM   12  O   UNL     1     -14.050   7.579  71.668  1.00  0.00    -0.411 OA 
ENDBRANCH   7   9
ENDBRANCH   2   5
TORSDOF 2
ENDMDL
MODEL       73
REMARK 921   NORMALIZED FREE ENERGY PREDICTED BY IDOCK:   -3.08 KCAL/MOL
REMARK 922        TOTAL FREE ENERGY PREDICTED BY IDOCK:   -3.52 KCAL/MOL
REMARK 923 INTER-LIGAND FREE ENERGY PREDICTED BY IDOCK:   -3.45 KCAL/MOL
REMARK 924 INTRA-LIGAND FREE ENERGY PREDICTED BY IDOCK:   -0.08 KCAL/MOL
REMARK 927      BINDING AFFINITY PREDICTED BY RF-SCORE:    0.00 PKD
ROOT
HETATM    1  C   UNL     1      -9.993   7.060  69.647  1.00  0.00    -0.177 C  
HETATM    2  C   UNL     1     -11.279   7.493  70.338  1.00  0.00    -0.253 C  
HETATM    3  S   UNL     1     -11.557   6.484  71.839  1.00  0.00    -0.323 SA 
HETATM    4  H   UNL     1     -12.731   6.879  72.469  1.00  0.00     0.000 H  
ENDROOT
BRANCH   2   5
HETATM    5  C   UNL     1     -11.260   8.979  70.708  1.00  0.00    -0.275 C  
HETATM    6  O   UNL     1     -10.906   9.405  71.801  1.00  0.00    -0.354 OA 
HETATM    7  N   UNL     1     -11.564   9.832  69.657  1.00  0.00    -0.448 N  
HETATM    8  H   UNL     1     -11.669   9.459  68.713  1.00  0.00     0.000 HD 
BRANCH   7   9
HETATM    9  C   UNL     1     -11.735  11.269  69.898  1.00  0.00    -0.352 C  
HETATM   10  C   UNL     1     -11.859  12.085  68.612  1.00  0.00    -0.311 C  
HETATM   11  O   UNL     1     -12.019  13.296  68.587  1.00  0.00    -0.339 OA 
HETATM   12  O   UNL     1     -11.833  11.331  67.488  1.00  0.00    -0.613 OA 
ENDBRANCH   7   9
ENDBRANCH   2   5
TORSDOF 2
ENDMDL
MODEL       74
REMARK 921   NORMALIZED FREE ENERGY PREDICTED BY IDOCK:   -3.06 KCAL/MOL
REMARK 922        TOTAL FREE ENERGY PREDICTED BY IDOCK:   -3.51 KCAL/MOL
REMARK 923 INTER-LIGAND FREE ENERGY PREDICTED BY IDOCK:   -3.41 KCAL/MOL
REMARK 924 INTRA-LIGAND FREE ENERGY PREDICTED BY IDOCK:   -0.10 KCAL/MOL
REMARK 927      BINDING AFFINITY PREDICTED BY RF-SCORE:    0.00 PKD
ROOT
HETATM    1  C   UNL     1     -11.535  10.042  70.517  1.00  0.00    -0.407 C  
HETATM    2  C   UNL     1     -11.928   9.002  71.558  1.00  0.00    -0.344 C  
HETATM    3  S   UNL     1     -13.689   9.200  72.011  1.00  0.00    -0.443 SA 
HETATM    4  H   UNL     1     -14.048   8.251  72.961  1.00  0.00     0.000 H  
ENDROOT
BRANCH   2   5
HETATM    5  C   UNL     1     -11.676   7.573  71.066  1.00  0.00    -0.292 C  
HETATM    6  O   UNL     1     -11.967   6.570  71.707  1.00  0.00    -0.326 OA 
HETATM    7  N   UNL     1     -11.193   7.494  69.768  1.00  0.00    -0.446 N  
HETATM    8  H   UNL     1     -11.139   8.336  69.192  1.00  0.00     0.000 HD 
BRANCH   7   9
HETATM    9  C   UNL     1     -10.761   6.205  69.218  1.00  0.00    -0.318 C  
HETATM   10  C   UNL     1     -10.672   6.199  67.693  1.00  0.00    -0.308 C  
HETATM   11  O   UNL     1     -10.322   5.231  67.034  1.00  0.00    -0.212 OA 
HETATM   12  O   UNL     1     -10.966   7.395  67.129  1.00  0.00    -0.312 OA 
ENDBRANCH   7   9
ENDBRANCH   2   5
TORSDOF 2
ENDMDL
MODEL       75
REMARK 921   NORMALIZED FREE ENERGY PREDICTED BY IDOCK:   -3.06 KCAL/MOL
REMARK 922        TOTAL FREE ENERGY PREDICTED BY IDOCK:   -3.50 KCAL/MOL
REMARK 923 INTER-LIGAND FREE ENERGY PREDICTED BY IDOCK:   -3.40 KCAL/MOL
REMARK 924 INTRA-LIGAND FREE ENERGY PREDICTED BY IDOCK:   -0.10 KCAL/MOL
REMARK 927      BINDING AFFINITY PREDICTED BY RF-SCORE:    0.00 PKD
ROOT
HETATM    1  C   UNL     1     -11.368  11.723  66.425  1.00  0.00    -0.361 C  
HETATM    2  C   UNL     1     -12.013  13.053  66.792  1.00  0.00    -0.369 C  
HETATM    3  S   UNL     1     -11.578  13.511  68.508  1.00  0.00    -0.356 SA 
HETATM    4  H   UNL     1     -12.167  14.725  68.844  1.00  0.00     0.000 H  
ENDROOT
BRANCH   2   5
HETATM    5  C   UNL     1     -11.600  14.175  65.834  1.00  0.00    -0.348 C  
HETATM    6  O   UNL     1     -12.112  14.356  64.735  1.00  0.00    -0.412 OA 
HETATM    7  N   UNL     1     -10.671  15.060  66.360  1.00  0.00    -0.315 N  
HETATM    8  H   UNL     1     -10.404  14.995  67.343  1.00  0.00     0.000 HD 
BRANCH   7   9
HETATM    9  C   UNL     1     -10.069  16.091  65.507  1.00  0.00    -0.304 C  
HETATM   10  C   UNL     1      -8.862  16.774  66.149  1.00  0.00    -0.263 C  
HETATM   11  O   UNL     1      -8.208  17.653  65.605  1.00  0.00    -0.501 OA 
HETATM   12  O   UNL     1      -8.541  16.276  67.366  1.00  0.00    -0.173 OA 
ENDBRANCH   7   9
ENDBRANCH   2   5
TORSDOF 2
ENDMDL
MODEL       76
REMARK 921   NORMALIZED FREE ENERGY PREDICTED BY IDOCK:   -3.05 KCAL/MOL
REMARK 922        TOTAL FREE ENERGY PREDICTED BY IDOCK:   -3.49 KCAL/MOL
REMARK 923 INTER-LIGAND FREE ENERGY PREDICTED BY IDOCK:   -3.37 KCAL/MOL
REMARK 924 INTRA-LIGAND FREE ENERGY PREDICTED BY IDOCK:   -0.12 KCAL/MOL
REMARK 927      BINDING AFFINITY PREDICTED BY RF-SCORE:    0.00 PKD
ROOT
HETATM    1  C   UNL     1     -10.740   7.076  67.489  1.00  0.00    -0.352 C  
HETATM    2  C   UNL     1     -10.660   5.777  68.280  1.00  0.00    -0.217 C  
HETATM    3  S   UNL     1      -8.968   5.090  68.193  1.00  0.00    -0.111 SA 
HETATM    4  H   UNL     1      -8.895   3.904  68.915  1.00  0.00     0.000 H  
ENDROOT
BRANCH   2   5
HETATM    5  C   UNL     1     -11.068   5.971  69.744  1.00  0.00    -0.406 C  
HETATM    6  O   UNL     1     -10.529   5.397  70.683  1.00  0.00    -0.257 OA 
HETATM    7  N   UNL     1     -12.029   6.951  69.943  1.00  0.00    -0.640 N  
HETATM    8  H   UNL     1     -12.322   7.543  69.165  1.00  0.00     0.000 HD 
BRANCH   7   9
HETATM    9  C   UNL     1     -12.626   7.139  71.270  1.00  0.00    -0.380 C  
HETATM   10  C   UNL     1     -12.615   8.596  71.733  1.00  0.00    -0.349 C  
HETATM   11  O   UNL     1     -13.073   8.974  72.802  1.00  0.00    -0.386 OA 
HETATM   12  O   UNL     1     -12.097   9.451  70.820  1.00  0.00    -0.276 OA 
ENDBRANCH   7   9
ENDBRANCH   2   5
TORSDOF 2
ENDMDL
MODEL       77
REMARK 921   NORMALIZED FREE ENERGY PREDICTED BY IDOCK:   -3.04 KCAL/MOL
REMARK 922        TOTAL FREE ENERGY PREDICTED BY IDOCK:   -3.48 KCAL/MOL
REMARK 923 INTER-LIGAND FREE ENERGY PREDICTED BY IDOCK:   -3.32 KCAL/MOL
REMARK 924 INTRA-LIGAND FREE ENERGY PREDICTED BY IDOCK:   -0.16 KCAL/MOL
REMARK 927      BINDING AFFINITY PREDICTED BY RF-SCORE:    0.00 PKD
ROOT
HETATM    1  C   UNL     1     -10.335  14.786  66.664  1.00  0.00    -0.273 C  
HETATM    2  C   UNL     1     -10.845  16.065  67.314  1.00  0.00    -0.255 C  
HETATM    3  S   UNL     1     -10.313  16.138  69.062  1.00  0.00    -0.278 SA 
HETATM    4  H   UNL     1     -10.778  17.305  69.656  1.00  0.00     0.000 H  
ENDROOT
BRANCH   2   5
HETATM    5  C   UNL     1     -10.364  17.317  66.572  1.00  0.00    -0.308 C  
HETATM    6  O   UNL     1     -10.215  17.373  65.357  1.00  0.00    -0.603 OA 
HETATM    7  N   UNL     1     -10.223  18.437  67.377  1.00  0.00    -0.353 N  
HETATM    8  H   UNL     1     -10.535  18.409  68.348  1.00  0.00     0.000 HD 
BRANCH   7   9
HETATM    9  C   UNL     1      -9.625  19.663  66.837  1.00  0.00    -0.359 C  
HETATM   10  C   UNL     1      -8.212  19.924  67.356  1.00  0.00    -0.320 C  
HETATM   11  O   UNL     1      -7.531  20.883  67.025  1.00  0.00    -0.306 OA 
HETATM   12  O   UNL     1      -7.752  18.956  68.185  1.00  0.00    -0.269 OA 
ENDBRANCH   7   9
ENDBRANCH   2   5
TORSDOF 2
ENDMDL
MODEL       78
REMARK 921   NORMALIZED FREE ENERGY PREDICTED BY IDOCK:   -3.03 KCAL/MOL
REMARK 922        TOTAL FREE ENERGY PREDICTED BY IDOCK:   -3.47 KCAL/MOL
REMARK 923 INTER-LIGAND FREE ENERGY PREDICTED BY IDOCK:   -3.35 KCAL/MOL
REMARK 924 INTRA-LIGAND FREE ENERGY PREDICTED BY IDOCK:   -0.13 KCAL/MOL
REMARK 927      BINDING AFFINITY PREDICTED BY RF-SCORE:    0.00 PKD
ROOT
HETATM    1  C   UNL     1      -9.936  11.002  63.772  1.00  0.00    -0.404 C  
HETATM    2  C   UNL     1     -10.681  12.115  64.497  1.00  0.00    -0.310 C  
HETATM    3  S   UNL     1     -12.206  12.549  63.586  1.00  0.00    -0.557 SA 
HETATM    4  H   UNL     1     -12.886  13.564  64.248  1.00  0.00     0.000 H  
ENDROOT
BRANCH   2   5
HETATM    5  C   UNL     1     -11.030  11.727  65.938  1.00  0.00    -0.304 C  
HETATM    6  O   UNL     1     -12.018  12.139  66.535  1.00  0.00    -0.618 OA 
HETATM    7  N   UNL     1     -10.195  10.766  66.488  1.00  0.00    -0.228 N  
HETATM    8  H   UNL     1      -9.497  10.304  65.904  1.00  0.00     0.000 HD 
BRANCH   7   9
HETATM    9  C   UNL     1     -10.312  10.410  67.906  1.00  0.00    -0.190 C  
HETATM   10  C   UNL     1     -10.511   8.913  68.137  1.00  0.00    -0.202 C  
HETATM   11  O   UNL     1     -10.620   8.403  69.243  1.00  0.00    -0.223 OA 
HETATM   12  O   UNL     1     -10.499   8.183  66.997  1.00  0.00    -0.312 OA 
ENDBRANCH   7   9
ENDBRANCH   2   5
TORSDOF 2
ENDMDL
MODEL       79
REMARK 921   NORMALIZED FREE ENERGY PREDICTED BY IDOCK:   -3.03 KCAL/MOL
REMARK 922        TOTAL FREE ENERGY PREDICTED BY IDOCK:   -3.47 KCAL/MOL
REMARK 923 INTER-LIGAND FREE ENERGY PREDICTED BY IDOCK:   -3.35 KCAL/MOL
REMARK 924 INTRA-LIGAND FREE ENERGY PREDICTED BY IDOCK:   -0.12 KCAL/MOL
REMARK 927      BINDING AFFINITY PREDICTED BY RF-SCORE:    0.00 PKD
ROOT
HETATM    1  C   UNL     1     -11.740  12.577  67.975  1.00  0.00    -0.410 C  
HETATM    2  C   UNL     1     -11.867  13.921  68.679  1.00  0.00    -0.372 C  
HETATM    3  S   UNL     1     -12.343  13.674  70.427  1.00  0.00    -0.319 SA 
HETATM    4  H   UNL     1     -12.458  14.901  71.069  1.00  0.00     0.000 H  
ENDROOT
BRANCH   2   5
HETATM    5  C   UNL     1     -10.570  14.733  68.603  1.00  0.00    -0.255 C  
HETATM    6  O   UNL     1     -10.123  15.393  69.534  1.00  0.00    -0.245 OA 
HETATM    7  N   UNL     1      -9.862  14.569  67.421  1.00  0.00    -0.225 N  
HETATM    8  H   UNL     1     -10.162  13.868  66.742  1.00  0.00     0.000 HD 
BRANCH   7   9
HETATM    9  C   UNL     1      -8.685  15.398  67.144  1.00  0.00    -0.220 C  
HETATM   10  C   UNL     1      -8.948  16.490  66.108  1.00  0.00    -0.309 C  
HETATM   11  O   UNL     1      -8.107  17.297  65.741  1.00  0.00    -0.527 OA 
HETATM   12  O   UNL     1     -10.228  16.521  65.667  1.00  0.00    -0.466 OA 
ENDBRANCH   7   9
ENDBRANCH   2   5
TORSDOF 2
ENDMDL
MODEL       80
REMARK 921   NORMALIZED FREE ENERGY PREDICTED BY IDOCK:   -3.02 KCAL/MOL
REMARK 922        TOTAL FREE ENERGY PREDICTED BY IDOCK:   -3.46 KCAL/MOL
REMARK 923 INTER-LIGAND FREE ENERGY PREDICTED BY IDOCK:   -3.32 KCAL/MOL
REMARK 924 INTRA-LIGAND FREE ENERGY PREDICTED BY IDOCK:   -0.14 KCAL/MOL
REMARK 927      BINDING AFFINITY PREDICTED BY RF-SCORE:    0.00 PKD
ROOT
HETATM    1  C   UNL     1      -8.624  16.905  66.390  1.00  0.00    -0.328 C  
HETATM    2  C   UNL     1      -7.879  15.743  67.032  1.00  0.00    -0.236 C  
HETATM    3  S   UNL     1      -7.385  16.177  68.739  1.00  0.00    -0.198 SA 
HETATM    4  H   UNL     1      -6.705  15.116  69.325  1.00  0.00     0.000 H  
ENDROOT
BRANCH   2   5
HETATM    5  C   UNL     1      -8.717  14.461  67.045  1.00  0.00    -0.223 C  
HETATM    6  O   UNL     1      -8.831  13.730  68.022  1.00  0.00    -0.166 OA 
HETATM    7  N   UNL     1      -9.449  14.246  65.886  1.00  0.00    -0.517 N  
HETATM    8  H   UNL     1      -9.482  14.967  65.164  1.00  0.00     0.000 HD 
BRANCH   7   9
HETATM    9  C   UNL     1     -10.175  12.987  65.693  1.00  0.00    -0.287 C  
HETATM   10  C   UNL     1     -11.692  13.146  65.784  1.00  0.00    -0.374 C  
HETATM   11  O   UNL     1     -12.483  12.224  65.643  1.00  0.00    -0.591 OA 
HETATM   12  O   UNL     1     -12.091  14.424  65.981  1.00  0.00    -0.396 OA 
ENDBRANCH   7   9
ENDBRANCH   2   5
TORSDOF 2
ENDMDL
MODEL       81
REMARK 921   NORMALIZED FREE ENERGY PREDICTED BY IDOCK:   -3.02 KCAL/MOL
REMARK 922        TOTAL FREE ENERGY PREDICTED BY IDOCK:   -3.46 KCAL/MOL
REMARK 923 INTER-LIGAND FREE ENERGY PREDICTED BY IDOCK:   -3.38 KCAL/MOL
REMARK 924 INTRA-LIGAND FREE ENERGY PREDICTED BY IDOCK:   -0.08 KCAL/MOL
REMARK 927      BINDING AFFINITY PREDICTED BY RF-SCORE:    0.00 PKD
ROOT
HETATM    1  C   UNL     1      -8.332  16.086  67.000  1.00  0.00    -0.251 C  
HETATM    2  C   UNL     1      -9.448  16.901  67.640  1.00  0.00    -0.241 C  
HETATM    3  S   UNL     1      -9.998  18.220  66.499  1.00  0.00    -0.389 SA 
HETATM    4  H   UNL     1     -11.017  18.963  67.083  1.00  0.00     0.000 H  
ENDROOT
BRANCH   2   5
HETATM    5  C   UNL     1     -10.641  16.026  68.037  1.00  0.00    -0.295 C  
HETATM    6  O   UNL     1     -11.248  15.305  67.254  1.00  0.00    -0.335 OA 
HETATM    7  N   UNL     1     -10.915  16.019  69.397  1.00  0.00    -0.296 N  
HETATM    8  H   UNL     1     -10.277  16.478  70.047  1.00  0.00     0.000 HD 
BRANCH   7   9
HETATM    9  C   UNL     1     -12.119  15.351  69.903  1.00  0.00    -0.355 C  
HETATM   10  C   UNL     1     -12.431  15.696  71.359  1.00  0.00    -0.439 C  
HETATM   11  O   UNL     1     -13.394  15.258  71.971  1.00  0.00    -0.361 OA 
HETATM   12  O   UNL     1     -11.567  16.587  71.902  1.00  0.00    -0.419 OA 
ENDBRANCH   7   9
ENDBRANCH   2   5
TORSDOF 2
ENDMDL
MODEL       82
REMARK 921   NORMALIZED FREE ENERGY PREDICTED BY IDOCK:   -2.99 KCAL/MOL
REMARK 922        TOTAL FREE ENERGY PREDICTED BY IDOCK:   -3.42 KCAL/MOL
REMARK 923 INTER-LIGAND FREE ENERGY PREDICTED BY IDOCK:   -3.31 KCAL/MOL
REMARK 924 INTRA-LIGAND FREE ENERGY PREDICTED BY IDOCK:   -0.11 KCAL/MOL
REMARK 927      BINDING AFFINITY PREDICTED BY RF-SCORE:    0.00 PKD
ROOT
HETATM    1  C   UNL     1     -10.498  11.691  68.551  1.00  0.00    -0.236 C  
HETATM    2  C   UNL     1     -11.796  12.070  69.250  1.00  0.00    -0.318 C  
HETATM    3  S   UNL     1     -12.073  10.985  70.696  1.00  0.00    -0.378 SA 
HETATM    4  H   UNL     1     -13.258  11.330  71.334  1.00  0.00     0.000 H  
ENDROOT
BRANCH   2   5
HETATM    5  C   UNL     1     -11.804  13.536  69.692  1.00  0.00    -0.336 C  
HETATM    6  O   UNL     1     -12.712  14.050  70.336  1.00  0.00    -0.326 OA 
HETATM    7  N   UNL     1     -10.632  14.223  69.409  1.00  0.00    -0.421 N  
HETATM    8  H   UNL     1      -9.823  13.720  69.043  1.00  0.00     0.000 HD 
BRANCH   7   9
HETATM    9  C   UNL     1     -10.552  15.670  69.634  1.00  0.00    -0.283 C  
HETATM   10  C   UNL     1     -10.753  16.490  68.360  1.00  0.00    -0.339 C  
HETATM   11  O   UNL     1     -10.736  17.712  68.327  1.00  0.00    -0.360 OA 
HETATM   12  O   UNL     1     -11.011  15.736  67.266  1.00  0.00    -0.316 OA 
ENDBRANCH   7   9
ENDBRANCH   2   5
TORSDOF 2
ENDMDL
MODEL       83
REMARK 921   NORMALIZED FREE ENERGY PREDICTED BY IDOCK:   -2.99 KCAL/MOL
REMARK 922        TOTAL FREE ENERGY PREDICTED BY IDOCK:   -3.42 KCAL/MOL
REMARK 923 INTER-LIGAND FREE ENERGY PREDICTED BY IDOCK:   -3.28 KCAL/MOL
REMARK 924 INTRA-LIGAND FREE ENERGY PREDICTED BY IDOCK:   -0.14 KCAL/MOL
REMARK 927      BINDING AFFINITY PREDICTED BY RF-SCORE:    0.00 PKD
ROOT
HETATM    1  C   UNL     1     -10.918   5.748  69.670  1.00  0.00    -0.385 C  
HETATM    2  C   UNL     1     -10.121   6.820  68.940  1.00  0.00    -0.164 C  
HETATM    3  S   UNL     1     -10.762   7.035  67.241  1.00  0.00    -0.343 SA 
HETATM    4  H   UNL     1     -10.035   8.014  66.575  1.00  0.00     0.000 H  
ENDROOT
BRANCH   2   5
HETATM    5  C   UNL     1     -10.152   8.162  69.680  1.00  0.00    -0.199 C  
HETATM    6  O   UNL     1      -9.151   8.813  69.953  1.00  0.00    -0.148 OA 
HETATM    7  N   UNL     1     -11.428   8.652  69.918  1.00  0.00    -0.449 N  
HETATM    8  H   UNL     1     -12.238   8.181  69.513  1.00  0.00     0.000 HD 
BRANCH   7   9
HETATM    9  C   UNL     1     -11.617   9.845  70.750  1.00  0.00    -0.349 C  
HETATM   10  C   UNL     1     -11.946  11.098  69.940  1.00  0.00    -0.363 C  
HETATM   11  O   UNL     1     -12.152  12.196  70.436  1.00  0.00    -0.354 OA 
HETATM   12  O   UNL     1     -12.046  10.871  68.608  1.00  0.00    -0.527 OA 
ENDBRANCH   7   9
ENDBRANCH   2   5
TORSDOF 2
ENDMDL
MODEL       84
REMARK 921   NORMALIZED FREE ENERGY PREDICTED BY IDOCK:   -2.99 KCAL/MOL
REMARK 922        TOTAL FREE ENERGY PREDICTED BY IDOCK:   -3.42 KCAL/MOL
REMARK 923 INTER-LIGAND FREE ENERGY PREDICTED BY IDOCK:   -3.30 KCAL/MOL
REMARK 924 INTRA-LIGAND FREE ENERGY PREDICTED BY IDOCK:   -0.13 KCAL/MOL
REMARK 927      BINDING AFFINITY PREDICTED BY RF-SCORE:    0.00 PKD
ROOT
HETATM    1  C   UNL     1     -11.857  12.759  68.219  1.00  0.00    -0.357 C  
HETATM    2  C   UNL     1     -11.425  13.792  67.187  1.00  0.00    -0.340 C  
HETATM    3  S   UNL     1     -12.510  13.705  65.717  1.00  0.00    -0.459 SA 
HETATM    4  H   UNL     1     -12.116  14.647  64.775  1.00  0.00     0.000 H  
ENDROOT
BRANCH   2   5
HETATM    5  C   UNL     1     -11.437  15.213  67.759  1.00  0.00    -0.318 C  
HETATM    6  O   UNL     1     -12.103  15.552  68.730  1.00  0.00    -0.291 OA 
HETATM    7  N   UNL     1     -10.532  16.076  67.159  1.00  0.00    -0.305 N  
HETATM    8  H   UNL     1      -9.858  15.717  66.481  1.00  0.00     0.000 HD 
BRANCH   7   9
HETATM    9  C   UNL     1     -10.539  17.504  67.496  1.00  0.00    -0.333 C  
HETATM   10  C   UNL     1      -9.385  17.913  68.411  1.00  0.00    -0.288 C  
HETATM   11  O   UNL     1      -9.199  19.055  68.803  1.00  0.00    -0.353 OA 
HETATM   12  O   UNL     1      -8.543  16.895  68.709  1.00  0.00    -0.252 OA 
ENDBRANCH   7   9
ENDBRANCH   2   5
TORSDOF 2
ENDMDL
MODEL       85
REMARK 921   NORMALIZED FREE ENERGY PREDICTED BY IDOCK:   -2.94 KCAL/MOL
REMARK 922        TOTAL FREE ENERGY PREDICTED BY IDOCK:   -3.37 KCAL/MOL
REMARK 923 INTER-LIGAND FREE ENERGY PREDICTED BY IDOCK:   -3.27 KCAL/MOL
REMARK 924 INTRA-LIGAND FREE ENERGY PREDICTED BY IDOCK:   -0.10 KCAL/MOL
REMARK 927      BINDING AFFINITY PREDICTED BY RF-SCORE:    0.00 PKD
ROOT
HETATM    1  C   UNL     1     -11.426   7.628  72.672  1.00  0.00    -0.403 C  
HETATM    2  C   UNL     1     -12.190   7.005  71.511  1.00  0.00    -0.368 C  
HETATM    3  S   UNL     1     -13.897   7.659  71.457  1.00  0.00    -0.339 SA 
HETATM    4  H   UNL     1     -14.593   7.090  70.397  1.00  0.00     0.000 H  
ENDROOT
BRANCH   2   5
HETATM    5  C   UNL     1     -11.495   7.254  70.168  1.00  0.00    -0.165 C  
HETATM    6  O   UNL     1     -11.253   6.373  69.352  1.00  0.00    -0.359 OA 
HETATM    7  N   UNL     1     -11.262   8.592  69.886  1.00  0.00    -0.440 N  
HETATM    8  H   UNL     1     -11.644   9.315  70.497  1.00  0.00     0.000 HD 
BRANCH   7   9
HETATM    9  C   UNL     1     -10.470   8.972  68.712  1.00  0.00    -0.206 C  
HETATM   10  C   UNL     1     -10.985  10.234  68.020  1.00  0.00    -0.289 C  
HETATM   11  O   UNL     1     -10.464  10.729  67.031  1.00  0.00    -0.223 OA 
HETATM   12  O   UNL     1     -12.050  10.795  68.640  1.00  0.00    -0.480 OA 
ENDBRANCH   7   9
ENDBRANCH   2   5
TORSDOF 2
ENDMDL
MODEL       86
REMARK 921   NORMALIZED FREE ENERGY PREDICTED BY IDOCK:   -2.93 KCAL/MOL
REMARK 922        TOTAL FREE ENERGY PREDICTED BY IDOCK:   -3.36 KCAL/MOL
REMARK 923 INTER-LIGAND FREE ENERGY PREDICTED BY IDOCK:   -3.23 KCAL/MOL
REMARK 924 INTRA-LIGAND FREE ENERGY PREDICTED BY IDOCK:   -0.13 KCAL/MOL
REMARK 927      BINDING AFFINITY PREDICTED BY RF-SCORE:    0.00 PKD
ROOT
HETATM    1  C   UNL     1     -10.186   9.913  67.440  1.00  0.00    -0.275 C  
HETATM    2  C   UNL     1     -10.050  11.241  66.709  1.00  0.00    -0.219 C  
HETATM    3  S   UNL     1     -10.190  10.983  64.903  1.00  0.00    -0.322 SA 
HETATM    4  H   UNL     1     -10.066  12.195  64.236  1.00  0.00     0.000 H  
ENDROOT
BRANCH   2   5
HETATM    5  C   UNL     1     -11.097  12.260  67.170  1.00  0.00    -0.278 C  
HETATM    6  O   UNL     1     -12.225  12.340  66.699  1.00  0.00    -0.574 OA 
HETATM    7  N   UNL     1     -10.708  13.022  68.262  1.00  0.00    -0.237 N  
HETATM    8  H   UNL     1      -9.839  12.804  68.752  1.00  0.00     0.000 HD 
BRANCH   7   9
HETATM    9  C   UNL     1     -11.541  14.140  68.717  1.00  0.00    -0.327 C  
HETATM   10  C   UNL     1     -12.238  13.869  70.050  1.00  0.00    -0.344 C  
HETATM   11  O   UNL     1     -12.969  14.671  70.612  1.00  0.00    -0.352 OA 
HETATM   12  O   UNL     1     -11.926  12.666  70.589  1.00  0.00    -0.303 OA 
ENDBRANCH   7   9
ENDBRANCH   2   5
TORSDOF 2
ENDMDL
MODEL       87
REMARK 921   NORMALIZED FREE ENERGY PREDICTED BY IDOCK:   -2.89 KCAL/MOL
REMARK 922        TOTAL FREE ENERGY PREDICTED BY IDOCK:   -3.31 KCAL/MOL
REMARK 923 INTER-LIGAND FREE ENERGY PREDICTED BY IDOCK:   -3.16 KCAL/MOL
REMARK 924 INTRA-LIGAND FREE ENERGY PREDICTED BY IDOCK:   -0.16 KCAL/MOL
REMARK 927      BINDING AFFINITY PREDICTED BY RF-SCORE:    0.00 PKD
ROOT
HETATM    1  C   UNL     1      -7.692  17.267  66.382  1.00  0.00    -0.347 C  
HETATM    2  C   UNL     1      -8.726  16.850  67.419  1.00  0.00    -0.203 C  
HETATM    3  S   UNL     1     -10.256  17.830  67.211  1.00  0.00    -0.363 SA 
HETATM    4  H   UNL     1     -11.200  17.449  68.157  1.00  0.00     0.000 H  
ENDROOT
BRANCH   2   5
HETATM    5  C   UNL     1      -9.051  15.355  67.336  1.00  0.00    -0.197 C  
HETATM    6  O   UNL     1      -8.211  14.485  67.138  1.00  0.00    -0.202 OA 
HETATM    7  N   UNL     1     -10.371  15.041  67.625  1.00  0.00    -0.241 N  
HETATM    8  H   UNL     1     -11.002  15.765  67.971  1.00  0.00     0.000 HD 
BRANCH   7   9
HETATM    9  C   UNL     1     -10.863  13.673  67.436  1.00  0.00    -0.273 C  
HETATM   10  C   UNL     1     -11.854  13.543  66.280  1.00  0.00    -0.392 C  
HETATM   11  O   UNL     1     -12.376  12.490  65.945  1.00  0.00    -0.626 OA 
HETATM   12  O   UNL     1     -12.065  14.704  65.615  1.00  0.00    -0.311 OA 
ENDBRANCH   7   9
ENDBRANCH   2   5
TORSDOF 2
ENDMDL
MODEL       88
REMARK 921   NORMALIZED FREE ENERGY PREDICTED BY IDOCK:   -2.89 KCAL/MOL
REMARK 922        TOTAL FREE ENERGY PREDICTED BY IDOCK:   -3.31 KCAL/MOL
REMARK 923 INTER-LIGAND FREE ENERGY PREDICTED BY IDOCK:   -3.21 KCAL/MOL
REMARK 924 INTRA-LIGAND FREE ENERGY PREDICTED BY IDOCK:   -0.10 KCAL/MOL
REMARK 927      BINDING AFFINITY PREDICTED BY RF-SCORE:    0.00 PKD
ROOT
HETATM    1  C   UNL     1     -12.757  11.381  71.344  1.00  0.00    -0.489 C  
HETATM    2  C   UNL     1     -12.304  10.744  70.037  1.00  0.00    -0.298 C  
HETATM    3  S   UNL     1     -11.653  12.023  68.905  1.00  0.00    -0.343 SA 
HETATM    4  H   UNL     1     -11.240  11.442  67.713  1.00  0.00     0.000 H  
ENDROOT
BRANCH   2   5
HETATM    5  C   UNL     1     -11.243   9.662  70.264  1.00  0.00    -0.271 C  
HETATM    6  O   UNL     1     -10.074   9.902  70.543  1.00  0.00    -0.259 OA 
HETATM    7  N   UNL     1     -11.737   8.366  70.248  1.00  0.00    -0.465 N  
HETATM    8  H   UNL     1     -12.744   8.206  70.202  1.00  0.00     0.000 HD 
BRANCH   7   9
HETATM    9  C   UNL     1     -10.817   7.225  70.297  1.00  0.00    -0.245 C  
HETATM   10  C   UNL     1     -11.231   6.160  71.311  1.00  0.00    -0.287 C  
HETATM   11  O   UNL     1     -10.611   5.124  71.504  1.00  0.00    -0.211 OA 
HETATM   12  O   UNL     1     -12.393   6.442  71.948  1.00  0.00    -0.345 OA 
ENDBRANCH   7   9
ENDBRANCH   2   5
TORSDOF 2
ENDMDL
MODEL       89
REMARK 921   NORMALIZED FREE ENERGY PREDICTED BY IDOCK:   -2.89 KCAL/MOL
REMARK 922        TOTAL FREE ENERGY PREDICTED BY IDOCK:   -3.31 KCAL/MOL
REMARK 923 INTER-LIGAND FREE ENERGY PREDICTED BY IDOCK:   -3.22 KCAL/MOL
REMARK 924 INTRA-LIGAND FREE ENERGY PREDICTED BY IDOCK:   -0.09 KCAL/MOL
REMARK 927      BINDING AFFINITY PREDICTED BY RF-SCORE:    0.00 PKD
ROOT
HETATM    1  C   UNL     1      -8.292  10.190  69.273  1.00  0.00    -0.160 C  
HETATM    2  C   UNL     1      -9.779  10.483  69.121  1.00  0.00    -0.211 C  
HETATM    3  S   UNL     1     -10.200  10.702  67.355  1.00  0.00    -0.215 SA 
HETATM    4  H   UNL     1     -11.556  10.969  67.216  1.00  0.00     0.000 H  
ENDROOT
BRANCH   2   5
HETATM    5  C   UNL     1     -10.647   9.376  69.728  1.00  0.00    -0.231 C  
HETATM    6  O   UNL     1     -10.783   8.265  69.228  1.00  0.00    -0.211 OA 
HETATM    7  N   UNL     1     -11.182   9.687  70.969  1.00  0.00    -0.345 N  
HETATM    8  H   UNL     1     -10.897  10.544  71.446  1.00  0.00     0.000 HD 
BRANCH   7   9
HETATM    9  C   UNL     1     -12.155   8.789  71.600  1.00  0.00    -0.337 C  
HETATM   10  C   UNL     1     -13.363   9.522  72.181  1.00  0.00    -0.461 C  
HETATM   11  O   UNL     1     -14.295   8.963  72.740  1.00  0.00    -0.600 OA 
HETATM   12  O   UNL     1     -13.337  10.859  71.971  1.00  0.00    -0.448 OA 
ENDBRANCH   7   9
ENDBRANCH   2   5
TORSDOF 2
ENDMDL
MODEL       90
REMARK 921   NORMALIZED FREE ENERGY PREDICTED BY IDOCK:   -2.89 KCAL/MOL
REMARK 922        TOTAL FREE ENERGY PREDICTED BY IDOCK:   -3.31 KCAL/MOL
REMARK 923 INTER-LIGAND FREE ENERGY PREDICTED BY IDOCK:   -3.22 KCAL/MOL
REMARK 924 INTRA-LIGAND FREE ENERGY PREDICTED BY IDOCK:   -0.09 KCAL/MOL
REMARK 927      BINDING AFFINITY PREDICTED BY RF-SCORE:    0.00 PKD
ROOT
HETATM    1  C   UNL     1     -10.813   6.021  68.694  1.00  0.00    -0.379 C  
HETATM    2  C   UNL     1     -10.474   6.780  69.970  1.00  0.00    -0.210 C  
HETATM    3  S   UNL     1      -8.702   6.575  70.372  1.00  0.00    -0.148 SA 
HETATM    4  H   UNL     1      -8.393   7.268  71.536  1.00  0.00     0.000 H  
ENDROOT
BRANCH   2   5
HETATM    5  C   UNL     1     -10.813   8.270  69.858  1.00  0.00    -0.213 C  
HETATM    6  O   UNL     1     -10.658   8.929  68.836  1.00  0.00    -0.217 OA 
HETATM    7  N   UNL     1     -11.430   8.801  70.981  1.00  0.00    -0.277 N  
HETATM    8  H   UNL     1     -11.717   8.185  71.742  1.00  0.00     0.000 HD 
BRANCH   7   9
HETATM    9  C   UNL     1     -11.671  10.244  71.077  1.00  0.00    -0.370 C  
HETATM   10  C   UNL     1     -12.974  10.590  71.797  1.00  0.00    -0.476 C  
HETATM   11  O   UNL     1     -13.360  11.733  71.996  1.00  0.00    -0.487 OA 
HETATM   12  O   UNL     1     -13.645   9.506  72.253  1.00  0.00    -0.444 OA 
ENDBRANCH   7   9
ENDBRANCH   2   5
TORSDOF 2
ENDMDL
MODEL       91
REMARK 921   NORMALIZED FREE ENERGY PREDICTED BY IDOCK:   -2.87 KCAL/MOL
REMARK 922        TOTAL FREE ENERGY PREDICTED BY IDOCK:   -3.29 KCAL/MOL
REMARK 923 INTER-LIGAND FREE ENERGY PREDICTED BY IDOCK:   -3.15 KCAL/MOL
REMARK 924 INTRA-LIGAND FREE ENERGY PREDICTED BY IDOCK:   -0.14 KCAL/MOL
REMARK 927      BINDING AFFINITY PREDICTED BY RF-SCORE:    0.00 PKD
ROOT
HETATM    1  C   UNL     1      -9.797   9.574  69.466  1.00  0.00    -0.205 C  
HETATM    2  C   UNL     1     -10.897  10.351  70.176  1.00  0.00    -0.271 C  
HETATM    3  S   UNL     1     -11.908  11.266  68.958  1.00  0.00    -0.336 SA 
HETATM    4  H   UNL     1     -12.913  11.975  69.605  1.00  0.00     0.000 H  
ENDROOT
BRANCH   2   5
HETATM    5  C   UNL     1     -11.796   9.436  71.014  1.00  0.00    -0.322 C  
HETATM    6  O   UNL     1     -12.544   9.838  71.899  1.00  0.00    -0.385 OA 
HETATM    7  N   UNL     1     -11.792   8.108  70.612  1.00  0.00    -0.469 N  
HETATM    8  H   UNL     1     -11.307   7.838  69.756  1.00  0.00     0.000 HD 
BRANCH   7   9
HETATM    9  C   UNL     1     -12.482   7.092  71.414  1.00  0.00    -0.388 C  
HETATM   10  C   UNL     1     -11.527   6.185  72.188  1.00  0.00    -0.311 C  
HETATM   11  O   UNL     1     -11.893   5.281  72.925  1.00  0.00    -0.271 OA 
HETATM   12  O   UNL     1     -10.222   6.510  72.029  1.00  0.00    -0.192 OA 
ENDBRANCH   7   9
ENDBRANCH   2   5
TORSDOF 2
ENDMDL
MODEL       92
REMARK 921   NORMALIZED FREE ENERGY PREDICTED BY IDOCK:   -2.85 KCAL/MOL
REMARK 922        TOTAL FREE ENERGY PREDICTED BY IDOCK:   -3.27 KCAL/MOL
REMARK 923 INTER-LIGAND FREE ENERGY PREDICTED BY IDOCK:   -3.17 KCAL/MOL
REMARK 924 INTRA-LIGAND FREE ENERGY PREDICTED BY IDOCK:   -0.11 KCAL/MOL
REMARK 927      BINDING AFFINITY PREDICTED BY RF-SCORE:    0.00 PKD
ROOT
HETATM    1  C   UNL     1      -8.803   9.089  67.366  1.00  0.00    -0.125 C  
HETATM    2  C   UNL     1     -10.309   8.869  67.418  1.00  0.00    -0.269 C  
HETATM    3  S   UNL     1     -10.696   7.404  68.442  1.00  0.00    -0.035 SA 
HETATM    4  H   UNL     1     -12.070   7.202  68.490  1.00  0.00     0.000 H  
ENDROOT
BRANCH   2   5
HETATM    5  C   UNL     1     -11.050  10.094  67.964  1.00  0.00    -0.240 C  
HETATM    6  O   UNL     1     -11.337  11.074  67.286  1.00  0.00    -0.408 OA 
HETATM    7  N   UNL     1     -11.485   9.961  69.274  1.00  0.00    -0.452 N  
HETATM    8  H   UNL     1     -11.397   9.062  69.750  1.00  0.00     0.000 HD 
BRANCH   7   9
HETATM    9  C   UNL     1     -12.070  11.107  69.977  1.00  0.00    -0.359 C  
HETATM   10  C   UNL     1     -12.724  10.728  71.306  1.00  0.00    -0.441 C  
HETATM   11  O   UNL     1     -13.261  11.532  72.054  1.00  0.00    -0.509 OA 
HETATM   12  O   UNL     1     -12.606   9.414  71.612  1.00  0.00    -0.327 OA 
ENDBRANCH   7   9
ENDBRANCH   2   5
TORSDOF 2
ENDMDL
MODEL       93
REMARK 921   NORMALIZED FREE ENERGY PREDICTED BY IDOCK:   -2.84 KCAL/MOL
REMARK 922        TOTAL FREE ENERGY PREDICTED BY IDOCK:   -3.26 KCAL/MOL
REMARK 923 INTER-LIGAND FREE ENERGY PREDICTED BY IDOCK:   -3.17 KCAL/MOL
REMARK 924 INTRA-LIGAND FREE ENERGY PREDICTED BY IDOCK:   -0.09 KCAL/MOL
REMARK 927      BINDING AFFINITY PREDICTED BY RF-SCORE:    0.00 PKD
ROOT
HETATM    1  C   UNL     1      -8.894  16.766  66.360  1.00  0.00    -0.331 C  
HETATM    2  C   UNL     1      -9.123  17.552  67.645  1.00  0.00    -0.243 C  
HETATM    3  S   UNL     1     -10.503  18.731  67.424  1.00  0.00    -0.444 SA 
HETATM    4  H   UNL     1     -10.712  19.448  68.596  1.00  0.00     0.000 H  
ENDROOT
BRANCH   2   5
HETATM    5  C   UNL     1      -9.412  16.632  68.836  1.00  0.00    -0.251 C  
HETATM    6  O   UNL     1      -8.573  15.902  69.352  1.00  0.00    -0.256 OA 
HETATM    7  N   UNL     1     -10.682  16.777  69.373  1.00  0.00    -0.327 N  
HETATM    8  H   UNL     1     -11.292  17.525  69.043  1.00  0.00     0.000 HD 
BRANCH   7   9
HETATM    9  C   UNL     1     -11.151  15.857  70.415  1.00  0.00    -0.370 C  
HETATM   10  C   UNL     1     -11.972  14.691  69.865  1.00  0.00    -0.329 C  
HETATM   11  O   UNL     1     -12.448  13.806  70.560  1.00  0.00    -0.337 OA 
HETATM   12  O   UNL     1     -12.080  14.695  68.515  1.00  0.00    -0.284 OA 
ENDBRANCH   7   9
ENDBRANCH   2   5
TORSDOF 2
ENDMDL
MODEL       94
REMARK 921   NORMALIZED FREE ENERGY PREDICTED BY IDOCK:   -2.82 KCAL/MOL
REMARK 922        TOTAL FREE ENERGY PREDICTED BY IDOCK:   -3.24 KCAL/MOL
REMARK 923 INTER-LIGAND FREE ENERGY PREDICTED BY IDOCK:   -3.09 KCAL/MOL
REMARK 924 INTRA-LIGAND FREE ENERGY PREDICTED BY IDOCK:   -0.15 KCAL/MOL
REMARK 927      BINDING AFFINITY PREDICTED BY RF-SCORE:    0.00 PKD
ROOT
HETATM    1  C   UNL     1     -10.455   8.251  67.958  1.00  0.00    -0.239 C  
HETATM    2  C   UNL     1      -9.744   9.247  68.864  1.00  0.00    -0.161 C  
HETATM    3  S   UNL     1      -9.387  10.789  67.948  1.00  0.00    -0.153 SA 
HETATM    4  H   UNL     1      -8.739  11.698  68.775  1.00  0.00     0.000 H  
ENDROOT
BRANCH   2   5
HETATM    5  C   UNL     1     -10.563   9.566  70.119  1.00  0.00    -0.254 C  
HETATM    6  O   UNL     1     -10.139   9.437  71.261  1.00  0.00    -0.302 OA 
HETATM    7  N   UNL     1     -11.802  10.136  69.862  1.00  0.00    -0.436 N  
HETATM    8  H   UNL     1     -12.050  10.405  68.909  1.00  0.00     0.000 HD 
BRANCH   7   9
HETATM    9  C   UNL     1     -12.756  10.352  70.955  1.00  0.00    -0.385 C  
HETATM   10  C   UNL     1     -12.901  11.822  71.346  1.00  0.00    -0.335 C  
HETATM   11  O   UNL     1     -13.651  12.223  72.224  1.00  0.00    -0.472 OA 
HETATM   12  O   UNL     1     -12.157  12.661  70.586  1.00  0.00    -0.357 OA 
ENDBRANCH   7   9
ENDBRANCH   2   5
TORSDOF 2
ENDMDL
MODEL       95
REMARK 921   NORMALIZED FREE ENERGY PREDICTED BY IDOCK:   -2.81 KCAL/MOL
REMARK 922        TOTAL FREE ENERGY PREDICTED BY IDOCK:   -3.23 KCAL/MOL
REMARK 923 INTER-LIGAND FREE ENERGY PREDICTED BY IDOCK:   -3.09 KCAL/MOL
REMARK 924 INTRA-LIGAND FREE ENERGY PREDICTED BY IDOCK:   -0.14 KCAL/MOL
REMARK 927      BINDING AFFINITY PREDICTED BY RF-SCORE:    0.00 PKD
ROOT
HETATM    1  C   UNL     1     -10.668  17.070  67.923  1.00  0.00    -0.348 C  
HETATM    2  C   UNL     1      -9.188  17.325  67.673  1.00  0.00    -0.229 C  
HETATM    3  S   UNL     1      -8.545  16.138  66.439  1.00  0.00    -0.338 SA 
HETATM    4  H   UNL     1      -7.194  16.370  66.211  1.00  0.00     0.000 H  
ENDROOT
BRANCH   2   5
HETATM    5  C   UNL     1      -8.923  18.758  67.202  1.00  0.00    -0.281 C  
HETATM    6  O   UNL     1      -9.782  19.632  67.164  1.00  0.00    -0.320 OA 
HETATM    7  N   UNL     1      -7.591  19.033  66.930  1.00  0.00    -0.228 N  
HETATM    8  H   UNL     1      -6.874  18.342  67.152  1.00  0.00     0.000 HD 
BRANCH   7   9
HETATM    9  C   UNL     1      -7.210  20.314  66.325  1.00  0.00    -0.265 C  
HETATM   10  C   UNL     1      -6.487  20.157  64.988  1.00  0.00    -0.289 C  
HETATM   11  O   UNL     1      -6.093  21.096  64.312  1.00  0.00    -0.293 OA 
HETATM   12  O   UNL     1      -6.367  18.869  64.585  1.00  0.00    -0.495 OA 
ENDBRANCH   7   9
ENDBRANCH   2   5
TORSDOF 2
ENDMDL
MODEL       96
REMARK 921   NORMALIZED FREE ENERGY PREDICTED BY IDOCK:   -2.80 KCAL/MOL
REMARK 922        TOTAL FREE ENERGY PREDICTED BY IDOCK:   -3.21 KCAL/MOL
REMARK 923 INTER-LIGAND FREE ENERGY PREDICTED BY IDOCK:   -3.16 KCAL/MOL
REMARK 924 INTRA-LIGAND FREE ENERGY PREDICTED BY IDOCK:   -0.06 KCAL/MOL
REMARK 927      BINDING AFFINITY PREDICTED BY RF-SCORE:    0.00 PKD
ROOT
HETATM    1  C   UNL     1     -10.768   6.716  68.531  1.00  0.00    -0.308 C  
HETATM    2  C   UNL     1      -9.894   7.809  69.131  1.00  0.00    -0.173 C  
HETATM    3  S   UNL     1      -9.505   9.070  67.866  1.00  0.00    -0.143 SA 
HETATM    4  H   UNL     1      -8.707  10.068  68.413  1.00  0.00     0.000 H  
ENDROOT
BRANCH   2   5
HETATM    5  C   UNL     1     -10.557   8.475  70.341  1.00  0.00    -0.223 C  
HETATM    6  O   UNL     1     -10.022   8.582  71.439  1.00  0.00    -0.195 OA 
HETATM    7  N   UNL     1     -11.783   9.064  70.068  1.00  0.00    -0.451 N  
HETATM    8  H   UNL     1     -12.115   9.124  69.104  1.00  0.00     0.000 HD 
BRANCH   7   9
HETATM    9  C   UNL     1     -12.603   9.603  71.158  1.00  0.00    -0.322 C  
HETATM   10  C   UNL     1     -13.553   8.571  71.764  1.00  0.00    -0.388 C  
HETATM   11  O   UNL     1     -14.315   8.807  72.689  1.00  0.00    -0.585 OA 
HETATM   12  O   UNL     1     -13.434   7.338  71.215  1.00  0.00    -0.369 OA 
ENDBRANCH   7   9
ENDBRANCH   2   5
TORSDOF 2
ENDMDL
MODEL       97
REMARK 921   NORMALIZED FREE ENERGY PREDICTED BY IDOCK:   -2.80 KCAL/MOL
REMARK 922        TOTAL FREE ENERGY PREDICTED BY IDOCK:   -3.21 KCAL/MOL
REMARK 923 INTER-LIGAND FREE ENERGY PREDICTED BY IDOCK:   -3.10 KCAL/MOL
REMARK 924 INTRA-LIGAND FREE ENERGY PREDICTED BY IDOCK:   -0.11 KCAL/MOL
REMARK 927      BINDING AFFINITY PREDICTED BY RF-SCORE:    0.00 PKD
ROOT
HETATM    1  C   UNL     1      -9.305  11.057  67.764  1.00  0.00    -0.162 C  
HETATM    2  C   UNL     1     -10.687  11.029  68.405  1.00  0.00    -0.203 C  
HETATM    3  S   UNL     1     -10.752   9.746  69.707  1.00  0.00    -0.273 SA 
HETATM    4  H   UNL     1     -12.012   9.721  70.291  1.00  0.00     0.000 H  
ENDROOT
BRANCH   2   5
HETATM    5  C   UNL     1     -11.072  12.389  68.996  1.00  0.00    -0.235 C  
HETATM    6  O   UNL     1     -10.522  13.443  68.697  1.00  0.00    -0.243 OA 
HETATM    7  N   UNL     1     -12.188  12.357  69.819  1.00  0.00    -0.188 N  
HETATM    8  H   UNL     1     -12.738  11.501  69.898  1.00  0.00     0.000 HD 
BRANCH   7   9
HETATM    9  C   UNL     1     -12.582  13.551  70.575  1.00  0.00    -0.241 C  
HETATM   10  C   UNL     1     -13.210  13.226  71.930  1.00  0.00    -0.431 C  
HETATM   11  O   UNL     1     -13.597  14.072  72.722  1.00  0.00    -0.629 OA 
HETATM   12  O   UNL     1     -13.249  11.900  72.204  1.00  0.00    -0.494 OA 
ENDBRANCH   7   9
ENDBRANCH   2   5
TORSDOF 2
ENDMDL
MODEL       98
REMARK 921   NORMALIZED FREE ENERGY PREDICTED BY IDOCK:   -2.77 KCAL/MOL
REMARK 922        TOTAL FREE ENERGY PREDICTED BY IDOCK:   -3.18 KCAL/MOL
REMARK 923 INTER-LIGAND FREE ENERGY PREDICTED BY IDOCK:   -3.04 KCAL/MOL
REMARK 924 INTRA-LIGAND FREE ENERGY PREDICTED BY IDOCK:   -0.14 KCAL/MOL
REMARK 927      BINDING AFFINITY PREDICTED BY RF-SCORE:    0.00 PKD
ROOT
HETATM    1  C   UNL     1     -11.039   9.510  71.270  1.00  0.00    -0.449 C  
HETATM    2  C   UNL     1     -10.435  10.126  70.015  1.00  0.00    -0.274 C  
HETATM    3  S   UNL     1     -10.034   8.819  68.801  1.00  0.00    -0.190 SA 
HETATM    4  H   UNL     1      -9.483   9.381  67.656  1.00  0.00     0.000 H  
ENDROOT
BRANCH   2   5
HETATM    5  C   UNL     1     -11.370  11.159  69.377  1.00  0.00    -0.283 C  
HETATM    6  O   UNL     1     -12.523  11.353  69.743  1.00  0.00    -0.209 OA 
HETATM    7  N   UNL     1     -10.767  11.956  68.415  1.00  0.00    -0.211 N  
HETATM    8  H   UNL     1      -9.759  11.899  68.265  1.00  0.00     0.000 HD 
BRANCH   7   9
HETATM    9  C   UNL     1     -11.574  12.881  67.612  1.00  0.00    -0.355 C  
HETATM   10  C   UNL     1     -11.609  12.518  66.128  1.00  0.00    -0.395 C  
HETATM   11  O   UNL     1     -12.230  13.149  65.286  1.00  0.00    -0.401 OA 
HETATM   12  O   UNL     1     -10.926  11.386  65.831  1.00  0.00    -0.274 OA 
ENDBRANCH   7   9
ENDBRANCH   2   5
TORSDOF 2
ENDMDL
MODEL       99
REMARK 921   NORMALIZED FREE ENERGY PREDICTED BY IDOCK:   -2.76 KCAL/MOL
REMARK 922        TOTAL FREE ENERGY PREDICTED BY IDOCK:   -3.17 KCAL/MOL
REMARK 923 INTER-LIGAND FREE ENERGY PREDICTED BY IDOCK:   -3.09 KCAL/MOL
REMARK 924 INTRA-LIGAND FREE ENERGY PREDICTED BY IDOCK:   -0.09 KCAL/MOL
REMARK 927      BINDING AFFINITY PREDICTED BY RF-SCORE:    0.00 PKD
ROOT
HETATM    1  C   UNL     1     -12.123   8.251  72.418  1.00  0.00    -0.430 C  
HETATM    2  C   UNL     1     -12.354   9.077  71.160  1.00  0.00    -0.251 C  
HETATM    3  S   UNL     1     -13.030  10.719  71.600  1.00  0.00    -0.441 SA 
HETATM    4  H   UNL     1     -13.242  11.473  70.452  1.00  0.00     0.000 H  
ENDROOT
BRANCH   2   5
HETATM    5  C   UNL     1     -11.071   9.247  70.341  1.00  0.00    -0.255 C  
HETATM    6  O   UNL     1      -9.984   9.534  70.829  1.00  0.00    -0.278 OA 
HETATM    7  N   UNL     1     -11.206   8.929  68.997  1.00  0.00    -0.403 N  
HETATM    8  H   UNL     1     -12.073   8.513  68.658  1.00  0.00     0.000 HD 
BRANCH   7   9
HETATM    9  C   UNL     1     -10.106   9.190  68.063  1.00  0.00    -0.196 C  
HETATM   10  C   UNL     1     -10.041   8.186  66.913  1.00  0.00    -0.297 C  
HETATM   11  O   UNL     1      -9.209   8.227  66.019  1.00  0.00    -0.192 OA 
HETATM   12  O   UNL     1     -11.034   7.265  66.942  1.00  0.00    -0.343 OA 
ENDBRANCH   7   9
ENDBRANCH   2   5
TORSDOF 2
ENDMDL
MODEL      100
REMARK 921   NORMALIZED FREE ENERGY PREDICTED BY IDOCK:   -2.75 KCAL/MOL
REMARK 922        TOTAL FREE ENERGY PREDICTED BY IDOCK:   -3.16 KCAL/MOL
REMARK 923 INTER-LIGAND FREE ENERGY PREDICTED BY IDOCK:   -3.48 KCAL/MOL
REMARK 924 INTRA-LIGAND FREE ENERGY PREDICTED BY IDOCK:    0.32 KCAL/MOL
REMARK 927      BINDING AFFINITY PREDICTED BY RF-SCORE:    0.00 PKD
ROOT
HETATM    1  C   UNL     1     -10.571  19.513  65.885  1.00  0.00    -0.572 C  
HETATM    2  C   UNL     1      -9.762  18.774  66.943  1.00  0.00    -0.316 C  
HETATM    3  S   UNL     1     -10.138  19.442  68.603  1.00  0.00    -0.383 SA 
HETATM    4  H   UNL     1      -9.399  18.768  69.569  1.00  0.00     0.000 H  
ENDROOT
BRANCH   2   5
HETATM    5  C   UNL     1     -10.027  17.265  66.917  1.00  0.00    -0.294 C  
HETATM    6  O   UNL     1     -10.999  16.735  67.443  1.00  0.00    -0.232 OA 
HETATM    7  N   UNL     1      -9.133  16.543  66.140  1.00  0.00    -0.310 N  
HETATM    8  H   UNL     1      -8.449  17.033  65.563  1.00  0.00     0.000 HD 
BRANCH   7   9
HETATM    9  C   UNL     1      -9.169  15.077  66.145  1.00  0.00    -0.259 C  
HETATM   10  C   UNL     1     -10.286  14.498  65.278  1.00  0.00    -0.410 C  
HETATM   11  O   UNL     1     -10.486  13.301  65.133  1.00  0.00    -0.307 OA 
HETATM   12  O   UNL     1     -11.011  15.441  64.629  1.00  0.00    -0.397 OA 
ENDBRANCH   7   9
ENDBRANCH   2   5
TORSDOF 2
ENDMDL
MODEL      101
REMARK 921   NORMALIZED FREE ENERGY PREDICTED BY IDOCK:   -2.74 KCAL/MOL
REMARK 922        TOTAL FREE ENERGY PREDICTED BY IDOCK:   -3.15 KCAL/MOL
REMARK 923 INTER-LIGAND FREE ENERGY PREDICTED BY IDOCK:   -3.01 KCAL/MOL
REMARK 924 INTRA-LIGAND FREE ENERGY PREDICTED BY IDOCK:   -0.14 KCAL/MOL
REMARK 927      BINDING AFFINITY PREDICTED BY RF-SCORE:    0.00 PKD
ROOT
HETATM    1  C   UNL     1      -9.463  14.975  69.133  1.00  0.00    -0.195 C  
HETATM    2  C   UNL     1      -8.340  15.785  68.499  1.00  0.00    -0.175 C  
HETATM    3  S   UNL     1      -6.861  14.735  68.262  1.00  0.00    -0.128 SA 
HETATM    4  H   UNL     1      -5.837  15.475  67.684  1.00  0.00     0.000 H  
ENDROOT
BRANCH   2   5
HETATM    5  C   UNL     1      -8.761  16.399  67.160  1.00  0.00    -0.186 C  
HETATM    6  O   UNL     1      -7.970  16.828  66.328  1.00  0.00    -0.294 OA 
HETATM    7  N   UNL     1     -10.122  16.325  66.902  1.00  0.00    -0.271 N  
HETATM    8  H   UNL     1     -10.730  15.795  67.526  1.00  0.00     0.000 HD 
BRANCH   7   9
HETATM    9  C   UNL     1     -10.689  17.007  65.733  1.00  0.00    -0.142 C  
HETATM   10  C   UNL     1     -11.256  16.044  64.691  1.00  0.00    -0.330 C  
HETATM   11  O   UNL     1     -11.784  16.403  63.649  1.00  0.00    -0.933 OA 
HETATM   12  O   UNL     1     -11.171  14.742  65.054  1.00  0.00    -0.356 OA 
ENDBRANCH   7   9
ENDBRANCH   2   5
TORSDOF 2
ENDMDL
MODEL      102
REMARK 921   NORMALIZED FREE ENERGY PREDICTED BY IDOCK:   -2.74 KCAL/MOL
REMARK 922        TOTAL FREE ENERGY PREDICTED BY IDOCK:   -3.15 KCAL/MOL
REMARK 923 INTER-LIGAND FREE ENERGY PREDICTED BY IDOCK:   -3.00 KCAL/MOL
REMARK 924 INTRA-LIGAND FREE ENERGY PREDICTED BY IDOCK:   -0.15 KCAL/MOL
REMARK 927      BINDING AFFINITY PREDICTED BY RF-SCORE:    0.00 PKD
ROOT
HETATM    1  C   UNL     1     -12.621  13.930  65.644  1.00  0.00    -0.553 C  
HETATM    2  C   UNL     1     -11.248  13.370  65.994  1.00  0.00    -0.296 C  
HETATM    3  S   UNL     1     -11.065  13.238  67.808  1.00  0.00    -0.277 SA 
HETATM    4  H   UNL     1      -9.813  12.727  68.128  1.00  0.00     0.000 H  
ENDROOT
BRANCH   2   5
HETATM    5  C   UNL     1     -11.005  12.002  65.347  1.00  0.00    -0.300 C  
HETATM    6  O   UNL     1     -11.422  11.689  64.237  1.00  0.00    -0.321 OA 
HETATM    7  N   UNL     1     -10.163  11.171  66.070  1.00  0.00    -0.242 N  
HETATM    8  H   UNL     1      -9.680  11.528  66.895  1.00  0.00     0.000 HD 
BRANCH   7   9
HETATM    9  C   UNL     1      -9.963   9.779  65.652  1.00  0.00    -0.282 C  
HETATM   10  C   UNL     1     -10.350   8.766  66.729  1.00  0.00    -0.258 C  
HETATM   11  O   UNL     1     -10.272   7.555  66.583  1.00  0.00    -0.250 OA 
HETATM   12  O   UNL     1     -10.848   9.333  67.853  1.00  0.00    -0.216 OA 
ENDBRANCH   7   9
ENDBRANCH   2   5
TORSDOF 2
ENDMDL
MODEL      103
REMARK 921   NORMALIZED FREE ENERGY PREDICTED BY IDOCK:   -2.73 KCAL/MOL
REMARK 922        TOTAL FREE ENERGY PREDICTED BY IDOCK:   -3.14 KCAL/MOL
REMARK 923 INTER-LIGAND FREE ENERGY PREDICTED BY IDOCK:   -2.98 KCAL/MOL
REMARK 924 INTRA-LIGAND FREE ENERGY PREDICTED BY IDOCK:   -0.16 KCAL/MOL
REMARK 927      BINDING AFFINITY PREDICTED BY RF-SCORE:    0.00 PKD
ROOT
HETATM    1  C   UNL     1     -11.129  16.623  64.940  1.00  0.00    -0.137 C  
HETATM    2  C   UNL     1     -10.229  16.013  66.005  1.00  0.00    -0.341 C  
HETATM    3  S   UNL     1     -10.767  16.551  67.668  1.00  0.00    -0.275 SA 
HETATM    4  H   UNL     1      -9.945  15.994  68.641  1.00  0.00     0.000 H  
ENDROOT
BRANCH   2   5
HETATM    5  C   UNL     1     -10.212  14.482  65.935  1.00  0.00    -0.322 C  
HETATM    6  O   UNL     1     -10.226  13.848  64.886  1.00  0.00    -0.395 OA 
HETATM    7  N   UNL     1     -10.058  13.856  67.163  1.00  0.00    -0.249 N  
HETATM    8  H   UNL     1      -9.860  14.412  67.996  1.00  0.00     0.000 HD 
BRANCH   7   9
HETATM    9  C   UNL     1     -10.179  12.399  67.269  1.00  0.00    -0.215 C  
HETATM   10  C   UNL     1     -11.467  11.949  67.959  1.00  0.00    -0.323 C  
HETATM   11  O   UNL     1     -11.770  10.779  68.140  1.00  0.00    -0.501 OA 
HETATM   12  O   UNL     1     -12.281  12.974  68.307  1.00  0.00    -0.225 OA 
ENDBRANCH   7   9
ENDBRANCH   2   5
TORSDOF 2
ENDMDL
MODEL      104
REMARK 921   NORMALIZED FREE ENERGY PREDICTED BY IDOCK:   -2.73 KCAL/MOL
REMARK 922        TOTAL FREE ENERGY PREDICTED BY IDOCK:   -3.14 KCAL/MOL
REMARK 923 INTER-LIGAND FREE ENERGY PREDICTED BY IDOCK:   -3.01 KCAL/MOL
REMARK 924 INTRA-LIGAND FREE ENERGY PREDICTED BY IDOCK:   -0.13 KCAL/MOL
REMARK 927      BINDING AFFINITY PREDICTED BY RF-SCORE:    0.00 PKD
ROOT
HETATM    1  C   UNL     1     -14.314   8.702  72.245  1.00  0.00    -0.486 C  
HETATM    2  C   UNL     1     -13.309   9.397  71.337  1.00  0.00    -0.346 C  
HETATM    3  S   UNL     1     -13.132  11.152  71.820  1.00  0.00    -0.327 SA 
HETATM    4  H   UNL     1     -12.215  11.787  70.992  1.00  0.00     0.000 H  
ENDROOT
BRANCH   2   5
HETATM    5  C   UNL     1     -11.940   8.710  71.364  1.00  0.00    -0.304 C  
HETATM    6  O   UNL     1     -11.487   8.132  72.346  1.00  0.00    -0.345 OA 
HETATM    7  N   UNL     1     -11.289   8.687  70.140  1.00  0.00    -0.435 N  
HETATM    8  H   UNL     1     -11.772   9.009  69.300  1.00  0.00     0.000 HD 
BRANCH   7   9
HETATM    9  C   UNL     1      -9.908   8.201  70.048  1.00  0.00    -0.182 C  
HETATM   10  C   UNL     1      -9.794   6.834  69.375  1.00  0.00    -0.156 C  
HETATM   11  O   UNL     1      -8.735   6.253  69.187  1.00  0.00    -0.122 OA 
HETATM   12  O   UNL     1     -10.981   6.339  68.949  1.00  0.00    -0.306 OA 
ENDBRANCH   7   9
ENDBRANCH   2   5
TORSDOF 2
ENDMDL
MODEL      105
REMARK 921   NORMALIZED FREE ENERGY PREDICTED BY IDOCK:   -2.72 KCAL/MOL
REMARK 922        TOTAL FREE ENERGY PREDICTED BY IDOCK:   -3.13 KCAL/MOL
REMARK 923 INTER-LIGAND FREE ENERGY PREDICTED BY IDOCK:   -3.00 KCAL/MOL
REMARK 924 INTRA-LIGAND FREE ENERGY PREDICTED BY IDOCK:   -0.13 KCAL/MOL
REMARK 927      BINDING AFFINITY PREDICTED BY RF-SCORE:    0.00 PKD
ROOT
HETATM    1  C   UNL     1     -10.288  13.451  68.657  1.00  0.00    -0.213 C  
HETATM    2  C   UNL     1     -11.477  12.918  67.869  1.00  0.00    -0.318 C  
HETATM    3  S   UNL     1     -12.206  14.251  66.851  1.00  0.00    -0.199 SA 
HETATM    4  H   UNL     1     -13.291  13.765  66.131  1.00  0.00     0.000 H  
ENDROOT
BRANCH   2   5
HETATM    5  C   UNL     1     -11.089  11.736  66.975  1.00  0.00    -0.304 C  
HETATM    6  O   UNL     1     -11.503  10.594  67.137  1.00  0.00    -0.359 OA 
HETATM    7  N   UNL     1     -10.314  12.080  65.877  1.00  0.00    -0.236 N  
HETATM    8  H   UNL     1     -10.143  13.064  65.664  1.00  0.00     0.000 HD 
BRANCH   7   9
HETATM    9  C   UNL     1      -9.740  11.037  65.021  1.00  0.00    -0.254 C  
HETATM   10  C   UNL     1     -10.150  11.167  63.555  1.00  0.00    -0.385 C  
HETATM   11  O   UNL     1      -9.775  10.408  62.673  1.00  0.00    -0.298 OA 
HETATM   12  O   UNL     1     -10.931  12.245  63.305  1.00  0.00    -0.432 OA 
ENDBRANCH   7   9
ENDBRANCH   2   5
TORSDOF 2
ENDMDL
MODEL      106
REMARK 921   NORMALIZED FREE ENERGY PREDICTED BY IDOCK:   -2.72 KCAL/MOL
REMARK 922        TOTAL FREE ENERGY PREDICTED BY IDOCK:   -3.13 KCAL/MOL
REMARK 923 INTER-LIGAND FREE ENERGY PREDICTED BY IDOCK:   -3.04 KCAL/MOL
REMARK 924 INTRA-LIGAND FREE ENERGY PREDICTED BY IDOCK:   -0.09 KCAL/MOL
REMARK 927      BINDING AFFINITY PREDICTED BY RF-SCORE:    0.00 PKD
ROOT
HETATM    1  C   UNL     1     -11.023  12.716  65.640  1.00  0.00    -0.313 C  
HETATM    2  C   UNL     1     -10.087  13.849  66.037  1.00  0.00    -0.313 C  
HETATM    3  S   UNL     1     -10.708  15.438  65.379  1.00  0.00    -0.425 SA 
HETATM    4  H   UNL     1      -9.855  16.473  65.741  1.00  0.00     0.000 H  
ENDROOT
BRANCH   2   5
HETATM    5  C   UNL     1      -9.916  13.947  67.556  1.00  0.00    -0.240 C  
HETATM    6  O   UNL     1      -9.737  12.979  68.286  1.00  0.00    -0.222 OA 
HETATM    7  N   UNL     1      -9.859  15.245  68.041  1.00  0.00    -0.215 N  
HETATM    8  H   UNL     1      -9.821  16.031  67.391  1.00  0.00     0.000 HD 
BRANCH   7   9
HETATM    9  C   UNL     1      -9.853  15.494  69.487  1.00  0.00    -0.284 C  
HETATM   10  C   UNL     1     -11.248  15.733  70.063  1.00  0.00    -0.342 C  
HETATM   11  O   UNL     1     -11.469  15.948  71.246  1.00  0.00    -0.387 OA 
HETATM   12  O   UNL     1     -12.238  15.630  69.145  1.00  0.00    -0.298 OA 
ENDBRANCH   7   9
ENDBRANCH   2   5
TORSDOF 2
ENDMDL
MODEL      107
REMARK 921   NORMALIZED FREE ENERGY PREDICTED BY IDOCK:   -2.70 KCAL/MOL
REMARK 922        TOTAL FREE ENERGY PREDICTED BY IDOCK:   -3.10 KCAL/MOL
REMARK 923 INTER-LIGAND FREE ENERGY PREDICTED BY IDOCK:   -2.96 KCAL/MOL
REMARK 924 INTRA-LIGAND FREE ENERGY PREDICTED BY IDOCK:   -0.14 KCAL/MOL
REMARK 927      BINDING AFFINITY PREDICTED BY RF-SCORE:    0.00 PKD
ROOT
HETATM    1  C   UNL     1      -8.795   8.208  67.769  1.00  0.00    -0.130 C  
HETATM    2  C   UNL     1      -8.888   9.405  66.832  1.00  0.00    -0.127 C  
HETATM    3  S   UNL     1      -8.817   8.849  65.091  1.00  0.00    -0.124 SA 
HETATM    4  H   UNL     1      -8.902   9.940  64.235  1.00  0.00     0.000 H  
ENDROOT
BRANCH   2   5
HETATM    5  C   UNL     1     -10.165  10.218  67.065  1.00  0.00    -0.228 C  
HETATM    6  O   UNL     1     -11.067   9.870  67.818  1.00  0.00    -0.269 OA 
HETATM    7  N   UNL     1     -10.174  11.458  66.443  1.00  0.00    -0.223 N  
HETATM    8  H   UNL     1      -9.331  11.800  65.978  1.00  0.00     0.000 HD 
BRANCH   7   9
HETATM    9  C   UNL     1     -11.389  12.279  66.450  1.00  0.00    -0.354 C  
HETATM   10  C   UNL     1     -12.042  12.400  65.074  1.00  0.00    -0.407 C  
HETATM   11  O   UNL     1     -13.068  13.029  64.860  1.00  0.00    -0.745 OA 
HETATM   12  O   UNL     1     -11.407  11.694  64.109  1.00  0.00    -0.352 OA 
ENDBRANCH   7   9
ENDBRANCH   2   5
TORSDOF 2
ENDMDL
MODEL      108
REMARK 921   NORMALIZED FREE ENERGY PREDICTED BY IDOCK:   -2.69 KCAL/MOL
REMARK 922        TOTAL FREE ENERGY PREDICTED BY IDOCK:   -3.09 KCAL/MOL
REMARK 923 INTER-LIGAND FREE ENERGY PREDICTED BY IDOCK:   -2.97 KCAL/MOL
REMARK 924 INTRA-LIGAND FREE ENERGY PREDICTED BY IDOCK:   -0.12 KCAL/MOL
REMARK 927      BINDING AFFINITY PREDICTED BY RF-SCORE:    0.00 PKD
ROOT
HETATM    1  C   UNL     1     -12.758  10.201  71.667  1.00  0.00    -0.549 C  
HETATM    2  C   UNL     1     -12.764   8.733  72.072  1.00  0.00    -0.387 C  
HETATM    3  S   UNL     1     -14.405   7.996  71.741  1.00  0.00    -0.482 SA 
HETATM    4  H   UNL     1     -14.412   6.657  72.111  1.00  0.00     0.000 H  
ENDROOT
BRANCH   2   5
HETATM    5  C   UNL     1     -11.679   7.932  71.346  1.00  0.00    -0.281 C  
HETATM    6  O   UNL     1     -11.311   6.815  71.690  1.00  0.00    -0.244 OA 
HETATM    7  N   UNL     1     -11.219   8.524  70.179  1.00  0.00    -0.406 N  
HETATM    8  H   UNL     1     -11.678   9.361  69.817  1.00  0.00     0.000 HD 
BRANCH   7   9
HETATM    9  C   UNL     1     -10.075   7.950  69.462  1.00  0.00    -0.195 C  
HETATM   10  C   UNL     1      -8.763   8.684  69.735  1.00  0.00    -0.132 C  
HETATM   11  O   UNL     1      -7.689   8.364  69.247  1.00  0.00    -0.094 OA 
HETATM   12  O   UNL     1      -8.886   9.701  70.620  1.00  0.00    -0.200 OA 
ENDBRANCH   7   9
ENDBRANCH   2   5
TORSDOF 2
ENDMDL
MODEL      109
REMARK 921   NORMALIZED FREE ENERGY PREDICTED BY IDOCK:   -2.66 KCAL/MOL
REMARK 922        TOTAL FREE ENERGY PREDICTED BY IDOCK:   -3.05 KCAL/MOL
REMARK 923 INTER-LIGAND FREE ENERGY PREDICTED BY IDOCK:   -2.95 KCAL/MOL
REMARK 924 INTRA-LIGAND FREE ENERGY PREDICTED BY IDOCK:   -0.10 KCAL/MOL
REMARK 927      BINDING AFFINITY PREDICTED BY RF-SCORE:    0.00 PKD
ROOT
HETATM    1  C   UNL     1     -11.085  16.651  68.609  1.00  0.00    -0.294 C  
HETATM    2  C   UNL     1     -10.718  15.358  69.325  1.00  0.00    -0.251 C  
HETATM    3  S   UNL     1     -12.033  14.900  70.510  1.00  0.00    -0.336 SA 
HETATM    4  H   UNL     1     -11.699  13.720  71.164  1.00  0.00     0.000 H  
ENDROOT
BRANCH   2   5
HETATM    5  C   UNL     1     -10.480  14.206  68.343  1.00  0.00    -0.254 C  
HETATM    6  O   UNL     1     -10.519  13.022  68.658  1.00  0.00    -0.249 OA 
HETATM    7  N   UNL     1     -10.331  14.604  67.023  1.00  0.00    -0.261 N  
HETATM    8  H   UNL     1     -10.492  15.578  66.763  1.00  0.00     0.000 HD 
BRANCH   7   9
HETATM    9  C   UNL     1      -9.945  13.629  65.997  1.00  0.00    -0.302 C  
HETATM   10  C   UNL     1     -11.136  13.066  65.222  1.00  0.00    -0.286 C  
HETATM   11  O   UNL     1     -11.035  12.249  64.318  1.00  0.00    -0.298 OA 
HETATM   12  O   UNL     1     -12.324  13.599  65.593  1.00  0.00    -0.421 OA 
ENDBRANCH   7   9
ENDBRANCH   2   5
TORSDOF 2
ENDMDL
MODEL      110
REMARK 921   NORMALIZED FREE ENERGY PREDICTED BY IDOCK:   -2.65 KCAL/MOL
REMARK 922        TOTAL FREE ENERGY PREDICTED BY IDOCK:   -3.05 KCAL/MOL
REMARK 923 INTER-LIGAND FREE ENERGY PREDICTED BY IDOCK:   -2.95 KCAL/MOL
REMARK 924 INTRA-LIGAND FREE ENERGY PREDICTED BY IDOCK:   -0.10 KCAL/MOL
REMARK 927      BINDING AFFINITY PREDICTED BY RF-SCORE:    0.00 PKD
ROOT
HETATM    1  C   UNL     1     -10.392  15.492  69.707  1.00  0.00    -0.316 C  
HETATM    2  C   UNL     1     -11.169  15.959  68.483  1.00  0.00    -0.362 C  
HETATM    3  S   UNL     1     -10.723  17.685  68.075  1.00  0.00    -0.244 SA 
HETATM    4  H   UNL     1     -11.431  18.111  66.958  1.00  0.00     0.000 H  
ENDROOT
BRANCH   2   5
HETATM    5  C   UNL     1     -10.921  15.058  67.269  1.00  0.00    -0.326 C  
HETATM    6  O   UNL     1     -10.012  15.232  66.465  1.00  0.00    -0.246 OA 
HETATM    7  N   UNL     1     -11.741  13.941  67.211  1.00  0.00    -0.363 N  
HETATM    8  H   UNL     1     -12.359  13.722  67.993  1.00  0.00     0.000 HD 
BRANCH   7   9
HETATM    9  C   UNL     1     -11.723  13.073  66.029  1.00  0.00    -0.393 C  
HETATM   10  C   UNL     1     -10.859  11.825  66.210  1.00  0.00    -0.281 C  
HETATM   11  O   UNL     1     -10.715  10.966  65.353  1.00  0.00    -0.219 OA 
HETATM   12  O   UNL     1     -10.303  11.726  67.441  1.00  0.00    -0.200 OA 
ENDBRANCH   7   9
ENDBRANCH   2   5
TORSDOF 2
ENDMDL
MODEL      111
REMARK 921   NORMALIZED FREE ENERGY PREDICTED BY IDOCK:   -2.65 KCAL/MOL
REMARK 922        TOTAL FREE ENERGY PREDICTED BY IDOCK:   -3.05 KCAL/MOL
REMARK 923 INTER-LIGAND FREE ENERGY PREDICTED BY IDOCK:   -2.91 KCAL/MOL
REMARK 924 INTRA-LIGAND FREE ENERGY PREDICTED BY IDOCK:   -0.14 KCAL/MOL
REMARK 927      BINDING AFFINITY PREDICTED BY RF-SCORE:    0.00 PKD
ROOT
HETATM    1  C   UNL     1     -10.474  13.778  68.572  1.00  0.00    -0.248 C  
HETATM    2  C   UNL     1      -9.658  15.043  68.803  1.00  0.00    -0.220 C  
HETATM    3  S   UNL     1      -7.961  14.824  68.159  1.00  0.00    -0.139 SA 
HETATM    4  H   UNL     1      -7.216  15.978  68.370  1.00  0.00     0.000 H  
ENDROOT
BRANCH   2   5
HETATM    5  C   UNL     1     -10.306  16.270  68.154  1.00  0.00    -0.277 C  
HETATM    6  O   UNL     1     -11.516  16.456  68.104  1.00  0.00    -0.283 OA 
HETATM    7  N   UNL     1      -9.403  17.232  67.725  1.00  0.00    -0.247 N  
HETATM    8  H   UNL     1      -8.412  17.136  67.950  1.00  0.00     0.000 HD 
BRANCH   7   9
HETATM    9  C   UNL     1      -9.867  18.386  66.948  1.00  0.00    -0.338 C  
HETATM   10  C   UNL     1      -9.594  19.723  67.635  1.00  0.00    -0.355 C  
HETATM   11  O   UNL     1      -9.890  20.808  67.156  1.00  0.00    -0.463 OA 
HETATM   12  O   UNL     1      -8.936  19.603  68.813  1.00  0.00    -0.342 OA 
ENDBRANCH   7   9
ENDBRANCH   2   5
TORSDOF 2
ENDMDL
MODEL      112
REMARK 921   NORMALIZED FREE ENERGY PREDICTED BY IDOCK:   -2.64 KCAL/MOL
REMARK 922        TOTAL FREE ENERGY PREDICTED BY IDOCK:   -3.04 KCAL/MOL
REMARK 923 INTER-LIGAND FREE ENERGY PREDICTED BY IDOCK:   -2.90 KCAL/MOL
REMARK 924 INTRA-LIGAND FREE ENERGY PREDICTED BY IDOCK:   -0.14 KCAL/MOL
REMARK 927      BINDING AFFINITY PREDICTED BY RF-SCORE:    0.00 PKD
ROOT
HETATM    1  C   UNL     1      -9.543  19.412  68.295  1.00  0.00    -0.454 C  
HETATM    2  C   UNL     1      -8.567  19.578  67.139  1.00  0.00    -0.297 C  
HETATM    3  S   UNL     1      -7.133  20.584  67.664  1.00  0.00    -0.313 SA 
HETATM    4  H   UNL     1      -6.242  20.735  66.609  1.00  0.00     0.000 H  
ENDROOT
BRANCH   2   5
HETATM    5  C   UNL     1      -8.084  18.228  66.598  1.00  0.00    -0.260 C  
HETATM    6  O   UNL     1      -7.448  18.099  65.557  1.00  0.00    -0.540 OA 
HETATM    7  N   UNL     1      -8.319  17.156  67.446  1.00  0.00    -0.188 N  
HETATM    8  H   UNL     1      -8.679  17.321  68.387  1.00  0.00     0.000 HD 
BRANCH   7   9
HETATM    9  C   UNL     1      -8.051  15.786  66.996  1.00  0.00    -0.236 C  
HETATM   10  C   UNL     1      -6.788  15.186  67.613  1.00  0.00    -0.180 C  
HETATM   11  O   UNL     1      -6.390  14.053  67.382  1.00  0.00    -0.323 OA 
HETATM   12  O   UNL     1      -6.171  16.009  68.494  1.00  0.00    -0.107 OA 
ENDBRANCH   7   9
ENDBRANCH   2   5
TORSDOF 2
ENDMDL
MODEL      113
REMARK 921   NORMALIZED FREE ENERGY PREDICTED BY IDOCK:   -2.63 KCAL/MOL
REMARK 922        TOTAL FREE ENERGY PREDICTED BY IDOCK:   -3.03 KCAL/MOL
REMARK 923 INTER-LIGAND FREE ENERGY PREDICTED BY IDOCK:   -2.91 KCAL/MOL
REMARK 924 INTRA-LIGAND FREE ENERGY PREDICTED BY IDOCK:   -0.12 KCAL/MOL
REMARK 927      BINDING AFFINITY PREDICTED BY RF-SCORE:    0.00 PKD
ROOT
HETATM    1  C   UNL     1     -11.022   6.647  67.198  1.00  0.00    -0.478 C  
HETATM    2  C   UNL     1      -9.879   7.617  67.467  1.00  0.00    -0.165 C  
HETATM    3  S   UNL     1     -10.011   9.069  66.364  1.00  0.00    -0.276 SA 
HETATM    4  H   UNL     1      -8.968   9.954  66.609  1.00  0.00     0.000 H  
ENDROOT
BRANCH   2   5
HETATM    5  C   UNL     1      -9.848   8.076  68.929  1.00  0.00    -0.175 C  
HETATM    6  O   UNL     1      -8.857   8.003  69.646  1.00  0.00    -0.139 OA 
HETATM    7  N   UNL     1     -11.010   8.702  69.354  1.00  0.00    -0.428 N  
HETATM    8  H   UNL     1     -11.747   8.918  68.682  1.00  0.00     0.000 HD 
BRANCH   7   9
HETATM    9  C   UNL     1     -11.184   9.056  70.767  1.00  0.00    -0.275 C  
HETATM   10  C   UNL     1     -12.009   8.033  71.547  1.00  0.00    -0.297 C  
HETATM   11  O   UNL     1     -12.262   8.129  72.739  1.00  0.00    -0.300 OA 
HETATM   12  O   UNL     1     -12.392   6.967  70.805  1.00  0.00    -0.376 OA 
ENDBRANCH   7   9
ENDBRANCH   2   5
TORSDOF 2
ENDMDL
MODEL      114
REMARK 921   NORMALIZED FREE ENERGY PREDICTED BY IDOCK:   -2.62 KCAL/MOL
REMARK 922        TOTAL FREE ENERGY PREDICTED BY IDOCK:   -3.02 KCAL/MOL
REMARK 923 INTER-LIGAND FREE ENERGY PREDICTED BY IDOCK:   -2.92 KCAL/MOL
REMARK 924 INTRA-LIGAND FREE ENERGY PREDICTED BY IDOCK:   -0.09 KCAL/MOL
REMARK 927      BINDING AFFINITY PREDICTED BY RF-SCORE:    0.00 PKD
ROOT
HETATM    1  C   UNL     1      -8.583   9.743  62.892  1.00  0.00    -0.195 C  
HETATM    2  C   UNL     1      -9.465   9.986  64.110  1.00  0.00    -0.252 C  
HETATM    3  S   UNL     1      -8.479   9.828  65.642  1.00  0.00    -0.145 SA 
HETATM    4  H   UNL     1      -9.283  10.050  66.754  1.00  0.00     0.000 H  
ENDROOT
BRANCH   2   5
HETATM    5  C   UNL     1     -10.137  11.362  64.065  1.00  0.00    -0.320 C  
HETATM    6  O   UNL     1     -10.101  12.108  63.093  1.00  0.00    -0.383 OA 
HETATM    7  N   UNL     1     -10.905  11.658  65.182  1.00  0.00    -0.295 N  
HETATM    8  H   UNL     1     -11.071  10.942  65.890  1.00  0.00     0.000 HD 
BRANCH   7   9
HETATM    9  C   UNL     1     -11.482  12.996  65.348  1.00  0.00    -0.312 C  
HETATM   10  C   UNL     1     -11.813  13.334  66.801  1.00  0.00    -0.394 C  
HETATM   11  O   UNL     1     -12.290  14.400  67.161  1.00  0.00    -0.335 OA 
HETATM   12  O   UNL     1     -11.475  12.356  67.674  1.00  0.00    -0.293 OA 
ENDBRANCH   7   9
ENDBRANCH   2   5
TORSDOF 2
ENDMDL
MODEL      115
REMARK 921   NORMALIZED FREE ENERGY PREDICTED BY IDOCK:   -2.62 KCAL/MOL
REMARK 922        TOTAL FREE ENERGY PREDICTED BY IDOCK:   -3.01 KCAL/MOL
REMARK 923 INTER-LIGAND FREE ENERGY PREDICTED BY IDOCK:   -2.88 KCAL/MOL
REMARK 924 INTRA-LIGAND FREE ENERGY PREDICTED BY IDOCK:   -0.14 KCAL/MOL
REMARK 927      BINDING AFFINITY PREDICTED BY RF-SCORE:    0.00 PKD
ROOT
HETATM    1  C   UNL     1      -8.391   5.683  69.440  1.00  0.00    -0.107 C  
HETATM    2  C   UNL     1      -9.697   4.986  69.798  1.00  0.00    -0.196 C  
HETATM    3  S   UNL     1      -9.552   4.177  71.432  1.00  0.00    -0.178 SA 
HETATM    4  H   UNL     1     -10.743   3.542  71.759  1.00  0.00     0.000 H  
ENDROOT
BRANCH   2   5
HETATM    5  C   UNL     1     -10.882   5.957  69.802  1.00  0.00    -0.377 C  
HETATM    6  O   UNL     1     -11.334   6.486  68.793  1.00  0.00    -0.278 OA 
HETATM    7  N   UNL     1     -11.493   6.105  71.039  1.00  0.00    -0.292 N  
HETATM    8  H   UNL     1     -11.214   5.509  71.819  1.00  0.00     0.000 HD 
BRANCH   7   9
HETATM    9  C   UNL     1     -12.540   7.115  71.228  1.00  0.00    -0.380 C  
HETATM   10  C   UNL     1     -12.102   8.276  72.121  1.00  0.00    -0.367 C  
HETATM   11  O   UNL     1     -12.816   9.228  72.399  1.00  0.00    -0.387 OA 
HETATM   12  O   UNL     1     -10.817   8.183  72.539  1.00  0.00    -0.314 OA 
ENDBRANCH   7   9
ENDBRANCH   2   5
TORSDOF 2
ENDMDL
MODEL      116
REMARK 921   NORMALIZED FREE ENERGY PREDICTED BY IDOCK:   -2.62 KCAL/MOL
REMARK 922        TOTAL FREE ENERGY PREDICTED BY IDOCK:   -3.01 KCAL/MOL
REMARK 923 INTER-LIGAND FREE ENERGY PREDICTED BY IDOCK:   -2.92 KCAL/MOL
REMARK 924 INTRA-LIGAND FREE ENERGY PREDICTED BY IDOCK:   -0.10 KCAL/MOL
REMARK 927      BINDING AFFINITY PREDICTED BY RF-SCORE:    0.00 PKD
ROOT
HETATM    1  C   UNL     1     -10.536   3.923  72.710  1.00  0.00    -0.206 C  
HETATM    2  C   UNL     1     -11.159   5.289  72.968  1.00  0.00    -0.317 C  
HETATM    3  S   UNL     1     -10.270   6.140  74.321  1.00  0.00    -0.291 SA 
HETATM    4  H   UNL     1     -10.838   7.386  74.557  1.00  0.00     0.000 H  
ENDROOT
BRANCH   2   5
HETATM    5  C   UNL     1     -11.158   6.167  71.713  1.00  0.00    -0.274 C  
HETATM    6  O   UNL     1     -11.083   5.725  70.572  1.00  0.00    -0.289 OA 
HETATM    7  N   UNL     1     -11.373   7.515  71.960  1.00  0.00    -0.262 N  
HETATM    8  H   UNL     1     -11.621   7.827  72.899  1.00  0.00     0.000 HD 
BRANCH   7   9
HETATM    9  C   UNL     1     -11.246   8.493  70.874  1.00  0.00    -0.266 C  
HETATM   10  C   UNL     1     -12.031   9.779  71.128  1.00  0.00    -0.376 C  
HETATM   11  O   UNL     1     -12.053  10.727  70.356  1.00  0.00    -0.293 OA 
HETATM   12  O   UNL     1     -12.665   9.800  72.324  1.00  0.00    -0.342 OA 
ENDBRANCH   7   9
ENDBRANCH   2   5
TORSDOF 2
ENDMDL
MODEL      117
REMARK 921   NORMALIZED FREE ENERGY PREDICTED BY IDOCK:   -2.61 KCAL/MOL
REMARK 922        TOTAL FREE ENERGY PREDICTED BY IDOCK:   -3.01 KCAL/MOL
REMARK 923 INTER-LIGAND FREE ENERGY PREDICTED BY IDOCK:   -2.90 KCAL/MOL
REMARK 924 INTRA-LIGAND FREE ENERGY PREDICTED BY IDOCK:   -0.11 KCAL/MOL
REMARK 927      BINDING AFFINITY PREDICTED BY RF-SCORE:    0.00 PKD
ROOT
HETATM    1  C   UNL     1      -9.764   6.644  70.388  1.00  0.00    -0.186 C  
HETATM    2  C   UNL     1     -10.782   7.769  70.520  1.00  0.00    -0.236 C  
HETATM    3  S   UNL     1     -10.604   8.592  72.143  1.00  0.00    -0.344 SA 
HETATM    4  H   UNL     1     -11.532   9.618  72.264  1.00  0.00     0.000 H  
ENDROOT
BRANCH   2   5
HETATM    5  C   UNL     1     -10.646   8.801  69.396  1.00  0.00    -0.209 C  
HETATM    6  O   UNL     1      -9.895   8.668  68.436  1.00  0.00    -0.162 OA 
HETATM    7  N   UNL     1     -11.536   9.861  69.484  1.00  0.00    -0.456 N  
HETATM    8  H   UNL     1     -12.275   9.847  70.188  1.00  0.00     0.000 HD 
BRANCH   7   9
HETATM    9  C   UNL     1     -11.420  11.000  68.568  1.00  0.00    -0.309 C  
HETATM   10  C   UNL     1     -11.757  12.338  69.225  1.00  0.00    -0.330 C  
HETATM   11  O   UNL     1     -11.713  13.413  68.644  1.00  0.00    -0.305 OA 
HETATM   12  O   UNL     1     -12.059  12.234  70.541  1.00  0.00    -0.364 OA 
ENDBRANCH   7   9
ENDBRANCH   2   5
TORSDOF 2
ENDMDL
MODEL      118
REMARK 921   NORMALIZED FREE ENERGY PREDICTED BY IDOCK:   -2.60 KCAL/MOL
REMARK 922        TOTAL FREE ENERGY PREDICTED BY IDOCK:   -2.99 KCAL/MOL
REMARK 923 INTER-LIGAND FREE ENERGY PREDICTED BY IDOCK:   -2.86 KCAL/MOL
REMARK 924 INTRA-LIGAND FREE ENERGY PREDICTED BY IDOCK:   -0.13 KCAL/MOL
REMARK 927      BINDING AFFINITY PREDICTED BY RF-SCORE:    0.00 PKD
ROOT
HETATM    1  C   UNL     1     -10.579   9.042  68.630  1.00  0.00    -0.194 C  
HETATM    2  C   UNL     1     -10.019  10.047  67.632  1.00  0.00    -0.176 C  
HETATM    3  S   UNL     1      -9.745   9.240  66.014  1.00  0.00    -0.282 SA 
HETATM    4  H   UNL     1      -9.234  10.156  65.103  1.00  0.00     0.000 H  
ENDROOT
BRANCH   2   5
HETATM    5  C   UNL     1     -10.940  11.259  67.460  1.00  0.00    -0.265 C  
HETATM    6  O   UNL     1     -12.132  11.255  67.743  1.00  0.00    -0.631 OA 
HETATM    7  N   UNL     1     -10.289  12.418  67.064  1.00  0.00    -0.219 N  
HETATM    8  H   UNL     1      -9.269  12.439  67.019  1.00  0.00     0.000 HD 
BRANCH   7   9
HETATM    9  C   UNL     1     -11.061  13.614  66.711  1.00  0.00    -0.307 C  
HETATM   10  C   UNL     1     -10.913  14.748  67.725  1.00  0.00    -0.291 C  
HETATM   11  O   UNL     1     -11.461  15.835  67.616  1.00  0.00    -0.254 OA 
HETATM   12  O   UNL     1     -10.064  14.459  68.740  1.00  0.00    -0.236 OA 
ENDBRANCH   7   9
ENDBRANCH   2   5
TORSDOF 2
ENDMDL
MODEL      119
REMARK 921   NORMALIZED FREE ENERGY PREDICTED BY IDOCK:   -2.59 KCAL/MOL
REMARK 922        TOTAL FREE ENERGY PREDICTED BY IDOCK:   -2.98 KCAL/MOL
REMARK 923 INTER-LIGAND FREE ENERGY PREDICTED BY IDOCK:   -2.89 KCAL/MOL
REMARK 924 INTRA-LIGAND FREE ENERGY PREDICTED BY IDOCK:   -0.09 KCAL/MOL
REMARK 927      BINDING AFFINITY PREDICTED BY RF-SCORE:    0.00 PKD
ROOT
HETATM    1  C   UNL     1     -11.276  15.604  67.900  1.00  0.00    -0.328 C  
HETATM    2  C   UNL     1     -10.744  15.443  66.483  1.00  0.00    -0.308 C  
HETATM    3  S   UNL     1      -8.978  15.912  66.416  1.00  0.00    -0.350 SA 
HETATM    4  H   UNL     1      -8.492  15.765  65.123  1.00  0.00     0.000 H  
ENDROOT
BRANCH   2   5
HETATM    5  C   UNL     1     -10.922  14.013  65.962  1.00  0.00    -0.298 C  
HETATM    6  O   UNL     1     -11.132  13.737  64.787  1.00  0.00    -0.342 OA 
HETATM    7  N   UNL     1     -10.706  13.029  66.915  1.00  0.00    -0.261 N  
HETATM    8  H   UNL     1     -10.348  13.282  67.836  1.00  0.00     0.000 HD 
BRANCH   7   9
HETATM    9  C   UNL     1     -10.990  11.624  66.602  1.00  0.00    -0.299 C  
HETATM   10  C   UNL     1     -10.686  10.675  67.761  1.00  0.00    -0.257 C  
HETATM   11  O   UNL     1     -10.861   9.467  67.715  1.00  0.00    -0.252 OA 
HETATM   12  O   UNL     1     -10.251  11.307  68.877  1.00  0.00    -0.200 OA 
ENDBRANCH   7   9
ENDBRANCH   2   5
TORSDOF 2
ENDMDL
MODEL      120
REMARK 921   NORMALIZED FREE ENERGY PREDICTED BY IDOCK:   -2.59 KCAL/MOL
REMARK 922        TOTAL FREE ENERGY PREDICTED BY IDOCK:   -2.97 KCAL/MOL
REMARK 923 INTER-LIGAND FREE ENERGY PREDICTED BY IDOCK:   -2.89 KCAL/MOL
REMARK 924 INTRA-LIGAND FREE ENERGY PREDICTED BY IDOCK:   -0.09 KCAL/MOL
REMARK 927      BINDING AFFINITY PREDICTED BY RF-SCORE:    0.00 PKD
ROOT
HETATM    1  C   UNL     1     -11.197  14.956  66.689  1.00  0.00    -0.340 C  
HETATM    2  C   UNL     1     -10.257  14.683  67.856  1.00  0.00    -0.226 C  
HETATM    3  S   UNL     1     -11.150  14.871  69.441  1.00  0.00    -0.292 SA 
HETATM    4  H   UNL     1     -10.293  14.622  70.505  1.00  0.00     0.000 H  
ENDROOT
BRANCH   2   5
HETATM    5  C   UNL     1      -9.632  13.287  67.774  1.00  0.00    -0.214 C  
HETATM    6  O   UNL     1      -8.764  12.975  66.966  1.00  0.00    -0.210 OA 
HETATM    7  N   UNL     1     -10.040  12.420  68.776  1.00  0.00    -0.406 N  
HETATM    8  H   UNL     1     -10.617  12.765  69.544  1.00  0.00     0.000 HD 
BRANCH   7   9
HETATM    9  C   UNL     1      -9.645  11.008  68.737  1.00  0.00    -0.187 C  
HETATM   10  C   UNL     1     -10.699  10.105  68.097  1.00  0.00    -0.244 C  
HETATM   11  O   UNL     1     -10.566   8.898  67.955  1.00  0.00    -0.230 OA 
HETATM   12  O   UNL     1     -11.784  10.776  67.645  1.00  0.00    -0.538 OA 
ENDBRANCH   7   9
ENDBRANCH   2   5
TORSDOF 2
ENDMDL
MODEL      121
REMARK 921   NORMALIZED FREE ENERGY PREDICTED BY IDOCK:   -2.57 KCAL/MOL
REMARK 922        TOTAL FREE ENERGY PREDICTED BY IDOCK:   -2.96 KCAL/MOL
REMARK 923 INTER-LIGAND FREE ENERGY PREDICTED BY IDOCK:   -2.83 KCAL/MOL
REMARK 924 INTRA-LIGAND FREE ENERGY PREDICTED BY IDOCK:   -0.13 KCAL/MOL
REMARK 927      BINDING AFFINITY PREDICTED BY RF-SCORE:    0.00 PKD
ROOT
HETATM    1  C   UNL     1      -9.108  14.393  68.197  1.00  0.00    -0.194 C  
HETATM    2  C   UNL     1      -7.881  15.069  68.795  1.00  0.00    -0.151 C  
HETATM    3  S   UNL     1      -6.379  14.577  67.875  1.00  0.00    -0.154 SA 
HETATM    4  H   UNL     1      -5.260  15.193  68.421  1.00  0.00     0.000 H  
ENDROOT
BRANCH   2   5
HETATM    5  C   UNL     1      -8.012  16.596  68.798  1.00  0.00    -0.239 C  
HETATM    6  O   UNL     1      -7.136  17.354  69.198  1.00  0.00    -0.245 OA 
HETATM    7  N   UNL     1      -9.165  17.070  68.192  1.00  0.00    -0.238 N  
HETATM    8  H   UNL     1      -9.785  16.425  67.700  1.00  0.00     0.000 HD 
BRANCH   7   9
HETATM    9  C   UNL     1      -9.499  18.497  68.256  1.00  0.00    -0.335 C  
HETATM   10  C   UNL     1      -9.665  19.140  66.879  1.00  0.00    -0.328 C  
HETATM   11  O   UNL     1      -9.954  20.315  66.706  1.00  0.00    -0.442 OA 
HETATM   12  O   UNL     1      -9.518  18.268  65.854  1.00  0.00    -0.508 OA 
ENDBRANCH   7   9
ENDBRANCH   2   5
TORSDOF 2
ENDMDL
MODEL      122
REMARK 921   NORMALIZED FREE ENERGY PREDICTED BY IDOCK:   -2.55 KCAL/MOL
REMARK 922        TOTAL FREE ENERGY PREDICTED BY IDOCK:   -2.94 KCAL/MOL
REMARK 923 INTER-LIGAND FREE ENERGY PREDICTED BY IDOCK:   -2.83 KCAL/MOL
REMARK 924 INTRA-LIGAND FREE ENERGY PREDICTED BY IDOCK:   -0.11 KCAL/MOL
REMARK 927      BINDING AFFINITY PREDICTED BY RF-SCORE:    0.00 PKD
ROOT
HETATM    1  C   UNL     1     -11.370  12.103  66.996  1.00  0.00    -0.398 C  
HETATM    2  C   UNL     1     -10.887  12.985  65.852  1.00  0.00    -0.272 C  
HETATM    3  S   UNL     1     -12.254  13.299  64.679  1.00  0.00    -0.408 SA 
HETATM    4  H   UNL     1     -11.814  14.104  63.635  1.00  0.00     0.000 H  
ENDROOT
BRANCH   2   5
HETATM    5  C   UNL     1     -10.318  14.316  66.355  1.00  0.00    -0.286 C  
HETATM    6  O   UNL     1     -10.982  15.164  66.940  1.00  0.00    -0.317 OA 
HETATM    7  N   UNL     1      -8.945  14.443  66.203  1.00  0.00    -0.481 N  
HETATM    8  H   UNL     1      -8.392  13.645  65.886  1.00  0.00     0.000 HD 
BRANCH   7   9
HETATM    9  C   UNL     1      -8.285  15.719  66.496  1.00  0.00    -0.243 C  
HETATM   10  C   UNL     1      -7.203  15.605  67.569  1.00  0.00    -0.191 C  
HETATM   11  O   UNL     1      -6.524  16.546  67.955  1.00  0.00    -0.122 OA 
HETATM   12  O   UNL     1      -7.021  14.342  68.023  1.00  0.00    -0.110 OA 
ENDBRANCH   7   9
ENDBRANCH   2   5
TORSDOF 2
ENDMDL
MODEL      123
REMARK 921   NORMALIZED FREE ENERGY PREDICTED BY IDOCK:   -2.55 KCAL/MOL
REMARK 922        TOTAL FREE ENERGY PREDICTED BY IDOCK:   -2.93 KCAL/MOL
REMARK 923 INTER-LIGAND FREE ENERGY PREDICTED BY IDOCK:   -2.78 KCAL/MOL
REMARK 924 INTRA-LIGAND FREE ENERGY PREDICTED BY IDOCK:   -0.15 KCAL/MOL
REMARK 927      BINDING AFFINITY PREDICTED BY RF-SCORE:    0.00 PKD
ROOT
HETATM    1  C   UNL     1      -9.870  10.735  65.518  1.00  0.00    -0.309 C  
HETATM    2  C   UNL     1      -9.864  11.276  66.942  1.00  0.00    -0.193 C  
HETATM    3  S   UNL     1     -11.282  12.403  67.193  1.00  0.00    -0.318 SA 
HETATM    4  H   UNL     1     -11.278  12.897  68.492  1.00  0.00     0.000 H  
ENDROOT
BRANCH   2   5
HETATM    5  C   UNL     1      -9.904  10.152  67.983  1.00  0.00    -0.148 C  
HETATM    6  O   UNL     1      -9.792   8.963  67.707  1.00  0.00    -0.152 OA 
HETATM    7  N   UNL     1      -9.957  10.593  69.296  1.00  0.00    -0.307 N  
HETATM    8  H   UNL     1      -9.859  11.588  69.504  1.00  0.00     0.000 HD 
BRANCH   7   9
HETATM    9  C   UNL     1     -10.155   9.635  70.389  1.00  0.00    -0.276 C  
HETATM   10  C   UNL     1     -11.477   9.831  71.130  1.00  0.00    -0.398 C  
HETATM   11  O   UNL     1     -11.843   9.134  72.065  1.00  0.00    -0.365 OA 
HETATM   12  O   UNL     1     -12.243  10.823  70.618  1.00  0.00    -0.314 OA 
ENDBRANCH   7   9
ENDBRANCH   2   5
TORSDOF 2
ENDMDL
MODEL      124
REMARK 921   NORMALIZED FREE ENERGY PREDICTED BY IDOCK:   -2.54 KCAL/MOL
REMARK 922        TOTAL FREE ENERGY PREDICTED BY IDOCK:   -2.92 KCAL/MOL
REMARK 923 INTER-LIGAND FREE ENERGY PREDICTED BY IDOCK:   -2.81 KCAL/MOL
REMARK 924 INTRA-LIGAND FREE ENERGY PREDICTED BY IDOCK:   -0.11 KCAL/MOL
REMARK 927      BINDING AFFINITY PREDICTED BY RF-SCORE:    0.00 PKD
ROOT
HETATM    1  C   UNL     1     -10.569   7.328  67.860  1.00  0.00    -0.266 C  
HETATM    2  C   UNL     1      -9.953   7.707  69.199  1.00  0.00    -0.181 C  
HETATM    3  S   UNL     1      -8.133   7.542  69.124  1.00  0.00    -0.124 SA 
HETATM    4  H   UNL     1      -7.570   7.888  70.346  1.00  0.00     0.000 H  
ENDROOT
BRANCH   2   5
HETATM    5  C   UNL     1     -10.328   9.132  69.621  1.00  0.00    -0.219 C  
HETATM    6  O   UNL     1      -9.898   9.679  70.630  1.00  0.00    -0.265 OA 
HETATM    7  N   UNL     1     -11.110   9.812  68.699  1.00  0.00    -0.454 N  
HETATM    8  H   UNL     1     -11.294   9.398  67.784  1.00  0.00     0.000 HD 
BRANCH   7   9
HETATM    9  C   UNL     1     -11.672  11.124  69.034  1.00  0.00    -0.339 C  
HETATM   10  C   UNL     1     -11.539  12.144  67.904  1.00  0.00    -0.347 C  
HETATM   11  O   UNL     1     -11.951  13.292  67.970  1.00  0.00    -0.350 OA 
HETATM   12  O   UNL     1     -10.966  11.639  66.785  1.00  0.00    -0.264 OA 
ENDBRANCH   7   9
ENDBRANCH   2   5
TORSDOF 2
ENDMDL
MODEL      125
REMARK 921   NORMALIZED FREE ENERGY PREDICTED BY IDOCK:   -2.51 KCAL/MOL
REMARK 922        TOTAL FREE ENERGY PREDICTED BY IDOCK:   -2.89 KCAL/MOL
REMARK 923 INTER-LIGAND FREE ENERGY PREDICTED BY IDOCK:   -2.77 KCAL/MOL
REMARK 924 INTRA-LIGAND FREE ENERGY PREDICTED BY IDOCK:   -0.13 KCAL/MOL
REMARK 927      BINDING AFFINITY PREDICTED BY RF-SCORE:    0.00 PKD
ROOT
HETATM    1  C   UNL     1      -9.763   5.014  68.482  1.00  0.00    -0.215 C  
HETATM    2  C   UNL     1     -10.881   6.048  68.476  1.00  0.00    -0.286 C  
HETATM    3  S   UNL     1     -11.306   6.527  70.189  1.00  0.00    -0.414 SA 
HETATM    4  H   UNL     1     -12.326   7.470  70.183  1.00  0.00     0.000 H  
ENDROOT
BRANCH   2   5
HETATM    5  C   UNL     1     -10.506   7.294  67.666  1.00  0.00    -0.242 C  
HETATM    6  O   UNL     1      -9.920   7.257  66.590  1.00  0.00    -0.211 OA 
HETATM    7  N   UNL     1     -10.991   8.483  68.191  1.00  0.00    -0.457 N  
HETATM    8  H   UNL     1     -11.634   8.464  68.984  1.00  0.00     0.000 HD 
BRANCH   7   9
HETATM    9  C   UNL     1     -10.583   9.766  67.611  1.00  0.00    -0.276 C  
HETATM   10  C   UNL     1     -10.512  10.896  68.638  1.00  0.00    -0.194 C  
HETATM   11  O   UNL     1     -10.183  12.042  68.369  1.00  0.00    -0.201 OA 
HETATM   12  O   UNL     1     -10.796  10.498  69.901  1.00  0.00    -0.269 OA 
ENDBRANCH   7   9
ENDBRANCH   2   5
TORSDOF 2
ENDMDL
MODEL      126
REMARK 921   NORMALIZED FREE ENERGY PREDICTED BY IDOCK:   -2.50 KCAL/MOL
REMARK 922        TOTAL FREE ENERGY PREDICTED BY IDOCK:   -2.88 KCAL/MOL
REMARK 923 INTER-LIGAND FREE ENERGY PREDICTED BY IDOCK:   -2.81 KCAL/MOL
REMARK 924 INTRA-LIGAND FREE ENERGY PREDICTED BY IDOCK:   -0.08 KCAL/MOL
REMARK 927      BINDING AFFINITY PREDICTED BY RF-SCORE:    0.00 PKD
ROOT
HETATM    1  C   UNL     1     -10.029  14.610  68.165  1.00  0.00    -0.224 C  
HETATM    2  C   UNL     1      -9.527  15.609  67.131  1.00  0.00    -0.217 C  
HETATM    3  S   UNL     1     -10.490  15.451  65.584  1.00  0.00    -0.402 SA 
HETATM    4  H   UNL     1     -10.033  16.362  64.640  1.00  0.00     0.000 H  
ENDROOT
BRANCH   2   5
HETATM    5  C   UNL     1      -9.601  17.051  67.643  1.00  0.00    -0.249 C  
HETATM    6  O   UNL     1     -10.616  17.737  67.606  1.00  0.00    -0.383 OA 
HETATM    7  N   UNL     1      -8.446  17.492  68.274  1.00  0.00    -0.258 N  
HETATM    8  H   UNL     1      -7.685  16.837  68.458  1.00  0.00     0.000 HD 
BRANCH   7   9
HETATM    9  C   UNL     1      -8.316  18.896  68.677  1.00  0.00    -0.349 C  
HETATM   10  C   UNL     1      -6.994  19.199  69.382  1.00  0.00    -0.237 C  
HETATM   11  O   UNL     1      -6.679  20.308  69.789  1.00  0.00    -0.250 OA 
HETATM   12  O   UNL     1      -6.168  18.130  69.468  1.00  0.00    -0.241 OA 
ENDBRANCH   7   9
ENDBRANCH   2   5
TORSDOF 2
ENDMDL
MODEL      127
REMARK 921   NORMALIZED FREE ENERGY PREDICTED BY IDOCK:   -2.50 KCAL/MOL
REMARK 922        TOTAL FREE ENERGY PREDICTED BY IDOCK:   -2.88 KCAL/MOL
REMARK 923 INTER-LIGAND FREE ENERGY PREDICTED BY IDOCK:   -2.80 KCAL/MOL
REMARK 924 INTRA-LIGAND FREE ENERGY PREDICTED BY IDOCK:   -0.08 KCAL/MOL
REMARK 927      BINDING AFFINITY PREDICTED BY RF-SCORE:    0.00 PKD
ROOT
HETATM    1  C   UNL     1     -10.576  17.087  65.810  1.00  0.00    -0.218 C  
HETATM    2  C   UNL     1      -9.935  18.410  66.207  1.00  0.00    -0.366 C  
HETATM    3  S   UNL     1     -10.752  19.085  67.697  1.00  0.00    -0.351 SA 
HETATM    4  H   UNL     1     -10.167  20.292  68.059  1.00  0.00     0.000 H  
ENDROOT
BRANCH   2   5
HETATM    5  C   UNL     1      -8.431  18.264  66.460  1.00  0.00    -0.268 C  
HETATM    6  O   UNL     1      -7.634  17.860  65.621  1.00  0.00    -0.546 OA 
HETATM    7  N   UNL     1      -8.011  18.745  67.692  1.00  0.00    -0.248 N  
HETATM    8  H   UNL     1      -8.665  19.248  68.292  1.00  0.00     0.000 HD 
BRANCH   7   9
HETATM    9  C   UNL     1      -6.629  18.533  68.135  1.00  0.00    -0.221 C  
HETATM   10  C   UNL     1      -6.456  17.279  68.990  1.00  0.00    -0.221 C  
HETATM   11  O   UNL     1      -5.385  16.912  69.452  1.00  0.00    -0.132 OA 
HETATM   12  O   UNL     1      -7.598  16.569  69.147  1.00  0.00    -0.232 OA 
ENDBRANCH   7   9
ENDBRANCH   2   5
TORSDOF 2
ENDMDL
MODEL      128
REMARK 921   NORMALIZED FREE ENERGY PREDICTED BY IDOCK:   -2.50 KCAL/MOL
REMARK 922        TOTAL FREE ENERGY PREDICTED BY IDOCK:   -2.87 KCAL/MOL
REMARK 923 INTER-LIGAND FREE ENERGY PREDICTED BY IDOCK:   -2.78 KCAL/MOL
REMARK 924 INTRA-LIGAND FREE ENERGY PREDICTED BY IDOCK:   -0.10 KCAL/MOL
REMARK 927      BINDING AFFINITY PREDICTED BY RF-SCORE:    0.00 PKD
ROOT
HETATM    1  C   UNL     1      -9.805  13.452  66.497  1.00  0.00    -0.286 C  
HETATM    2  C   UNL     1      -9.986  14.941  66.758  1.00  0.00    -0.246 C  
HETATM    3  S   UNL     1     -11.306  15.208  67.995  1.00  0.00    -0.341 SA 
HETATM    4  H   UNL     1     -11.471  16.567  68.233  1.00  0.00     0.000 H  
ENDROOT
BRANCH   2   5
HETATM    5  C   UNL     1      -8.688  15.603  67.233  1.00  0.00    -0.194 C  
HETATM    6  O   UNL     1      -7.570  15.170  66.978  1.00  0.00    -0.199 OA 
HETATM    7  N   UNL     1      -8.870  16.814  67.884  1.00  0.00    -0.215 N  
HETATM    8  H   UNL     1      -9.796  17.241  67.915  1.00  0.00     0.000 HD 
BRANCH   7   9
HETATM    9  C   UNL     1      -7.735  17.484  68.527  1.00  0.00    -0.272 C  
HETATM   10  C   UNL     1      -7.926  18.993  68.667  1.00  0.00    -0.352 C  
HETATM   11  O   UNL     1      -7.108  19.739  69.184  1.00  0.00    -0.349 OA 
HETATM   12  O   UNL     1      -9.124  19.431  68.212  1.00  0.00    -0.323 OA 
ENDBRANCH   7   9
ENDBRANCH   2   5
TORSDOF 2
ENDMDL
MODEL      129
REMARK 921   NORMALIZED FREE ENERGY PREDICTED BY IDOCK:   -2.46 KCAL/MOL
REMARK 922        TOTAL FREE ENERGY PREDICTED BY IDOCK:   -2.84 KCAL/MOL
REMARK 923 INTER-LIGAND FREE ENERGY PREDICTED BY IDOCK:   -2.74 KCAL/MOL
REMARK 924 INTRA-LIGAND FREE ENERGY PREDICTED BY IDOCK:   -0.10 KCAL/MOL
REMARK 927      BINDING AFFINITY PREDICTED BY RF-SCORE:    0.00 PKD
ROOT
HETATM    1  C   UNL     1      -8.121  14.279  67.437  1.00  0.00    -0.213 C  
HETATM    2  C   UNL     1      -9.391  15.118  67.470  1.00  0.00    -0.198 C  
HETATM    3  S   UNL     1      -9.642  15.945  65.858  1.00  0.00    -0.318 SA 
HETATM    4  H   UNL     1     -10.801  16.711  65.889  1.00  0.00     0.000 H  
ENDROOT
BRANCH   2   5
HETATM    5  C   UNL     1     -10.624  14.280  67.822  1.00  0.00    -0.253 C  
HETATM    6  O   UNL     1     -11.717  14.416  67.284  1.00  0.00    -0.370 OA 
HETATM    7  N   UNL     1     -10.379  13.256  68.725  1.00  0.00    -0.388 N  
HETATM    8  H   UNL     1      -9.422  13.048  69.011  1.00  0.00     0.000 HD 
BRANCH   7   9
HETATM    9  C   UNL     1     -11.492  12.470  69.270  1.00  0.00    -0.293 C  
HETATM   10  C   UNL     1     -11.100  11.037  69.625  1.00  0.00    -0.256 C  
HETATM   11  O   UNL     1     -11.871  10.218  70.103  1.00  0.00    -0.264 OA 
HETATM   12  O   UNL     1      -9.790  10.765  69.414  1.00  0.00    -0.186 OA 
ENDBRANCH   7   9
ENDBRANCH   2   5
TORSDOF 2
ENDMDL
MODEL      130
REMARK 921   NORMALIZED FREE ENERGY PREDICTED BY IDOCK:   -2.45 KCAL/MOL
REMARK 922        TOTAL FREE ENERGY PREDICTED BY IDOCK:   -2.82 KCAL/MOL
REMARK 923 INTER-LIGAND FREE ENERGY PREDICTED BY IDOCK:   -2.72 KCAL/MOL
REMARK 924 INTRA-LIGAND FREE ENERGY PREDICTED BY IDOCK:   -0.10 KCAL/MOL
REMARK 927      BINDING AFFINITY PREDICTED BY RF-SCORE:    0.00 PKD
ROOT
HETATM    1  C   UNL     1      -8.160   7.282  65.260  1.00  0.00    -0.134 C  
HETATM    2  C   UNL     1      -9.204   7.370  66.365  1.00  0.00    -0.159 C  
HETATM    3  S   UNL     1      -8.427   7.059  67.991  1.00  0.00    -0.124 SA 
HETATM    4  H   UNL     1      -9.379   7.139  69.000  1.00  0.00     0.000 H  
ENDROOT
BRANCH   2   5
HETATM    5  C   UNL     1      -9.912   8.729  66.380  1.00  0.00    -0.275 C  
HETATM    6  O   UNL     1     -10.621   9.119  67.301  1.00  0.00    -0.271 OA 
HETATM    7  N   UNL     1      -9.591   9.550  65.309  1.00  0.00    -0.400 N  
HETATM    8  H   UNL     1      -8.854   9.274  64.659  1.00  0.00     0.000 HD 
BRANCH   7   9
HETATM    9  C   UNL     1     -10.307  10.815  65.108  1.00  0.00    -0.271 C  
HETATM   10  C   UNL     1     -10.394  11.231  63.641  1.00  0.00    -0.408 C  
HETATM   11  O   UNL     1     -10.956  12.245  63.253  1.00  0.00    -0.432 OA 
HETATM   12  O   UNL     1      -9.834  10.338  62.790  1.00  0.00    -0.241 OA 
ENDBRANCH   7   9
ENDBRANCH   2   5
TORSDOF 2
ENDMDL
MODEL      131
REMARK 921   NORMALIZED FREE ENERGY PREDICTED BY IDOCK:   -2.44 KCAL/MOL
REMARK 922        TOTAL FREE ENERGY PREDICTED BY IDOCK:   -2.82 KCAL/MOL
REMARK 923 INTER-LIGAND FREE ENERGY PREDICTED BY IDOCK:   -2.66 KCAL/MOL
REMARK 924 INTRA-LIGAND FREE ENERGY PREDICTED BY IDOCK:   -0.16 KCAL/MOL
REMARK 927      BINDING AFFINITY PREDICTED BY RF-SCORE:    0.00 PKD
ROOT
HETATM    1  C   UNL     1      -6.190  19.005  65.852  1.00  0.00    -0.233 C  
HETATM    2  C   UNL     1      -6.420  18.666  67.319  1.00  0.00    -0.195 C  
HETATM    3  S   UNL     1      -7.137  20.104  68.192  1.00  0.00    -0.247 SA 
HETATM    4  H   UNL     1      -7.347  19.795  69.531  1.00  0.00     0.000 H  
ENDROOT
BRANCH   2   5
HETATM    5  C   UNL     1      -7.332  17.447  67.489  1.00  0.00    -0.171 C  
HETATM    6  O   UNL     1      -7.280  16.452  66.775  1.00  0.00    -0.209 OA 
HETATM    7  N   UNL     1      -8.155  17.502  68.604  1.00  0.00    -0.273 N  
HETATM    8  H   UNL     1      -8.042  18.255  69.284  1.00  0.00     0.000 HD 
BRANCH   7   9
HETATM    9  C   UNL     1      -9.188  16.481  68.810  1.00  0.00    -0.252 C  
HETATM   10  C   UNL     1     -10.606  17.006  68.590  1.00  0.00    -0.362 C  
HETATM   11  O   UNL     1     -11.611  16.319  68.699  1.00  0.00    -0.355 OA 
HETATM   12  O   UNL     1     -10.650  18.303  68.203  1.00  0.00    -0.361 OA 
ENDBRANCH   7   9
ENDBRANCH   2   5
TORSDOF 2
ENDMDL
MODEL      132
REMARK 921   NORMALIZED FREE ENERGY PREDICTED BY IDOCK:   -2.44 KCAL/MOL
REMARK 922        TOTAL FREE ENERGY PREDICTED BY IDOCK:   -2.81 KCAL/MOL
REMARK 923 INTER-LIGAND FREE ENERGY PREDICTED BY IDOCK:   -2.73 KCAL/MOL
REMARK 924 INTRA-LIGAND FREE ENERGY PREDICTED BY IDOCK:   -0.08 KCAL/MOL
REMARK 927      BINDING AFFINITY PREDICTED BY RF-SCORE:    0.00 PKD
ROOT
HETATM    1  C   UNL     1     -11.769  15.576  68.596  1.00  0.00    -0.363 C  
HETATM    2  C   UNL     1     -10.901  14.845  67.581  1.00  0.00    -0.286 C  
HETATM    3  S   UNL     1     -11.912  13.653  66.630  1.00  0.00    -0.413 SA 
HETATM    4  H   UNL     1     -11.121  12.986  65.703  1.00  0.00     0.000 H  
ENDROOT
BRANCH   2   5
HETATM    5  C   UNL     1     -10.201  15.813  66.622  1.00  0.00    -0.285 C  
HETATM    6  O   UNL     1     -10.662  16.151  65.537  1.00  0.00    -0.366 OA 
HETATM    7  N   UNL     1      -9.044  16.383  67.131  1.00  0.00    -0.202 N  
HETATM    8  H   UNL     1      -8.787  16.228  68.107  1.00  0.00     0.000 HD 
BRANCH   7   9
HETATM    9  C   UNL     1      -8.187  17.207  66.272  1.00  0.00    -0.271 C  
HETATM   10  C   UNL     1      -6.717  17.187  66.690  1.00  0.00    -0.242 C  
HETATM   11  O   UNL     1      -5.834  17.796  66.104  1.00  0.00    -0.178 OA 
HETATM   12  O   UNL     1      -6.466  16.380  67.748  1.00  0.00    -0.118 OA 
ENDBRANCH   7   9
ENDBRANCH   2   5
TORSDOF 2
ENDMDL
MODEL      133
REMARK 921   NORMALIZED FREE ENERGY PREDICTED BY IDOCK:   -2.43 KCAL/MOL
REMARK 922        TOTAL FREE ENERGY PREDICTED BY IDOCK:   -2.80 KCAL/MOL
REMARK 923 INTER-LIGAND FREE ENERGY PREDICTED BY IDOCK:   -2.74 KCAL/MOL
REMARK 924 INTRA-LIGAND FREE ENERGY PREDICTED BY IDOCK:   -0.06 KCAL/MOL
REMARK 927      BINDING AFFINITY PREDICTED BY RF-SCORE:    0.00 PKD
ROOT
HETATM    1  C   UNL     1      -9.026  12.765  68.271  1.00  0.00    -0.175 C  
HETATM    2  C   UNL     1      -8.871  14.226  68.673  1.00  0.00    -0.150 C  
HETATM    3  S   UNL     1      -7.259  14.870  68.097  1.00  0.00    -0.134 SA 
HETATM    4  H   UNL     1      -7.118  16.203  68.463  1.00  0.00     0.000 H  
ENDROOT
BRANCH   2   5
HETATM    5  C   UNL     1     -10.005  15.096  68.122  1.00  0.00    -0.221 C  
HETATM    6  O   UNL     1     -11.141  14.684  67.914  1.00  0.00    -0.271 OA 
HETATM    7  N   UNL     1      -9.680  16.437  67.985  1.00  0.00    -0.232 N  
HETATM    8  H   UNL     1      -8.790  16.784  68.343  1.00  0.00     0.000 HD 
BRANCH   7   9
HETATM    9  C   UNL     1     -10.612  17.359  67.327  1.00  0.00    -0.284 C  
HETATM   10  C   UNL     1     -10.413  17.439  65.814  1.00  0.00    -0.215 C  
HETATM   11  O   UNL     1     -11.090  18.137  65.073  1.00  0.00    -0.650 OA 
HETATM   12  O   UNL     1      -9.444  16.614  65.351  1.00  0.00    -0.413 OA 
ENDBRANCH   7   9
ENDBRANCH   2   5
TORSDOF 2
ENDMDL
MODEL      134
REMARK 921   NORMALIZED FREE ENERGY PREDICTED BY IDOCK:   -2.41 KCAL/MOL
REMARK 922        TOTAL FREE ENERGY PREDICTED BY IDOCK:   -2.78 KCAL/MOL
REMARK 923 INTER-LIGAND FREE ENERGY PREDICTED BY IDOCK:   -2.65 KCAL/MOL
REMARK 924 INTRA-LIGAND FREE ENERGY PREDICTED BY IDOCK:   -0.13 KCAL/MOL
REMARK 927      BINDING AFFINITY PREDICTED BY RF-SCORE:    0.00 PKD
ROOT
HETATM    1  C   UNL     1     -11.586   5.596  72.480  1.00  0.00    -0.303 C  
HETATM    2  C   UNL     1     -12.227   6.626  71.560  1.00  0.00    -0.340 C  
HETATM    3  S   UNL     1     -12.380   8.231  72.423  1.00  0.00    -0.273 SA 
HETATM    4  H   UNL     1     -12.964   9.172  71.583  1.00  0.00     0.000 H  
ENDROOT
BRANCH   2   5
HETATM    5  C   UNL     1     -11.434   6.808  70.261  1.00  0.00    -0.360 C  
HETATM    6  O   UNL     1     -11.174   5.893  69.488  1.00  0.00    -0.389 OA 
HETATM    7  N   UNL     1     -11.128   8.127  69.960  1.00  0.00    -0.392 N  
HETATM    8  H   UNL     1     -11.520   8.882  70.523  1.00  0.00     0.000 HD 
BRANCH   7   9
HETATM    9  C   UNL     1     -10.243   8.440  68.833  1.00  0.00    -0.210 C  
HETATM   10  C   UNL     1      -8.825   8.810  69.265  1.00  0.00    -0.140 C  
HETATM   11  O   UNL     1      -7.928   9.095  68.485  1.00  0.00    -0.100 OA 
HETATM   12  O   UNL     1      -8.631   8.740  70.603  1.00  0.00    -0.144 OA 
ENDBRANCH   7   9
ENDBRANCH   2   5
TORSDOF 2
ENDMDL
MODEL      135
REMARK 921   NORMALIZED FREE ENERGY PREDICTED BY IDOCK:   -2.40 KCAL/MOL
REMARK 922        TOTAL FREE ENERGY PREDICTED BY IDOCK:   -2.77 KCAL/MOL
REMARK 923 INTER-LIGAND FREE ENERGY PREDICTED BY IDOCK:   -2.81 KCAL/MOL
REMARK 924 INTRA-LIGAND FREE ENERGY PREDICTED BY IDOCK:    0.04 KCAL/MOL
REMARK 927      BINDING AFFINITY PREDICTED BY RF-SCORE:    0.00 PKD
ROOT
HETATM    1  C   UNL     1      -9.459  14.199  66.345  1.00  0.00    -0.289 C  
HETATM    2  C   UNL     1     -10.714  13.626  65.700  1.00  0.00    -0.283 C  
HETATM    3  S   UNL     1     -10.335  13.019  64.017  1.00  0.00    -0.061 SA 
HETATM    4  H   UNL     1     -11.480  12.496  63.428  1.00  0.00     0.000 H  
ENDROOT
BRANCH   2   5
HETATM    5  C   UNL     1     -11.323  12.495  66.535  1.00  0.00    -0.334 C  
HETATM    6  O   UNL     1     -12.405  11.975  66.291  1.00  0.00    -0.432 OA 
HETATM    7  N   UNL     1     -10.491  12.013  67.535  1.00  0.00    -0.209 N  
HETATM    8  H   UNL     1      -9.525  12.336  67.593  1.00  0.00     0.000 HD 
BRANCH   7   9
HETATM    9  C   UNL     1     -10.996  11.040  68.509  1.00  0.00    -0.228 C  
HETATM   10  C   UNL     1     -11.760  11.685  69.665  1.00  0.00    -0.350 C  
HETATM   11  O   UNL     1     -12.273  11.055  70.578  1.00  0.00    -0.320 OA 
HETATM   12  O   UNL     1     -11.870  13.031  69.557  1.00  0.00    -0.305 OA 
ENDBRANCH   7   9
ENDBRANCH   2   5
TORSDOF 2
ENDMDL
MODEL      136
REMARK 921   NORMALIZED FREE ENERGY PREDICTED BY IDOCK:   -2.40 KCAL/MOL
REMARK 922        TOTAL FREE ENERGY PREDICTED BY IDOCK:   -2.77 KCAL/MOL
REMARK 923 INTER-LIGAND FREE ENERGY PREDICTED BY IDOCK:   -2.63 KCAL/MOL
REMARK 924 INTRA-LIGAND FREE ENERGY PREDICTED BY IDOCK:   -0.14 KCAL/MOL
REMARK 927      BINDING AFFINITY PREDICTED BY RF-SCORE:    0.00 PKD
ROOT
HETATM    1  C   UNL     1     -10.143  14.803  65.399  1.00  0.00    -0.406 C  
HETATM    2  C   UNL     1     -11.268  14.095  66.142  1.00  0.00    -0.326 C  
HETATM    3  S   UNL     1     -12.635  13.707  64.991  1.00  0.00    -0.353 SA 
HETATM    4  H   UNL     1     -13.662  13.060  65.669  1.00  0.00     0.000 H  
ENDROOT
BRANCH   2   5
HETATM    5  C   UNL     1     -10.785  12.812  66.826  1.00  0.00    -0.260 C  
HETATM    6  O   UNL     1     -11.370  12.276  67.760  1.00  0.00    -0.260 OA 
HETATM    7  N   UNL     1      -9.682  12.225  66.224  1.00  0.00    -0.240 N  
HETATM    8  H   UNL     1      -9.332  12.589  65.338  1.00  0.00     0.000 HD 
BRANCH   7   9
HETATM    9  C   UNL     1      -9.017  11.081  66.858  1.00  0.00    -0.157 C  
HETATM   10  C   UNL     1      -9.348   9.747  66.190  1.00  0.00    -0.191 C  
HETATM   11  O   UNL     1      -8.892   8.672  66.553  1.00  0.00    -0.126 OA 
HETATM   12  O   UNL     1     -10.158   9.867  65.112  1.00  0.00    -0.309 OA 
ENDBRANCH   7   9
ENDBRANCH   2   5
TORSDOF 2
ENDMDL
MODEL      137
REMARK 921   NORMALIZED FREE ENERGY PREDICTED BY IDOCK:   -2.39 KCAL/MOL
REMARK 922        TOTAL FREE ENERGY PREDICTED BY IDOCK:   -2.76 KCAL/MOL
REMARK 923 INTER-LIGAND FREE ENERGY PREDICTED BY IDOCK:   -2.65 KCAL/MOL
REMARK 924 INTRA-LIGAND FREE ENERGY PREDICTED BY IDOCK:   -0.11 KCAL/MOL
REMARK 927      BINDING AFFINITY PREDICTED BY RF-SCORE:    0.00 PKD
ROOT
HETATM    1  C   UNL     1      -9.443   4.929  72.190  1.00  0.00    -0.182 C  
HETATM    2  C   UNL     1      -9.591   5.838  70.977  1.00  0.00    -0.167 C  
HETATM    3  S   UNL     1      -9.676   4.840  69.448  1.00  0.00    -0.204 SA 
HETATM    4  H   UNL     1      -9.812   5.670  68.341  1.00  0.00     0.000 H  
ENDROOT
BRANCH   2   5
HETATM    5  C   UNL     1     -10.829   6.736  71.082  1.00  0.00    -0.238 C  
HETATM    6  O   UNL     1     -11.961   6.372  70.785  1.00  0.00    -0.338 OA 
HETATM    7  N   UNL     1     -10.589   7.973  71.659  1.00  0.00    -0.220 N  
HETATM    8  H   UNL     1      -9.676   8.176  72.069  1.00  0.00     0.000 HD 
BRANCH   7   9
HETATM    9  C   UNL     1     -11.643   8.993  71.684  1.00  0.00    -0.356 C  
HETATM   10  C   UNL     1     -11.356  10.178  70.762  1.00  0.00    -0.354 C  
HETATM   11  O   UNL     1     -12.108  11.132  70.624  1.00  0.00    -0.338 OA 
HETATM   12  O   UNL     1     -10.205  10.052  70.059  1.00  0.00    -0.249 OA 
ENDBRANCH   7   9
ENDBRANCH   2   5
TORSDOF 2
ENDMDL
MODEL      138
REMARK 921   NORMALIZED FREE ENERGY PREDICTED BY IDOCK:   -2.37 KCAL/MOL
REMARK 922        TOTAL FREE ENERGY PREDICTED BY IDOCK:   -2.73 KCAL/MOL
REMARK 923 INTER-LIGAND FREE ENERGY PREDICTED BY IDOCK:   -2.61 KCAL/MOL
REMARK 924 INTRA-LIGAND FREE ENERGY PREDICTED BY IDOCK:   -0.13 KCAL/MOL
REMARK 927      BINDING AFFINITY PREDICTED BY RF-SCORE:    0.00 PKD
ROOT
HETATM    1  C   UNL     1     -10.934  11.206  68.143  1.00  0.00    -0.292 C  
HETATM    2  C   UNL     1      -9.520  10.641  68.137  1.00  0.00    -0.154 C  
HETATM    3  S   UNL     1      -8.303  11.993  67.943  1.00  0.00    -0.164 SA 
HETATM    4  H   UNL     1      -7.012  11.477  67.938  1.00  0.00     0.000 H  
ENDROOT
BRANCH   2   5
HETATM    5  C   UNL     1      -9.214   9.846  69.411  1.00  0.00    -0.214 C  
HETATM    6  O   UNL     1      -8.190   9.194  69.578  1.00  0.00    -0.109 OA 
HETATM    7  N   UNL     1     -10.143  10.017  70.426  1.00  0.00    -0.398 N  
HETATM    8  H   UNL     1     -10.884  10.712  70.327  1.00  0.00     0.000 HD 
BRANCH   7   9
HETATM    9  C   UNL     1     -10.065   9.202  71.643  1.00  0.00    -0.276 C  
HETATM   10  C   UNL     1     -11.402   8.573  72.034  1.00  0.00    -0.355 C  
HETATM   11  O   UNL     1     -11.556   7.850  73.007  1.00  0.00    -0.351 OA 
HETATM   12  O   UNL     1     -12.403   8.846  71.164  1.00  0.00    -0.294 OA 
ENDBRANCH   7   9
ENDBRANCH   2   5
TORSDOF 2
ENDMDL
MODEL      139
REMARK 921   NORMALIZED FREE ENERGY PREDICTED BY IDOCK:   -2.37 KCAL/MOL
REMARK 922        TOTAL FREE ENERGY PREDICTED BY IDOCK:   -2.73 KCAL/MOL
REMARK 923 INTER-LIGAND FREE ENERGY PREDICTED BY IDOCK:   -2.62 KCAL/MOL
REMARK 924 INTRA-LIGAND FREE ENERGY PREDICTED BY IDOCK:   -0.11 KCAL/MOL
REMARK 927      BINDING AFFINITY PREDICTED BY RF-SCORE:    0.00 PKD
ROOT
HETATM    1  C   UNL     1      -7.879   7.974  69.360  1.00  0.00    -0.113 C  
HETATM    2  C   UNL     1      -8.207   9.169  70.246  1.00  0.00    -0.159 C  
HETATM    3  S   UNL     1      -7.145  10.591  69.803  1.00  0.00    -0.137 SA 
HETATM    4  H   UNL     1      -7.444  11.681  70.612  1.00  0.00     0.000 H  
ENDROOT
BRANCH   2   5
HETATM    5  C   UNL     1      -9.682   9.570  70.145  1.00  0.00    -0.246 C  
HETATM    6  O   UNL     1     -10.207   9.984  69.118  1.00  0.00    -0.186 OA 
HETATM    7  N   UNL     1     -10.422   9.313  71.290  1.00  0.00    -0.325 N  
HETATM    8  H   UNL     1     -10.002   8.794  72.062  1.00  0.00     0.000 HD 
BRANCH   7   9
HETATM    9  C   UNL     1     -11.807   9.784  71.394  1.00  0.00    -0.408 C  
HETATM   10  C   UNL     1     -12.808   8.660  71.656  1.00  0.00    -0.345 C  
HETATM   11  O   UNL     1     -14.010   8.835  71.788  1.00  0.00    -0.397 OA 
HETATM   12  O   UNL     1     -12.231   7.441  71.788  1.00  0.00    -0.301 OA 
ENDBRANCH   7   9
ENDBRANCH   2   5
TORSDOF 2
ENDMDL
MODEL      140
REMARK 921   NORMALIZED FREE ENERGY PREDICTED BY IDOCK:   -2.36 KCAL/MOL
REMARK 922        TOTAL FREE ENERGY PREDICTED BY IDOCK:   -2.72 KCAL/MOL
REMARK 923 INTER-LIGAND FREE ENERGY PREDICTED BY IDOCK:   -2.63 KCAL/MOL
REMARK 924 INTRA-LIGAND FREE ENERGY PREDICTED BY IDOCK:   -0.09 KCAL/MOL
REMARK 927      BINDING AFFINITY PREDICTED BY RF-SCORE:    0.00 PKD
ROOT
HETATM    1  C   UNL     1      -9.452  14.212  66.341  1.00  0.00    -0.289 C  
HETATM    2  C   UNL     1     -10.754  13.568  65.884  1.00  0.00    -0.277 C  
HETATM    3  S   UNL     1     -10.596  12.981  64.160  1.00  0.00    -0.329 SA 
HETATM    4  H   UNL     1     -11.784  12.394  63.743  1.00  0.00     0.000 H  
ENDROOT
BRANCH   2   5
HETATM    5  C   UNL     1     -11.170  12.407  66.793  1.00  0.00    -0.310 C  
HETATM    6  O   UNL     1     -12.282  11.891  66.774  1.00  0.00    -0.489 OA 
HETATM    7  N   UNL     1     -10.141  11.894  67.569  1.00  0.00    -0.192 N  
HETATM    8  H   UNL     1      -9.184  12.218  67.425  1.00  0.00     0.000 HD 
BRANCH   7   9
HETATM    9  C   UNL     1     -10.424  10.885  68.596  1.00  0.00    -0.194 C  
HETATM   10  C   UNL     1      -9.170  10.393  69.318  1.00  0.00    -0.184 C  
HETATM   11  O   UNL     1      -9.183   9.562  70.215  1.00  0.00    -0.229 OA 
HETATM   12  O   UNL     1      -8.034  11.007  68.910  1.00  0.00    -0.136 OA 
ENDBRANCH   7   9
ENDBRANCH   2   5
TORSDOF 2
ENDMDL
MODEL      141
REMARK 921   NORMALIZED FREE ENERGY PREDICTED BY IDOCK:   -2.36 KCAL/MOL
REMARK 922        TOTAL FREE ENERGY PREDICTED BY IDOCK:   -2.72 KCAL/MOL
REMARK 923 INTER-LIGAND FREE ENERGY PREDICTED BY IDOCK:   -2.58 KCAL/MOL
REMARK 924 INTRA-LIGAND FREE ENERGY PREDICTED BY IDOCK:   -0.14 KCAL/MOL
REMARK 927      BINDING AFFINITY PREDICTED BY RF-SCORE:    0.00 PKD
ROOT
HETATM    1  C   UNL     1     -10.768  15.936  66.154  1.00  0.00    -0.273 C  
HETATM    2  C   UNL     1     -10.000  17.235  66.366  1.00  0.00    -0.311 C  
HETATM    3  S   UNL     1     -10.583  18.070  67.884  1.00  0.00    -0.316 SA 
HETATM    4  H   UNL     1      -9.883  19.255  68.077  1.00  0.00     0.000 H  
ENDROOT
BRANCH   2   5
HETATM    5  C   UNL     1      -8.489  17.000  66.449  1.00  0.00    -0.283 C  
HETATM    6  O   UNL     1      -7.680  17.481  65.663  1.00  0.00    -0.495 OA 
HETATM    7  N   UNL     1      -8.083  16.289  67.569  1.00  0.00    -0.142 N  
HETATM    8  H   UNL     1      -8.757  16.066  68.302  1.00  0.00     0.000 HD 
BRANCH   7   9
HETATM    9  C   UNL     1      -6.688  15.858  67.703  1.00  0.00    -0.170 C  
HETATM   10  C   UNL     1      -6.516  14.341  67.626  1.00  0.00    -0.132 C  
HETATM   11  O   UNL     1      -5.437  13.773  67.704  1.00  0.00    -0.287 OA 
HETATM   12  O   UNL     1      -7.675  13.676  67.405  1.00  0.00    -0.170 OA 
ENDBRANCH   7   9
ENDBRANCH   2   5
TORSDOF 2
ENDMDL
MODEL      142
REMARK 921   NORMALIZED FREE ENERGY PREDICTED BY IDOCK:   -2.36 KCAL/MOL
REMARK 922        TOTAL FREE ENERGY PREDICTED BY IDOCK:   -2.72 KCAL/MOL
REMARK 923 INTER-LIGAND FREE ENERGY PREDICTED BY IDOCK:   -2.62 KCAL/MOL
REMARK 924 INTRA-LIGAND FREE ENERGY PREDICTED BY IDOCK:   -0.10 KCAL/MOL
REMARK 927      BINDING AFFINITY PREDICTED BY RF-SCORE:    0.00 PKD
ROOT
HETATM    1  C   UNL     1      -9.183  10.501  62.621  1.00  0.00    -0.329 C  
HETATM    2  C   UNL     1      -8.991   9.966  64.033  1.00  0.00    -0.243 C  
HETATM    3  S   UNL     1      -7.212   9.936  64.459  1.00  0.00    -0.139 SA 
HETATM    4  H   UNL     1      -7.037   9.448  65.748  1.00  0.00     0.000 H  
ENDROOT
BRANCH   2   5
HETATM    5  C   UNL     1      -9.759  10.793  65.070  1.00  0.00    -0.269 C  
HETATM    6  O   UNL     1     -10.383  10.304  66.004  1.00  0.00    -0.237 OA 
HETATM    7  N   UNL     1      -9.595  12.164  64.941  1.00  0.00    -0.454 N  
HETATM    8  H   UNL     1      -8.919  12.535  64.271  1.00  0.00     0.000 HD 
BRANCH   7   9
HETATM    9  C   UNL     1     -10.389  13.083  65.763  1.00  0.00    -0.286 C  
HETATM   10  C   UNL     1      -9.656  13.556  67.017  1.00  0.00    -0.248 C  
HETATM   11  O   UNL     1     -10.132  14.333  67.832  1.00  0.00    -0.227 OA 
HETATM   12  O   UNL     1      -8.393  13.077  67.120  1.00  0.00    -0.184 OA 
ENDBRANCH   7   9
ENDBRANCH   2   5
TORSDOF 2
ENDMDL
MODEL      143
REMARK 921   NORMALIZED FREE ENERGY PREDICTED BY IDOCK:   -2.34 KCAL/MOL
REMARK 922        TOTAL FREE ENERGY PREDICTED BY IDOCK:   -2.70 KCAL/MOL
REMARK 923 INTER-LIGAND FREE ENERGY PREDICTED BY IDOCK:   -2.58 KCAL/MOL
REMARK 924 INTRA-LIGAND FREE ENERGY PREDICTED BY IDOCK:   -0.12 KCAL/MOL
REMARK 927      BINDING AFFINITY PREDICTED BY RF-SCORE:    0.00 PKD
ROOT
HETATM    1  C   UNL     1     -10.135  12.934  67.026  1.00  0.00    -0.245 C  
HETATM    2  C   UNL     1      -9.476  14.097  66.296  1.00  0.00    -0.241 C  
HETATM    3  S   UNL     1     -10.721  15.018  65.324  1.00  0.00    -0.420 SA 
HETATM    4  H   UNL     1     -10.120  16.079  64.658  1.00  0.00     0.000 H  
ENDROOT
BRANCH   2   5
HETATM    5  C   UNL     1      -8.762  15.050  67.261  1.00  0.00    -0.203 C  
HETATM    6  O   UNL     1      -9.122  15.244  68.417  1.00  0.00    -0.179 OA 
HETATM    7  N   UNL     1      -7.589  15.595  66.761  1.00  0.00    -0.214 N  
HETATM    8  H   UNL     1      -7.216  15.269  65.869  1.00  0.00     0.000 HD 
BRANCH   7   9
HETATM    9  C   UNL     1      -6.883  16.640  67.511  1.00  0.00    -0.151 C  
HETATM   10  C   UNL     1      -6.886  17.995  66.804  1.00  0.00    -0.196 C  
HETATM   11  O   UNL     1      -6.364  19.002  67.259  1.00  0.00    -0.187 OA 
HETATM   12  O   UNL     1      -7.575  17.996  65.638  1.00  0.00    -0.545 OA 
ENDBRANCH   7   9
ENDBRANCH   2   5
TORSDOF 2
ENDMDL
MODEL      144
REMARK 921   NORMALIZED FREE ENERGY PREDICTED BY IDOCK:   -2.33 KCAL/MOL
REMARK 922        TOTAL FREE ENERGY PREDICTED BY IDOCK:   -2.69 KCAL/MOL
REMARK 923 INTER-LIGAND FREE ENERGY PREDICTED BY IDOCK:   -2.60 KCAL/MOL
REMARK 924 INTRA-LIGAND FREE ENERGY PREDICTED BY IDOCK:   -0.09 KCAL/MOL
REMARK 927      BINDING AFFINITY PREDICTED BY RF-SCORE:    0.00 PKD
ROOT
HETATM    1  C   UNL     1      -9.706  15.200  68.506  1.00  0.00    -0.214 C  
HETATM    2  C   UNL     1      -8.509  16.124  68.686  1.00  0.00    -0.216 C  
HETATM    3  S   UNL     1      -6.959  15.153  68.700  1.00  0.00    -0.120 SA 
HETATM    4  H   UNL     1      -5.868  15.997  68.865  1.00  0.00     0.000 H  
ENDROOT
BRANCH   2   5
HETATM    5  C   UNL     1      -8.441  17.195  67.593  1.00  0.00    -0.200 C  
HETATM    6  O   UNL     1      -8.260  16.947  66.406  1.00  0.00    -0.256 OA 
HETATM    7  N   UNL     1      -8.724  18.479  68.034  1.00  0.00    -0.287 N  
HETATM    8  H   UNL     1      -9.056  18.628  68.988  1.00  0.00     0.000 HD 
BRANCH   7   9
HETATM    9  C   UNL     1      -8.547  19.625  67.135  1.00  0.00    -0.308 C  
HETATM   10  C   UNL     1      -7.255  20.400  67.394  1.00  0.00    -0.310 C  
HETATM   11  O   UNL     1      -6.909  21.380  66.751  1.00  0.00    -0.427 OA 
HETATM   12  O   UNL     1      -6.490  19.864  68.374  1.00  0.00    -0.257 OA 
ENDBRANCH   7   9
ENDBRANCH   2   5
TORSDOF 2
ENDMDL
MODEL      145
REMARK 921   NORMALIZED FREE ENERGY PREDICTED BY IDOCK:   -2.32 KCAL/MOL
REMARK 922        TOTAL FREE ENERGY PREDICTED BY IDOCK:   -2.68 KCAL/MOL
REMARK 923 INTER-LIGAND FREE ENERGY PREDICTED BY IDOCK:   -2.55 KCAL/MOL
REMARK 924 INTRA-LIGAND FREE ENERGY PREDICTED BY IDOCK:   -0.12 KCAL/MOL
REMARK 927      BINDING AFFINITY PREDICTED BY RF-SCORE:    0.00 PKD
ROOT
HETATM    1  C   UNL     1     -10.293   9.905  67.195  1.00  0.00    -0.304 C  
HETATM    2  C   UNL     1      -9.288  10.821  66.510  1.00  0.00    -0.168 C  
HETATM    3  S   UNL     1      -9.786  11.115  64.775  1.00  0.00    -0.297 SA 
HETATM    4  H   UNL     1      -8.870  11.952  64.149  1.00  0.00     0.000 H  
ENDROOT
BRANCH   2   5
HETATM    5  C   UNL     1      -9.139  12.159  67.242  1.00  0.00    -0.181 C  
HETATM    6  O   UNL     1      -9.650  12.401  68.329  1.00  0.00    -0.212 OA 
HETATM    7  N   UNL     1      -8.272  13.051  66.629  1.00  0.00    -0.398 N  
HETATM    8  H   UNL     1      -7.716  12.751  65.827  1.00  0.00     0.000 HD 
BRANCH   7   9
HETATM    9  C   UNL     1      -8.149  14.424  67.130  1.00  0.00    -0.145 C  
HETATM   10  C   UNL     1      -8.994  15.428  66.348  1.00  0.00    -0.316 C  
HETATM   11  O   UNL     1      -9.046  16.622  66.606  1.00  0.00    -0.220 OA 
HETATM   12  O   UNL     1      -9.734  14.864  65.364  1.00  0.00    -0.313 OA 
ENDBRANCH   7   9
ENDBRANCH   2   5
TORSDOF 2
ENDMDL
MODEL      146
REMARK 921   NORMALIZED FREE ENERGY PREDICTED BY IDOCK:   -2.29 KCAL/MOL
REMARK 922        TOTAL FREE ENERGY PREDICTED BY IDOCK:   -2.64 KCAL/MOL
REMARK 923 INTER-LIGAND FREE ENERGY PREDICTED BY IDOCK:   -2.52 KCAL/MOL
REMARK 924 INTRA-LIGAND FREE ENERGY PREDICTED BY IDOCK:   -0.12 KCAL/MOL
REMARK 927      BINDING AFFINITY PREDICTED BY RF-SCORE:    0.00 PKD
ROOT
HETATM    1  C   UNL     1     -11.027   6.474  67.312  1.00  0.00    -0.475 C  
HETATM    2  C   UNL     1      -9.620   6.982  67.600  1.00  0.00    -0.131 C  
HETATM    3  S   UNL     1      -8.620   6.966  66.069  1.00  0.00    -0.140 SA 
HETATM    4  H   UNL     1      -7.336   7.431  66.332  1.00  0.00     0.000 H  
ENDROOT
BRANCH   2   5
HETATM    5  C   UNL     1      -9.632   8.392  68.199  1.00  0.00    -0.143 C  
HETATM    6  O   UNL     1      -8.618   9.027  68.468  1.00  0.00    -0.127 OA 
HETATM    7  N   UNL     1     -10.894   8.957  68.304  1.00  0.00    -0.458 N  
HETATM    8  H   UNL     1     -11.700   8.481  67.898  1.00  0.00     0.000 HD 
BRANCH   7   9
HETATM    9  C   UNL     1     -11.075  10.236  68.999  1.00  0.00    -0.230 C  
HETATM   10  C   UNL     1     -11.611  10.079  70.421  1.00  0.00    -0.302 C  
HETATM   11  O   UNL     1     -11.822  11.016  71.177  1.00  0.00    -0.239 OA 
HETATM   12  O   UNL     1     -11.779   8.789  70.797  1.00  0.00    -0.279 OA 
ENDBRANCH   7   9
ENDBRANCH   2   5
TORSDOF 2
ENDMDL
MODEL      147
REMARK 921   NORMALIZED FREE ENERGY PREDICTED BY IDOCK:   -2.29 KCAL/MOL
REMARK 922        TOTAL FREE ENERGY PREDICTED BY IDOCK:   -2.64 KCAL/MOL
REMARK 923 INTER-LIGAND FREE ENERGY PREDICTED BY IDOCK:   -2.56 KCAL/MOL
REMARK 924 INTRA-LIGAND FREE ENERGY PREDICTED BY IDOCK:   -0.08 KCAL/MOL
REMARK 927      BINDING AFFINITY PREDICTED BY RF-SCORE:    0.00 PKD
ROOT
HETATM    1  C   UNL     1     -11.342  11.950  65.873  1.00  0.00    -0.365 C  
HETATM    2  C   UNL     1     -10.566  10.894  66.648  1.00  0.00    -0.249 C  
HETATM    3  S   UNL     1      -8.847  10.797  66.032  1.00  0.00    -0.185 SA 
HETATM    4  H   UNL     1      -8.139   9.833  66.739  1.00  0.00     0.000 H  
ENDROOT
BRANCH   2   5
HETATM    5  C   UNL     1     -10.563  11.175  68.154  1.00  0.00    -0.193 C  
HETATM    6  O   UNL     1     -10.391  12.287  68.640  1.00  0.00    -0.225 OA 
HETATM    7  N   UNL     1     -10.893  10.080  68.939  1.00  0.00    -0.219 N  
HETATM    8  H   UNL     1     -11.215   9.217  68.500  1.00  0.00     0.000 HD 
BRANCH   7   9
HETATM    9  C   UNL     1     -10.780  10.158  70.400  1.00  0.00    -0.266 C  
HETATM   10  C   UNL     1     -11.124   8.844  71.101  1.00  0.00    -0.285 C  
HETATM   11  O   UNL     1     -11.084   8.689  72.313  1.00  0.00    -0.354 OA 
HETATM   12  O   UNL     1     -11.426   7.837  70.248  1.00  0.00    -0.223 OA 
ENDBRANCH   7   9
ENDBRANCH   2   5
TORSDOF 2
ENDMDL
MODEL      148
REMARK 921   NORMALIZED FREE ENERGY PREDICTED BY IDOCK:   -2.28 KCAL/MOL
REMARK 922        TOTAL FREE ENERGY PREDICTED BY IDOCK:   -2.63 KCAL/MOL
REMARK 923 INTER-LIGAND FREE ENERGY PREDICTED BY IDOCK:   -2.51 KCAL/MOL
REMARK 924 INTRA-LIGAND FREE ENERGY PREDICTED BY IDOCK:   -0.13 KCAL/MOL
REMARK 927      BINDING AFFINITY PREDICTED BY RF-SCORE:    0.00 PKD
ROOT
HETATM    1  C   UNL     1      -9.564  10.803  66.692  1.00  0.00    -0.208 C  
HETATM    2  C   UNL     1      -9.887  12.265  66.415  1.00  0.00    -0.230 C  
HETATM    3  S   UNL     1     -11.583  12.654  66.981  1.00  0.00    -0.374 SA 
HETATM    4  H   UNL     1     -11.878  13.988  66.728  1.00  0.00     0.000 H  
ENDROOT
BRANCH   2   5
HETATM    5  C   UNL     1      -8.887  13.211  67.087  1.00  0.00    -0.222 C  
HETATM    6  O   UNL     1      -8.007  12.839  67.856  1.00  0.00    -0.132 OA 
HETATM    7  N   UNL     1      -8.973  14.529  66.663  1.00  0.00    -0.375 N  
HETATM    8  H   UNL     1      -9.587  14.773  65.885  1.00  0.00     0.000 HD 
BRANCH   7   9
HETATM    9  C   UNL     1      -8.186  15.572  67.328  1.00  0.00    -0.197 C  
HETATM   10  C   UNL     1      -9.042  16.704  67.894  1.00  0.00    -0.218 C  
HETATM   11  O   UNL     1      -8.588  17.667  68.495  1.00  0.00    -0.279 OA 
HETATM   12  O   UNL     1     -10.372  16.518  67.717  1.00  0.00    -0.273 OA 
ENDBRANCH   7   9
ENDBRANCH   2   5
TORSDOF 2
ENDMDL
MODEL      149
REMARK 921   NORMALIZED FREE ENERGY PREDICTED BY IDOCK:   -2.27 KCAL/MOL
REMARK 922        TOTAL FREE ENERGY PREDICTED BY IDOCK:   -2.63 KCAL/MOL
REMARK 923 INTER-LIGAND FREE ENERGY PREDICTED BY IDOCK:   -2.51 KCAL/MOL
REMARK 924 INTRA-LIGAND FREE ENERGY PREDICTED BY IDOCK:   -0.11 KCAL/MOL
REMARK 927      BINDING AFFINITY PREDICTED BY RF-SCORE:    0.00 PKD
ROOT
HETATM    1  C   UNL     1     -11.155   6.454  69.366  1.00  0.00    -0.450 C  
HETATM    2  C   UNL     1     -10.792   7.041  70.724  1.00  0.00    -0.246 C  
HETATM    3  S   UNL     1     -11.377   8.770  70.838  1.00  0.00    -0.281 SA 
HETATM    4  H   UNL     1     -11.047   9.307  72.077  1.00  0.00     0.000 H  
ENDROOT
BRANCH   2   5
HETATM    5  C   UNL     1     -11.373   6.219  71.878  1.00  0.00    -0.299 C  
HETATM    6  O   UNL     1     -12.560   6.218  72.185  1.00  0.00    -0.257 OA 
HETATM    7  N   UNL     1     -10.463   5.368  72.488  1.00  0.00    -0.205 N  
HETATM    8  H   UNL     1      -9.530   5.251  72.089  1.00  0.00     0.000 HD 
BRANCH   7   9
HETATM    9  C   UNL     1     -10.836   4.636  73.702  1.00  0.00    -0.302 C  
HETATM   10  C   UNL     1     -10.748   3.119  73.542  1.00  0.00    -0.205 C  
HETATM   11  O   UNL     1     -11.004   2.323  74.434  1.00  0.00    -0.120 OA 
HETATM   12  O   UNL     1     -10.301   2.728  72.324  1.00  0.00    -0.148 OA 
ENDBRANCH   7   9
ENDBRANCH   2   5
TORSDOF 2
ENDMDL
MODEL      150
REMARK 921   NORMALIZED FREE ENERGY PREDICTED BY IDOCK:   -2.25 KCAL/MOL
REMARK 922        TOTAL FREE ENERGY PREDICTED BY IDOCK:   -2.60 KCAL/MOL
REMARK 923 INTER-LIGAND FREE ENERGY PREDICTED BY IDOCK:   -2.51 KCAL/MOL
REMARK 924 INTRA-LIGAND FREE ENERGY PREDICTED BY IDOCK:   -0.09 KCAL/MOL
REMARK 927      BINDING AFFINITY PREDICTED BY RF-SCORE:    0.00 PKD
ROOT
HETATM    1  C   UNL     1      -9.684  13.508  66.701  1.00  0.00    -0.281 C  
HETATM    2  C   UNL     1     -10.962  12.679  66.708  1.00  0.00    -0.262 C  
HETATM    3  S   UNL     1     -12.085  13.243  65.379  1.00  0.00    -0.450 SA 
HETATM    4  H   UNL     1     -13.251  12.488  65.385  1.00  0.00     0.000 H  
ENDROOT
BRANCH   2   5
HETATM    5  C   UNL     1     -10.676  11.183  66.546  1.00  0.00    -0.260 C  
HETATM    6  O   UNL     1     -10.305  10.669  65.497  1.00  0.00    -0.266 OA 
HETATM    7  N   UNL     1     -10.754  10.456  67.725  1.00  0.00    -0.257 N  
HETATM    8  H   UNL     1     -10.879  10.941  68.614  1.00  0.00     0.000 HD 
BRANCH   7   9
HETATM    9  C   UNL     1     -10.658   8.993  67.698  1.00  0.00    -0.231 C  
HETATM   10  C   UNL     1      -9.876   8.419  68.880  1.00  0.00    -0.180 C  
HETATM   11  O   UNL     1      -9.687   7.225  69.056  1.00  0.00    -0.150 OA 
HETATM   12  O   UNL     1      -9.454   9.360  69.758  1.00  0.00    -0.175 OA 
ENDBRANCH   7   9
ENDBRANCH   2   5
TORSDOF 2
ENDMDL
MODEL      151
REMARK 921   NORMALIZED FREE ENERGY PREDICTED BY IDOCK:   -2.24 KCAL/MOL
REMARK 922        TOTAL FREE ENERGY PREDICTED BY IDOCK:   -2.59 KCAL/MOL
REMARK 923 INTER-LIGAND FREE ENERGY PREDICTED BY IDOCK:   -2.48 KCAL/MOL
REMARK 924 INTRA-LIGAND FREE ENERGY PREDICTED BY IDOCK:   -0.11 KCAL/MOL
REMARK 927      BINDING AFFINITY PREDICTED BY RF-SCORE:    0.00 PKD
ROOT
HETATM    1  C   UNL     1      -8.464   9.649  69.809  1.00  0.00    -0.200 C  
HETATM    2  C   UNL     1      -7.529  10.542  69.004  1.00  0.00    -0.112 C  
HETATM    3  S   UNL     1      -6.481   9.526  67.903  1.00  0.00    -0.062 SA 
HETATM    4  H   UNL     1      -5.627  10.341  67.169  1.00  0.00     0.000 H  
ENDROOT
BRANCH   2   5
HETATM    5  C   UNL     1      -8.296  11.580  68.179  1.00  0.00    -0.152 C  
HETATM    6  O   UNL     1      -8.282  12.783  68.414  1.00  0.00    -0.157 OA 
HETATM    7  N   UNL     1      -8.924  11.065  67.055  1.00  0.00    -0.146 N  
HETATM    8  H   UNL     1      -8.762  10.095  66.781  1.00  0.00     0.000 HD 
BRANCH   7   9
HETATM    9  C   UNL     1      -9.820  11.909  66.258  1.00  0.00    -0.225 C  
HETATM   10  C   UNL     1     -11.295  11.721  66.609  1.00  0.00    -0.316 C  
HETATM   11  O   UNL     1     -12.206  12.335  66.072  1.00  0.00    -0.646 OA 
HETATM   12  O   UNL     1     -11.504  10.845  67.620  1.00  0.00    -0.468 OA 
ENDBRANCH   7   9
ENDBRANCH   2   5
TORSDOF 2
ENDMDL
MODEL      152
REMARK 921   NORMALIZED FREE ENERGY PREDICTED BY IDOCK:   -2.24 KCAL/MOL
REMARK 922        TOTAL FREE ENERGY PREDICTED BY IDOCK:   -2.59 KCAL/MOL
REMARK 923 INTER-LIGAND FREE ENERGY PREDICTED BY IDOCK:   -2.46 KCAL/MOL
REMARK 924 INTRA-LIGAND FREE ENERGY PREDICTED BY IDOCK:   -0.13 KCAL/MOL
REMARK 927      BINDING AFFINITY PREDICTED BY RF-SCORE:    0.00 PKD
ROOT
HETATM    1  C   UNL     1      -8.707   3.915  73.654  1.00  0.00    -0.093 C  
HETATM    2  C   UNL     1      -9.504   4.059  72.365  1.00  0.00    -0.130 C  
HETATM    3  S   UNL     1      -9.981   2.411  71.732  1.00  0.00    -0.060 SA 
HETATM    4  H   UNL     1     -10.709   2.542  70.555  1.00  0.00     0.000 H  
ENDROOT
BRANCH   2   5
HETATM    5  C   UNL     1     -10.755   4.923  72.557  1.00  0.00    -0.196 C  
HETATM    6  O   UNL     1     -11.533   4.797  73.495  1.00  0.00    -0.320 OA 
HETATM    7  N   UNL     1     -10.880   5.957  71.640  1.00  0.00    -0.256 N  
HETATM    8  H   UNL     1     -10.120   6.153  70.988  1.00  0.00     0.000 HD 
BRANCH   7   9
HETATM    9  C   UNL     1     -12.101   6.769  71.605  1.00  0.00    -0.359 C  
HETATM   10  C   UNL     1     -11.901   8.181  72.152  1.00  0.00    -0.359 C  
HETATM   11  O   UNL     1     -12.785   9.024  72.203  1.00  0.00    -0.361 OA 
HETATM   12  O   UNL     1     -10.626   8.441  72.528  1.00  0.00    -0.328 OA 
ENDBRANCH   7   9
ENDBRANCH   2   5
TORSDOF 2
ENDMDL
MODEL      153
REMARK 921   NORMALIZED FREE ENERGY PREDICTED BY IDOCK:   -2.24 KCAL/MOL
REMARK 922        TOTAL FREE ENERGY PREDICTED BY IDOCK:   -2.59 KCAL/MOL
REMARK 923 INTER-LIGAND FREE ENERGY PREDICTED BY IDOCK:   -2.47 KCAL/MOL
REMARK 924 INTRA-LIGAND FREE ENERGY PREDICTED BY IDOCK:   -0.11 KCAL/MOL
REMARK 927      BINDING AFFINITY PREDICTED BY RF-SCORE:    0.00 PKD
ROOT
HETATM    1  C   UNL     1     -11.849  10.893  70.421  1.00  0.00    -0.449 C  
HETATM    2  C   UNL     1     -11.830   9.947  71.615  1.00  0.00    -0.296 C  
HETATM    3  S   UNL     1     -13.461   9.142  71.808  1.00  0.00    -0.434 SA 
HETATM    4  H   UNL     1     -13.443   8.279  72.896  1.00  0.00     0.000 H  
ENDROOT
BRANCH   2   5
HETATM    5  C   UNL     1     -10.737   8.881  71.484  1.00  0.00    -0.328 C  
HETATM    6  O   UNL     1     -10.503   8.268  70.449  1.00  0.00    -0.206 OA 
HETATM    7  N   UNL     1      -9.938   8.742  72.609  1.00  0.00    -0.102 N  
HETATM    8  H   UNL     1     -10.036   9.396  73.387  1.00  0.00     0.000 HD 
BRANCH   7   9
HETATM    9  C   UNL     1      -8.953   7.658  72.686  1.00  0.00    -0.154 C  
HETATM   10  C   UNL     1      -9.273   6.630  73.771  1.00  0.00    -0.155 C  
HETATM   11  O   UNL     1      -8.589   5.642  73.996  1.00  0.00    -0.117 OA 
HETATM   12  O   UNL     1     -10.427   6.882  74.433  1.00  0.00    -0.231 OA 
ENDBRANCH   7   9
ENDBRANCH   2   5
TORSDOF 2
ENDMDL
MODEL      154
REMARK 921   NORMALIZED FREE ENERGY PREDICTED BY IDOCK:   -2.23 KCAL/MOL
REMARK 922        TOTAL FREE ENERGY PREDICTED BY IDOCK:   -2.57 KCAL/MOL
REMARK 923 INTER-LIGAND FREE ENERGY PREDICTED BY IDOCK:   -2.43 KCAL/MOL
REMARK 924 INTRA-LIGAND FREE ENERGY PREDICTED BY IDOCK:   -0.15 KCAL/MOL
REMARK 927      BINDING AFFINITY PREDICTED BY RF-SCORE:    0.00 PKD
ROOT
HETATM    1  C   UNL     1     -10.518  17.428  68.435  1.00  0.00    -0.384 C  
HETATM    2  C   UNL     1     -10.338  16.344  69.489  1.00  0.00    -0.278 C  
HETATM    3  S   UNL     1     -11.942  15.544  69.851  1.00  0.00    -0.353 SA 
HETATM    4  H   UNL     1     -11.777  14.555  70.813  1.00  0.00     0.000 H  
ENDROOT
BRANCH   2   5
HETATM    5  C   UNL     1      -9.317  15.287  69.055  1.00  0.00    -0.231 C  
HETATM    6  O   UNL     1      -8.199  15.176  69.546  1.00  0.00    -0.224 OA 
HETATM    7  N   UNL     1      -9.801  14.371  68.132  1.00  0.00    -0.217 N  
HETATM    8  H   UNL     1     -10.791  14.374  67.884  1.00  0.00     0.000 HD 
BRANCH   7   9
HETATM    9  C   UNL     1      -8.894  13.399  67.512  1.00  0.00    -0.210 C  
HETATM   10  C   UNL     1      -9.209  11.953  67.895  1.00  0.00    -0.187 C  
HETATM   11  O   UNL     1      -8.584  10.988  67.481  1.00  0.00    -0.126 OA 
HETATM   12  O   UNL     1     -10.290  11.829  68.700  1.00  0.00    -0.215 OA 
ENDBRANCH   7   9
ENDBRANCH   2   5
TORSDOF 2
ENDMDL
MODEL      155
REMARK 921   NORMALIZED FREE ENERGY PREDICTED BY IDOCK:   -2.22 KCAL/MOL
REMARK 922        TOTAL FREE ENERGY PREDICTED BY IDOCK:   -2.57 KCAL/MOL
REMARK 923 INTER-LIGAND FREE ENERGY PREDICTED BY IDOCK:   -2.43 KCAL/MOL
REMARK 924 INTRA-LIGAND FREE ENERGY PREDICTED BY IDOCK:   -0.14 KCAL/MOL
REMARK 927      BINDING AFFINITY PREDICTED BY RF-SCORE:    0.00 PKD
ROOT
HETATM    1  C   UNL     1      -8.488   7.028  68.341  1.00  0.00    -0.123 C  
HETATM    2  C   UNL     1      -9.283   8.323  68.444  1.00  0.00    -0.135 C  
HETATM    3  S   UNL     1     -10.155   8.653  66.871  1.00  0.00    -0.299 SA 
HETATM    4  H   UNL     1     -10.881   9.834  66.964  1.00  0.00     0.000 H  
ENDROOT
BRANCH   2   5
HETATM    5  C   UNL     1     -10.290   8.288  69.598  1.00  0.00    -0.218 C  
HETATM    6  O   UNL     1     -10.491   9.230  70.356  1.00  0.00    -0.211 OA 
HETATM    7  N   UNL     1     -11.057   7.133  69.651  1.00  0.00    -0.404 N  
HETATM    8  H   UNL     1     -10.999   6.449  68.897  1.00  0.00     0.000 HD 
BRANCH   7   9
HETATM    9  C   UNL     1     -11.951   6.893  70.789  1.00  0.00    -0.373 C  
HETATM   10  C   UNL     1     -11.401   5.870  71.782  1.00  0.00    -0.227 C  
HETATM   11  O   UNL     1     -11.981   5.533  72.804  1.00  0.00    -0.237 OA 
HETATM   12  O   UNL     1     -10.172   5.406  71.456  1.00  0.00    -0.203 OA 
ENDBRANCH   7   9
ENDBRANCH   2   5
TORSDOF 2
ENDMDL
MODEL      156
REMARK 921   NORMALIZED FREE ENERGY PREDICTED BY IDOCK:   -2.22 KCAL/MOL
REMARK 922        TOTAL FREE ENERGY PREDICTED BY IDOCK:   -2.57 KCAL/MOL
REMARK 923 INTER-LIGAND FREE ENERGY PREDICTED BY IDOCK:   -2.46 KCAL/MOL
REMARK 924 INTRA-LIGAND FREE ENERGY PREDICTED BY IDOCK:   -0.11 KCAL/MOL
REMARK 927      BINDING AFFINITY PREDICTED BY RF-SCORE:    0.00 PKD
ROOT
HETATM    1  C   UNL     1     -11.343  10.956  67.804  1.00  0.00    -0.366 C  
HETATM    2  C   UNL     1     -10.445   9.916  67.148  1.00  0.00    -0.242 C  
HETATM    3  S   UNL     1      -8.785  10.621  66.842  1.00  0.00    -0.133 SA 
HETATM    4  H   UNL     1      -7.965   9.673  66.244  1.00  0.00     0.000 H  
ENDROOT
BRANCH   2   5
HETATM    5  C   UNL     1     -10.322   8.647  67.996  1.00  0.00    -0.223 C  
HETATM    6  O   UNL     1      -9.861   8.628  69.132  1.00  0.00    -0.177 OA 
HETATM    7  N   UNL     1     -10.890   7.519  67.422  1.00  0.00    -0.522 N  
HETATM    8  H   UNL     1     -11.432   7.605  66.561  1.00  0.00     0.000 HD 
BRANCH   7   9
HETATM    9  C   UNL     1     -10.713   6.204  68.046  1.00  0.00    -0.295 C  
HETATM   10  C   UNL     1      -9.901   5.234  67.189  1.00  0.00    -0.164 C  
HETATM   11  O   UNL     1      -9.629   4.091  67.526  1.00  0.00    -0.183 OA 
HETATM   12  O   UNL     1      -9.456   5.777  66.031  1.00  0.00    -0.154 OA 
ENDBRANCH   7   9
ENDBRANCH   2   5
TORSDOF 2
ENDMDL
MODEL      157
REMARK 921   NORMALIZED FREE ENERGY PREDICTED BY IDOCK:   -2.21 KCAL/MOL
REMARK 922        TOTAL FREE ENERGY PREDICTED BY IDOCK:   -2.56 KCAL/MOL
REMARK 923 INTER-LIGAND FREE ENERGY PREDICTED BY IDOCK:   -2.47 KCAL/MOL
REMARK 924 INTRA-LIGAND FREE ENERGY PREDICTED BY IDOCK:   -0.08 KCAL/MOL
REMARK 927      BINDING AFFINITY PREDICTED BY RF-SCORE:    0.00 PKD
ROOT
HETATM    1  C   UNL     1      -8.337   8.234  73.119  1.00  0.00    -0.253 C  
HETATM    2  C   UNL     1      -9.034   7.102  72.376  1.00  0.00    -0.127 C  
HETATM    3  S   UNL     1     -10.440   6.473  73.362  1.00  0.00    -0.293 SA 
HETATM    4  H   UNL     1     -11.077   5.440  72.685  1.00  0.00     0.000 H  
ENDROOT
BRANCH   2   5
HETATM    5  C   UNL     1      -9.525   7.540  70.993  1.00  0.00    -0.160 C  
HETATM    6  O   UNL     1      -9.275   6.934  69.957  1.00  0.00    -0.154 OA 
HETATM    7  N   UNL     1     -10.388   8.626  71.011  1.00  0.00    -0.205 N  
HETATM    8  H   UNL     1     -10.727   8.991  71.902  1.00  0.00     0.000 HD 
BRANCH   7   9
HETATM    9  C   UNL     1     -10.815   9.251  69.755  1.00  0.00    -0.224 C  
HETATM   10  C   UNL     1     -11.741  10.449  69.963  1.00  0.00    -0.286 C  
HETATM   11  O   UNL     1     -12.203  11.119  69.051  1.00  0.00    -0.469 OA 
HETATM   12  O   UNL     1     -11.963  10.742  71.266  1.00  0.00    -0.304 OA 
ENDBRANCH   7   9
ENDBRANCH   2   5
TORSDOF 2
ENDMDL
MODEL      158
REMARK 921   NORMALIZED FREE ENERGY PREDICTED BY IDOCK:   -2.21 KCAL/MOL
REMARK 922        TOTAL FREE ENERGY PREDICTED BY IDOCK:   -2.56 KCAL/MOL
REMARK 923 INTER-LIGAND FREE ENERGY PREDICTED BY IDOCK:   -2.42 KCAL/MOL
REMARK 924 INTRA-LIGAND FREE ENERGY PREDICTED BY IDOCK:   -0.13 KCAL/MOL
REMARK 927      BINDING AFFINITY PREDICTED BY RF-SCORE:    0.00 PKD
ROOT
HETATM    1  C   UNL     1     -10.389  17.572  67.474  1.00  0.00    -0.356 C  
HETATM    2  C   UNL     1     -10.656  16.085  67.287  1.00  0.00    -0.313 C  
HETATM    3  S   UNL     1     -10.505  15.635  65.521  1.00  0.00    -0.425 SA 
HETATM    4  H   UNL     1     -10.748  14.278  65.349  1.00  0.00     0.000 H  
ENDROOT
BRANCH   2   5
HETATM    5  C   UNL     1      -9.706  15.222  68.125  1.00  0.00    -0.212 C  
HETATM    6  O   UNL     1      -9.785  15.108  69.343  1.00  0.00    -0.225 OA 
HETATM    7  N   UNL     1      -8.810  14.471  67.379  1.00  0.00    -0.187 N  
HETATM    8  H   UNL     1      -8.893  14.442  66.362  1.00  0.00     0.000 HD 
BRANCH   7   9
HETATM    9  C   UNL     1      -7.742  13.719  68.047  1.00  0.00    -0.152 C  
HETATM   10  C   UNL     1      -6.354  14.318  67.825  1.00  0.00    -0.154 C  
HETATM   11  O   UNL     1      -5.328  13.855  68.301  1.00  0.00    -0.095 OA 
HETATM   12  O   UNL     1      -6.366  15.456  67.091  1.00  0.00    -0.305 OA 
ENDBRANCH   7   9
ENDBRANCH   2   5
TORSDOF 2
ENDMDL
MODEL      159
REMARK 921   NORMALIZED FREE ENERGY PREDICTED BY IDOCK:   -2.19 KCAL/MOL
REMARK 922        TOTAL FREE ENERGY PREDICTED BY IDOCK:   -2.53 KCAL/MOL
REMARK 923 INTER-LIGAND FREE ENERGY PREDICTED BY IDOCK:   -2.39 KCAL/MOL
REMARK 924 INTRA-LIGAND FREE ENERGY PREDICTED BY IDOCK:   -0.14 KCAL/MOL
REMARK 927      BINDING AFFINITY PREDICTED BY RF-SCORE:    0.00 PKD
ROOT
HETATM    1  C   UNL     1     -11.383  12.119  65.487  1.00  0.00    -0.393 C  
HETATM    2  C   UNL     1     -10.527  10.993  64.923  1.00  0.00    -0.303 C  
HETATM    3  S   UNL     1      -9.934  11.431  63.249  1.00  0.00    -0.402 SA 
HETATM    4  H   UNL     1      -9.153  10.403  62.734  1.00  0.00     0.000 H  
ENDROOT
BRANCH   2   5
HETATM    5  C   UNL     1      -9.334  10.670  65.828  1.00  0.00    -0.186 C  
HETATM    6  O   UNL     1      -9.060   9.540  66.217  1.00  0.00    -0.149 OA 
HETATM    7  N   UNL     1      -8.503  11.750  66.083  1.00  0.00    -0.385 N  
HETATM    8  H   UNL     1      -8.650  12.633  65.593  1.00  0.00     0.000 HD 
BRANCH   7   9
HETATM    9  C   UNL     1      -7.411  11.628  67.055  1.00  0.00    -0.150 C  
HETATM   10  C   UNL     1      -7.680  12.375  68.361  1.00  0.00    -0.144 C  
HETATM   11  O   UNL     1      -6.906  12.395  69.307  1.00  0.00    -0.095 OA 
HETATM   12  O   UNL     1      -8.893  12.977  68.400  1.00  0.00    -0.183 OA 
ENDBRANCH   7   9
ENDBRANCH   2   5
TORSDOF 2
ENDMDL
MODEL      160
REMARK 921   NORMALIZED FREE ENERGY PREDICTED BY IDOCK:   -2.18 KCAL/MOL
REMARK 922        TOTAL FREE ENERGY PREDICTED BY IDOCK:   -2.52 KCAL/MOL
REMARK 923 INTER-LIGAND FREE ENERGY PREDICTED BY IDOCK:   -2.38 KCAL/MOL
REMARK 924 INTRA-LIGAND FREE ENERGY PREDICTED BY IDOCK:   -0.14 KCAL/MOL
REMARK 927      BINDING AFFINITY PREDICTED BY RF-SCORE:    0.00 PKD
ROOT
HETATM    1  C   UNL     1      -8.870  12.625  68.069  1.00  0.00    -0.195 C  
HETATM    2  C   UNL     1     -10.095  11.849  68.533  1.00  0.00    -0.206 C  
HETATM    3  S   UNL     1     -11.376  11.856  67.228  1.00  0.00    -0.327 SA 
HETATM    4  H   UNL     1     -12.495  11.149  67.651  1.00  0.00     0.000 H  
ENDROOT
BRANCH   2   5
HETATM    5  C   UNL     1      -9.750  10.406  68.915  1.00  0.00    -0.198 C  
HETATM    6  O   UNL     1      -8.654  10.056  69.335  1.00  0.00    -0.149 OA 
HETATM    7  N   UNL     1     -10.824   9.530  68.861  1.00  0.00    -0.364 N  
HETATM    8  H   UNL     1     -11.765   9.887  68.691  1.00  0.00     0.000 HD 
BRANCH   7   9
HETATM    9  C   UNL     1     -10.613   8.091  69.050  1.00  0.00    -0.154 C  
HETATM   10  C   UNL     1     -11.091   7.585  70.410  1.00  0.00    -0.261 C  
HETATM   11  O   UNL     1     -11.019   6.418  70.767  1.00  0.00    -0.256 OA 
HETATM   12  O   UNL     1     -11.661   8.545  71.176  1.00  0.00    -0.271 OA 
ENDBRANCH   7   9
ENDBRANCH   2   5
TORSDOF 2
ENDMDL
MODEL      161
REMARK 921   NORMALIZED FREE ENERGY PREDICTED BY IDOCK:   -2.18 KCAL/MOL
REMARK 922        TOTAL FREE ENERGY PREDICTED BY IDOCK:   -2.52 KCAL/MOL
REMARK 923 INTER-LIGAND FREE ENERGY PREDICTED BY IDOCK:   -2.43 KCAL/MOL
REMARK 924 INTRA-LIGAND FREE ENERGY PREDICTED BY IDOCK:   -0.09 KCAL/MOL
REMARK 927      BINDING AFFINITY PREDICTED BY RF-SCORE:    0.00 PKD
ROOT
HETATM    1  C   UNL     1     -13.061   7.119  71.229  1.00  0.00    -0.361 C  
HETATM    2  C   UNL     1     -11.723   6.393  71.220  1.00  0.00    -0.300 C  
HETATM    3  S   UNL     1     -11.128   6.191  69.502  1.00  0.00    -0.404 SA 
HETATM    4  H   UNL     1      -9.906   5.529  69.493  1.00  0.00     0.000 H  
ENDROOT
BRANCH   2   5
HETATM    5  C   UNL     1     -10.666   7.128  72.052  1.00  0.00    -0.214 C  
HETATM    6  O   UNL     1     -10.928   7.816  73.032  1.00  0.00    -0.386 OA 
HETATM    7  N   UNL     1      -9.358   6.857  71.680  1.00  0.00    -0.154 N  
HETATM    8  H   UNL     1      -9.165   6.134  70.985  1.00  0.00     0.000 HD 
BRANCH   7   9
HETATM    9  C   UNL     1      -8.249   7.604  72.284  1.00  0.00    -0.108 C  
HETATM   10  C   UNL     1      -7.845   8.837  71.477  1.00  0.00    -0.104 C  
HETATM   11  O   UNL     1      -6.952   9.604  71.808  1.00  0.00    -0.245 OA 
HETATM   12  O   UNL     1      -8.609   9.040  70.378  1.00  0.00    -0.153 OA 
ENDBRANCH   7   9
ENDBRANCH   2   5
TORSDOF 2
ENDMDL
MODEL      162
REMARK 921   NORMALIZED FREE ENERGY PREDICTED BY IDOCK:   -2.17 KCAL/MOL
REMARK 922        TOTAL FREE ENERGY PREDICTED BY IDOCK:   -2.51 KCAL/MOL
REMARK 923 INTER-LIGAND FREE ENERGY PREDICTED BY IDOCK:   -2.40 KCAL/MOL
REMARK 924 INTRA-LIGAND FREE ENERGY PREDICTED BY IDOCK:   -0.12 KCAL/MOL
REMARK 927      BINDING AFFINITY PREDICTED BY RF-SCORE:    0.00 PKD
ROOT
HETATM    1  C   UNL     1      -7.542   9.281  67.507  1.00  0.00    -0.088 C  
HETATM    2  C   UNL     1      -8.675  10.188  67.045  1.00  0.00    -0.132 C  
HETATM    3  S   UNL     1      -8.951   9.984  65.248  1.00  0.00    -0.204 SA 
HETATM    4  H   UNL     1      -9.985  10.810  64.826  1.00  0.00     0.000 H  
ENDROOT
BRANCH   2   5
HETATM    5  C   UNL     1      -9.977   9.912  67.805  1.00  0.00    -0.165 C  
HETATM    6  O   UNL     1     -10.894   9.231  67.361  1.00  0.00    -0.255 OA 
HETATM    7  N   UNL     1      -9.993  10.399  69.103  1.00  0.00    -0.213 N  
HETATM    8  H   UNL     1      -9.145  10.797  69.508  1.00  0.00     0.000 HD 
BRANCH   7   9
HETATM    9  C   UNL     1     -11.226  10.346  69.896  1.00  0.00    -0.306 C  
HETATM   10  C   UNL     1     -11.068   9.570  71.203  1.00  0.00    -0.379 C  
HETATM   11  O   UNL     1     -11.968   9.415  72.016  1.00  0.00    -0.355 OA 
HETATM   12  O   UNL     1      -9.811   9.112  71.412  1.00  0.00    -0.298 OA 
ENDBRANCH   7   9
ENDBRANCH   2   5
TORSDOF 2
ENDMDL
MODEL      163
REMARK 921   NORMALIZED FREE ENERGY PREDICTED BY IDOCK:   -2.15 KCAL/MOL
REMARK 922        TOTAL FREE ENERGY PREDICTED BY IDOCK:   -2.48 KCAL/MOL
REMARK 923 INTER-LIGAND FREE ENERGY PREDICTED BY IDOCK:   -2.39 KCAL/MOL
REMARK 924 INTRA-LIGAND FREE ENERGY PREDICTED BY IDOCK:   -0.09 KCAL/MOL
REMARK 927      BINDING AFFINITY PREDICTED BY RF-SCORE:    0.00 PKD
ROOT
HETATM    1  C   UNL     1      -8.271   8.068  73.941  1.00  0.00    -0.306 C  
HETATM    2  C   UNL     1      -8.115   6.767  73.166  1.00  0.00    -0.107 C  
HETATM    3  S   UNL     1      -7.147   5.563  74.145  1.00  0.00    -0.082 SA 
HETATM    4  H   UNL     1      -7.005   4.375  73.439  1.00  0.00     0.000 H  
ENDROOT
BRANCH   2   5
HETATM    5  C   UNL     1      -9.470   6.159  72.788  1.00  0.00    -0.151 C  
HETATM    6  O   UNL     1      -9.810   5.018  73.080  1.00  0.00    -0.149 OA 
HETATM    7  N   UNL     1     -10.346   7.048  72.184  1.00  0.00    -0.191 N  
HETATM    8  H   UNL     1     -10.105   8.039  72.125  1.00  0.00     0.000 HD 
BRANCH   7   9
HETATM    9  C   UNL     1     -11.617   6.571  71.630  1.00  0.00    -0.308 C  
HETATM   10  C   UNL     1     -12.746   7.595  71.744  1.00  0.00    -0.330 C  
HETATM   11  O   UNL     1     -13.882   7.404  71.335  1.00  0.00    -0.393 OA 
HETATM   12  O   UNL     1     -12.358   8.769  72.296  1.00  0.00    -0.373 OA 
ENDBRANCH   7   9
ENDBRANCH   2   5
TORSDOF 2
ENDMDL
MODEL      164
REMARK 921   NORMALIZED FREE ENERGY PREDICTED BY IDOCK:   -2.12 KCAL/MOL
REMARK 922        TOTAL FREE ENERGY PREDICTED BY IDOCK:   -2.46 KCAL/MOL
REMARK 923 INTER-LIGAND FREE ENERGY PREDICTED BY IDOCK:   -2.33 KCAL/MOL
REMARK 924 INTRA-LIGAND FREE ENERGY PREDICTED BY IDOCK:   -0.13 KCAL/MOL
REMARK 927      BINDING AFFINITY PREDICTED BY RF-SCORE:    0.00 PKD
ROOT
HETATM    1  C   UNL     1      -8.728  15.925  68.844  1.00  0.00    -0.225 C  
HETATM    2  C   UNL     1      -8.095  15.546  67.512  1.00  0.00    -0.165 C  
HETATM    3  S   UNL     1      -6.417  14.869  67.783  1.00  0.00    -0.148 SA 
HETATM    4  H   UNL     1      -5.839  14.523  66.568  1.00  0.00     0.000 H  
ENDROOT
BRANCH   2   5
HETATM    5  C   UNL     1      -8.945  14.532  66.741  1.00  0.00    -0.246 C  
HETATM    6  O   UNL     1      -9.877  14.842  66.007  1.00  0.00    -0.290 OA 
HETATM    7  N   UNL     1      -8.502  13.221  66.841  1.00  0.00    -0.405 N  
HETATM    8  H   UNL     1      -7.615  13.018  67.304  1.00  0.00     0.000 HD 
BRANCH   7   9
HETATM    9  C   UNL     1      -9.302  12.126  66.284  1.00  0.00    -0.218 C  
HETATM   10  C   UNL     1      -9.963  11.258  67.354  1.00  0.00    -0.182 C  
HETATM   11  O   UNL     1     -10.681  10.300  67.106  1.00  0.00    -0.257 OA 
HETATM   12  O   UNL     1      -9.725  11.682  68.618  1.00  0.00    -0.192 OA 
ENDBRANCH   7   9
ENDBRANCH   2   5
TORSDOF 2
ENDMDL
MODEL      165
REMARK 921   NORMALIZED FREE ENERGY PREDICTED BY IDOCK:   -2.12 KCAL/MOL
REMARK 922        TOTAL FREE ENERGY PREDICTED BY IDOCK:   -2.46 KCAL/MOL
REMARK 923 INTER-LIGAND FREE ENERGY PREDICTED BY IDOCK:   -2.34 KCAL/MOL
REMARK 924 INTRA-LIGAND FREE ENERGY PREDICTED BY IDOCK:   -0.12 KCAL/MOL
REMARK 927      BINDING AFFINITY PREDICTED BY RF-SCORE:    0.00 PKD
ROOT
HETATM    1  C   UNL     1     -10.910   5.264  72.804  1.00  0.00    -0.313 C  
HETATM    2  C   UNL     1     -11.660   6.267  71.937  1.00  0.00    -0.317 C  
HETATM    3  S   UNL     1     -11.356   7.968  72.535  1.00  0.00    -0.411 SA 
HETATM    4  H   UNL     1     -12.040   8.883  71.743  1.00  0.00     0.000 H  
ENDROOT
BRANCH   2   5
HETATM    5  C   UNL     1     -11.265   6.156  70.461  1.00  0.00    -0.334 C  
HETATM    6  O   UNL     1     -11.816   6.778  69.559  1.00  0.00    -0.133 OA 
HETATM    7  N   UNL     1     -10.141   5.378  70.228  1.00  0.00    -0.227 N  
HETATM    8  H   UNL     1      -9.593   5.027  71.014  1.00  0.00     0.000 HD 
BRANCH   7   9
HETATM    9  C   UNL     1      -9.737   5.057  68.855  1.00  0.00    -0.167 C  
HETATM   10  C   UNL     1      -9.305   3.602  68.679  1.00  0.00    -0.164 C  
HETATM   11  O   UNL     1      -8.941   3.123  67.614  1.00  0.00    -0.123 OA 
HETATM   12  O   UNL     1      -9.414   2.864  69.809  1.00  0.00    -0.149 OA 
ENDBRANCH   7   9
ENDBRANCH   2   5
TORSDOF 2
ENDMDL
MODEL      166
REMARK 921   NORMALIZED FREE ENERGY PREDICTED BY IDOCK:   -2.12 KCAL/MOL
REMARK 922        TOTAL FREE ENERGY PREDICTED BY IDOCK:   -2.45 KCAL/MOL
REMARK 923 INTER-LIGAND FREE ENERGY PREDICTED BY IDOCK:   -2.32 KCAL/MOL
REMARK 924 INTRA-LIGAND FREE ENERGY PREDICTED BY IDOCK:   -0.14 KCAL/MOL
REMARK 927      BINDING AFFINITY PREDICTED BY RF-SCORE:    0.00 PKD
ROOT
HETATM    1  C   UNL     1     -10.958   6.294  67.128  1.00  0.00    -0.453 C  
HETATM    2  C   UNL     1      -9.554   6.858  67.298  1.00  0.00    -0.142 C  
HETATM    3  S   UNL     1      -8.504   6.370  65.883  1.00  0.00    -0.149 SA 
HETATM    4  H   UNL     1      -7.223   6.885  66.038  1.00  0.00     0.000 H  
ENDROOT
BRANCH   2   5
HETATM    5  C   UNL     1      -9.562   8.384  67.437  1.00  0.00    -0.157 C  
HETATM    6  O   UNL     1      -8.602   9.038  67.829  1.00  0.00    -0.121 OA 
HETATM    7  N   UNL     1     -10.715   8.994  66.966  1.00  0.00    -0.281 N  
HETATM    8  H   UNL     1     -11.418   8.441  66.472  1.00  0.00     0.000 HD 
BRANCH   7   9
HETATM    9  C   UNL     1     -10.929  10.430  67.174  1.00  0.00    -0.196 C  
HETATM   10  C   UNL     1     -10.684  11.264  65.917  1.00  0.00    -0.232 C  
HETATM   11  O   UNL     1     -10.816  12.478  65.869  1.00  0.00    -0.259 OA 
HETATM   12  O   UNL     1     -10.357  10.523  64.832  1.00  0.00    -0.328 OA 
ENDBRANCH   7   9
ENDBRANCH   2   5
TORSDOF 2
ENDMDL
MODEL      167
REMARK 921   NORMALIZED FREE ENERGY PREDICTED BY IDOCK:   -2.10 KCAL/MOL
REMARK 922        TOTAL FREE ENERGY PREDICTED BY IDOCK:   -2.44 KCAL/MOL
REMARK 923 INTER-LIGAND FREE ENERGY PREDICTED BY IDOCK:   -2.33 KCAL/MOL
REMARK 924 INTRA-LIGAND FREE ENERGY PREDICTED BY IDOCK:   -0.10 KCAL/MOL
REMARK 927      BINDING AFFINITY PREDICTED BY RF-SCORE:    0.00 PKD
ROOT
HETATM    1  C   UNL     1     -11.607  11.648  68.086  1.00  0.00    -0.389 C  
HETATM    2  C   UNL     1     -10.542  10.568  67.947  1.00  0.00    -0.232 C  
HETATM    3  S   UNL     1      -8.890  11.333  67.769  1.00  0.00    -0.145 SA 
HETATM    4  H   UNL     1      -7.918  10.348  67.643  1.00  0.00     0.000 H  
ENDROOT
BRANCH   2   5
HETATM    5  C   UNL     1     -10.543   9.605  69.139  1.00  0.00    -0.220 C  
HETATM    6  O   UNL     1     -10.413   9.963  70.304  1.00  0.00    -0.262 OA 
HETATM    7  N   UNL     1     -10.825   8.288  68.808  1.00  0.00    -0.428 N  
HETATM    8  H   UNL     1     -11.115   8.053  67.858  1.00  0.00     0.000 HD 
BRANCH   7   9
HETATM    9  C   UNL     1     -10.710   7.232  69.819  1.00  0.00    -0.239 C  
HETATM   10  C   UNL     1      -9.468   6.359  69.638  1.00  0.00    -0.147 C  
HETATM   11  O   UNL     1      -9.176   5.430  70.377  1.00  0.00    -0.146 OA 
HETATM   12  O   UNL     1      -8.680   6.745  68.607  1.00  0.00    -0.125 OA 
ENDBRANCH   7   9
ENDBRANCH   2   5
TORSDOF 2
ENDMDL
MODEL      168
REMARK 921   NORMALIZED FREE ENERGY PREDICTED BY IDOCK:   -2.10 KCAL/MOL
REMARK 922        TOTAL FREE ENERGY PREDICTED BY IDOCK:   -2.44 KCAL/MOL
REMARK 923 INTER-LIGAND FREE ENERGY PREDICTED BY IDOCK:   -2.29 KCAL/MOL
REMARK 924 INTRA-LIGAND FREE ENERGY PREDICTED BY IDOCK:   -0.15 KCAL/MOL
REMARK 927      BINDING AFFINITY PREDICTED BY RF-SCORE:    0.00 PKD
ROOT
HETATM    1  C   UNL     1     -10.932   6.585  67.203  1.00  0.00    -0.480 C  
HETATM    2  C   UNL     1      -9.747   7.528  67.357  1.00  0.00    -0.159 C  
HETATM    3  S   UNL     1     -10.318   9.266  67.337  1.00  0.00    -0.272 SA 
HETATM    4  H   UNL     1      -9.236  10.126  67.477  1.00  0.00     0.000 H  
ENDROOT
BRANCH   2   5
HETATM    5  C   UNL     1      -8.959   7.255  68.642  1.00  0.00    -0.128 C  
HETATM    6  O   UNL     1      -8.575   6.142  68.982  1.00  0.00    -0.120 OA 
HETATM    7  N   UNL     1      -8.604   8.396  69.347  1.00  0.00    -0.128 N  
HETATM    8  H   UNL     1      -8.773   9.317  68.942  1.00  0.00     0.000 HD 
BRANCH   7   9
HETATM    9  C   UNL     1      -7.984   8.282  70.671  1.00  0.00    -0.094 C  
HETATM   10  C   UNL     1      -8.920   8.683  71.810  1.00  0.00    -0.237 C  
HETATM   11  O   UNL     1      -8.607   8.652  72.992  1.00  0.00    -0.395 OA 
HETATM   12  O   UNL     1     -10.161   9.028  71.395  1.00  0.00    -0.275 OA 
ENDBRANCH   7   9
ENDBRANCH   2   5
TORSDOF 2
ENDMDL
MODEL      169
REMARK 921   NORMALIZED FREE ENERGY PREDICTED BY IDOCK:   -2.10 KCAL/MOL
REMARK 922        TOTAL FREE ENERGY PREDICTED BY IDOCK:   -2.43 KCAL/MOL
REMARK 923 INTER-LIGAND FREE ENERGY PREDICTED BY IDOCK:   -2.31 KCAL/MOL
REMARK 924 INTRA-LIGAND FREE ENERGY PREDICTED BY IDOCK:   -0.12 KCAL/MOL
REMARK 927      BINDING AFFINITY PREDICTED BY RF-SCORE:    0.00 PKD
ROOT
HETATM    1  C   UNL     1     -10.337   4.985  71.146  1.00  0.00    -0.254 C  
HETATM    2  C   UNL     1     -11.087   6.308  71.228  1.00  0.00    -0.289 C  
HETATM    3  S   UNL     1     -11.153   6.887  72.962  1.00  0.00    -0.188 SA 
HETATM    4  H   UNL     1     -11.837   8.095  73.037  1.00  0.00     0.000 H  
ENDROOT
BRANCH   2   5
HETATM    5  C   UNL     1     -10.449   7.385  70.345  1.00  0.00    -0.221 C  
HETATM    6  O   UNL     1     -10.429   8.577  70.630  1.00  0.00    -0.194 OA 
HETATM    7  N   UNL     1      -9.778   6.890  69.236  1.00  0.00    -0.156 N  
HETATM    8  H   UNL     1      -9.651   5.883  69.127  1.00  0.00     0.000 HD 
BRANCH   7   9
HETATM    9  C   UNL     1      -9.252   7.808  68.221  1.00  0.00    -0.139 C  
HETATM   10  C   UNL     1     -10.072   7.814  66.931  1.00  0.00    -0.286 C  
HETATM   11  O   UNL     1      -9.814   8.515  65.964  1.00  0.00    -0.212 OA 
HETATM   12  O   UNL     1     -11.157   7.006  66.976  1.00  0.00    -0.373 OA 
ENDBRANCH   7   9
ENDBRANCH   2   5
TORSDOF 2
ENDMDL
MODEL      170
REMARK 921   NORMALIZED FREE ENERGY PREDICTED BY IDOCK:   -2.09 KCAL/MOL
REMARK 922        TOTAL FREE ENERGY PREDICTED BY IDOCK:   -2.42 KCAL/MOL
REMARK 923 INTER-LIGAND FREE ENERGY PREDICTED BY IDOCK:   -2.33 KCAL/MOL
REMARK 924 INTRA-LIGAND FREE ENERGY PREDICTED BY IDOCK:   -0.09 KCAL/MOL
REMARK 927      BINDING AFFINITY PREDICTED BY RF-SCORE:    0.00 PKD
ROOT
HETATM    1  C   UNL     1     -10.693  16.170  67.806  1.00  0.00    -0.325 C  
HETATM    2  C   UNL     1      -9.798  17.317  67.356  1.00  0.00    -0.272 C  
HETATM    3  S   UNL     1     -10.757  18.872  67.279  1.00  0.00    -0.382 SA 
HETATM    4  H   UNL     1      -9.941  19.919  66.868  1.00  0.00     0.000 H  
ENDROOT
BRANCH   2   5
HETATM    5  C   UNL     1      -8.589  17.498  68.279  1.00  0.00    -0.266 C  
HETATM    6  O   UNL     1      -8.169  18.589  68.647  1.00  0.00    -0.325 OA 
HETATM    7  N   UNL     1      -8.067  16.312  68.774  1.00  0.00    -0.214 N  
HETATM    8  H   UNL     1      -8.552  15.431  68.602  1.00  0.00     0.000 HD 
BRANCH   7   9
HETATM    9  C   UNL     1      -6.818  16.320  69.544  1.00  0.00    -0.188 C  
HETATM   10  C   UNL     1      -6.239  14.923  69.766  1.00  0.00    -0.144 C  
HETATM   11  O   UNL     1      -5.200  14.705  70.372  1.00  0.00    -0.103 OA 
HETATM   12  O   UNL     1      -6.957  13.939  69.175  1.00  0.00    -0.111 OA 
ENDBRANCH   7   9
ENDBRANCH   2   5
TORSDOF 2
ENDMDL
MODEL      171
REMARK 921   NORMALIZED FREE ENERGY PREDICTED BY IDOCK:   -2.08 KCAL/MOL
REMARK 922        TOTAL FREE ENERGY PREDICTED BY IDOCK:   -2.41 KCAL/MOL
REMARK 923 INTER-LIGAND FREE ENERGY PREDICTED BY IDOCK:   -2.27 KCAL/MOL
REMARK 924 INTRA-LIGAND FREE ENERGY PREDICTED BY IDOCK:   -0.15 KCAL/MOL
REMARK 927      BINDING AFFINITY PREDICTED BY RF-SCORE:    0.00 PKD
ROOT
HETATM    1  C   UNL     1     -10.525   7.044  73.672  1.00  0.00    -0.414 C  
HETATM    2  C   UNL     1     -10.017   5.821  72.921  1.00  0.00    -0.176 C  
HETATM    3  S   UNL     1     -11.039   4.361  73.332  1.00  0.00    -0.288 SA 
HETATM    4  H   UNL     1     -10.576   3.244  72.647  1.00  0.00     0.000 H  
ENDROOT
BRANCH   2   5
HETATM    5  C   UNL     1     -10.011   6.040  71.405  1.00  0.00    -0.186 C  
HETATM    6  O   UNL     1      -9.404   5.326  70.615  1.00  0.00    -0.152 OA 
HETATM    7  N   UNL     1     -10.855   7.052  70.971  1.00  0.00    -0.233 N  
HETATM    8  H   UNL     1     -11.490   7.502  71.631  1.00  0.00     0.000 HD 
BRANCH   7   9
HETATM    9  C   UNL     1     -10.838   7.477  69.568  1.00  0.00    -0.175 C  
HETATM   10  C   UNL     1     -10.298   8.893  69.374  1.00  0.00    -0.213 C  
HETATM   11  O   UNL     1     -10.188   9.437  68.284  1.00  0.00    -0.180 OA 
HETATM   12  O   UNL     1      -9.894   9.481  70.525  1.00  0.00    -0.248 OA 
ENDBRANCH   7   9
ENDBRANCH   2   5
TORSDOF 2
ENDMDL
MODEL      172
REMARK 921   NORMALIZED FREE ENERGY PREDICTED BY IDOCK:   -2.08 KCAL/MOL
REMARK 922        TOTAL FREE ENERGY PREDICTED BY IDOCK:   -2.40 KCAL/MOL
REMARK 923 INTER-LIGAND FREE ENERGY PREDICTED BY IDOCK:   -2.28 KCAL/MOL
REMARK 924 INTRA-LIGAND FREE ENERGY PREDICTED BY IDOCK:   -0.13 KCAL/MOL
REMARK 927      BINDING AFFINITY PREDICTED BY RF-SCORE:    0.00 PKD
ROOT
HETATM    1  C   UNL     1      -8.453   9.224  67.811  1.00  0.00    -0.116 C  
HETATM    2  C   UNL     1      -8.125   9.995  66.540  1.00  0.00    -0.119 C  
HETATM    3  S   UNL     1      -8.382   8.930  65.075  1.00  0.00    -0.172 SA 
HETATM    4  H   UNL     1      -8.083   9.633  63.914  1.00  0.00     0.000 H  
ENDROOT
BRANCH   2   5
HETATM    5  C   UNL     1      -8.964  11.270  66.409  1.00  0.00    -0.188 C  
HETATM    6  O   UNL     1      -9.446  11.663  65.353  1.00  0.00    -0.224 OA 
HETATM    7  N   UNL     1      -9.245  11.894  67.615  1.00  0.00    -0.178 N  
HETATM    8  H   UNL     1      -8.991  11.441  68.494  1.00  0.00     0.000 HD 
BRANCH   7   9
HETATM    9  C   UNL     1      -9.905  13.204  67.632  1.00  0.00    -0.219 C  
HETATM   10  C   UNL     1     -11.399  13.121  67.940  1.00  0.00    -0.286 C  
HETATM   11  O   UNL     1     -12.135  14.095  68.014  1.00  0.00    -0.351 OA 
HETATM   12  O   UNL     1     -11.833  11.861  68.184  1.00  0.00    -0.424 OA 
ENDBRANCH   7   9
ENDBRANCH   2   5
TORSDOF 2
ENDMDL
MODEL      173
REMARK 921   NORMALIZED FREE ENERGY PREDICTED BY IDOCK:   -2.07 KCAL/MOL
REMARK 922        TOTAL FREE ENERGY PREDICTED BY IDOCK:   -2.40 KCAL/MOL
REMARK 923 INTER-LIGAND FREE ENERGY PREDICTED BY IDOCK:   -2.25 KCAL/MOL
REMARK 924 INTRA-LIGAND FREE ENERGY PREDICTED BY IDOCK:   -0.15 KCAL/MOL
REMARK 927      BINDING AFFINITY PREDICTED BY RF-SCORE:    0.00 PKD
ROOT
HETATM    1  C   UNL     1     -10.598  12.112  67.294  1.00  0.00    -0.255 C  
HETATM    2  C   UNL     1      -9.891  10.868  67.814  1.00  0.00    -0.175 C  
HETATM    3  S   UNL     1      -8.093  11.175  67.949  1.00  0.00    -0.124 SA 
HETATM    4  H   UNL     1      -7.448  10.040  68.423  1.00  0.00     0.000 H  
ENDROOT
BRANCH   2   5
HETATM    5  C   UNL     1     -10.444  10.418  69.170  1.00  0.00    -0.227 C  
HETATM    6  O   UNL     1     -11.345  10.998  69.766  1.00  0.00    -0.255 OA 
HETATM    7  N   UNL     1      -9.924   9.216  69.628  1.00  0.00    -0.183 N  
HETATM    8  H   UNL     1      -9.317   8.661  69.024  1.00  0.00     0.000 HD 
BRANCH   7   9
HETATM    9  C   UNL     1     -10.244   8.740  70.978  1.00  0.00    -0.237 C  
HETATM   10  C   UNL     1      -9.047   8.771  71.927  1.00  0.00    -0.220 C  
HETATM   11  O   UNL     1      -9.098   8.428  73.099  1.00  0.00    -0.244 OA 
HETATM   12  O   UNL     1      -7.922   9.272  71.364  1.00  0.00    -0.335 OA 
ENDBRANCH   7   9
ENDBRANCH   2   5
TORSDOF 2
ENDMDL
MODEL      174
REMARK 921   NORMALIZED FREE ENERGY PREDICTED BY IDOCK:   -2.06 KCAL/MOL
REMARK 922        TOTAL FREE ENERGY PREDICTED BY IDOCK:   -2.38 KCAL/MOL
REMARK 923 INTER-LIGAND FREE ENERGY PREDICTED BY IDOCK:   -2.30 KCAL/MOL
REMARK 924 INTRA-LIGAND FREE ENERGY PREDICTED BY IDOCK:   -0.08 KCAL/MOL
REMARK 927      BINDING AFFINITY PREDICTED BY RF-SCORE:    0.00 PKD
ROOT
HETATM    1  C   UNL     1     -10.767   9.578  71.223  1.00  0.00    -0.386 C  
HETATM    2  C   UNL     1     -11.499   8.818  72.321  1.00  0.00    -0.306 C  
HETATM    3  S   UNL     1     -13.294   9.161  72.234  1.00  0.00    -0.480 SA 
HETATM    4  H   UNL     1     -13.962   8.468  73.236  1.00  0.00     0.000 H  
ENDROOT
BRANCH   2   5
HETATM    5  C   UNL     1     -11.254   7.308  72.237  1.00  0.00    -0.267 C  
HETATM    6  O   UNL     1     -12.147   6.470  72.267  1.00  0.00    -0.278 OA 
HETATM    7  N   UNL     1      -9.933   6.958  71.998  1.00  0.00    -0.167 N  
HETATM    8  H   UNL     1      -9.244   7.681  71.789  1.00  0.00     0.000 HD 
BRANCH   7   9
HETATM    9  C   UNL     1      -9.523   5.550  72.046  1.00  0.00    -0.150 C  
HETATM   10  C   UNL     1      -8.014   5.357  71.904  1.00  0.00    -0.113 C  
HETATM   11  O   UNL     1      -7.461   4.267  71.928  1.00  0.00    -0.065 OA 
HETATM   12  O   UNL     1      -7.327   6.520  71.805  1.00  0.00    -0.085 OA 
ENDBRANCH   7   9
ENDBRANCH   2   5
TORSDOF 2
ENDMDL
MODEL      175
REMARK 921   NORMALIZED FREE ENERGY PREDICTED BY IDOCK:   -2.05 KCAL/MOL
REMARK 922        TOTAL FREE ENERGY PREDICTED BY IDOCK:   -2.38 KCAL/MOL
REMARK 923 INTER-LIGAND FREE ENERGY PREDICTED BY IDOCK:   -2.29 KCAL/MOL
REMARK 924 INTRA-LIGAND FREE ENERGY PREDICTED BY IDOCK:   -0.09 KCAL/MOL
REMARK 927      BINDING AFFINITY PREDICTED BY RF-SCORE:    0.00 PKD
ROOT
HETATM    1  C   UNL     1     -11.549   7.992  72.535  1.00  0.00    -0.464 C  
HETATM    2  C   UNL     1     -10.261   8.746  72.230  1.00  0.00    -0.240 C  
HETATM    3  S   UNL     1      -8.860   7.987  73.127  1.00  0.00    -0.266 SA 
HETATM    4  H   UNL     1      -7.685   8.675  72.848  1.00  0.00     0.000 H  
ENDROOT
BRANCH   2   5
HETATM    5  C   UNL     1      -9.959   8.780  70.728  1.00  0.00    -0.213 C  
HETATM    6  O   UNL     1      -9.670   9.801  70.114  1.00  0.00    -0.242 OA 
HETATM    7  N   UNL     1      -9.919   7.532  70.125  1.00  0.00    -0.191 N  
HETATM    8  H   UNL     1      -9.976   6.688  70.698  1.00  0.00     0.000 HD 
BRANCH   7   9
HETATM    9  C   UNL     1      -9.794   7.419  68.668  1.00  0.00    -0.163 C  
HETATM   10  C   UNL     1     -10.054   6.005  68.149  1.00  0.00    -0.160 C  
HETATM   11  O   UNL     1     -10.012   5.695  66.968  1.00  0.00    -0.138 OA 
HETATM   12  O   UNL     1     -10.393   5.125  69.121  1.00  0.00    -0.213 OA 
ENDBRANCH   7   9
ENDBRANCH   2   5
TORSDOF 2
ENDMDL
MODEL      176
REMARK 921   NORMALIZED FREE ENERGY PREDICTED BY IDOCK:   -2.03 KCAL/MOL
REMARK 922        TOTAL FREE ENERGY PREDICTED BY IDOCK:   -2.35 KCAL/MOL
REMARK 923 INTER-LIGAND FREE ENERGY PREDICTED BY IDOCK:   -2.19 KCAL/MOL
REMARK 924 INTRA-LIGAND FREE ENERGY PREDICTED BY IDOCK:   -0.16 KCAL/MOL
REMARK 927      BINDING AFFINITY PREDICTED BY RF-SCORE:    0.00 PKD
ROOT
HETATM    1  C   UNL     1      -8.433   8.001  73.383  1.00  0.00    -0.295 C  
HETATM    2  C   UNL     1      -8.472   6.730  72.546  1.00  0.00    -0.118 C  
HETATM    3  S   UNL     1      -9.931   5.723  72.997  1.00  0.00    -0.179 SA 
HETATM    4  H   UNL     1      -9.966   4.563  72.233  1.00  0.00     0.000 H  
ENDROOT
BRANCH   2   5
HETATM    5  C   UNL     1      -8.495   7.032  71.044  1.00  0.00    -0.133 C  
HETATM    6  O   UNL     1      -7.951   8.007  70.537  1.00  0.00    -0.092 OA 
HETATM    7  N   UNL     1      -9.084   6.042  70.272  1.00  0.00    -0.150 N  
HETATM    8  H   UNL     1      -9.358   5.158  70.701  1.00  0.00     0.000 HD 
BRANCH   7   9
HETATM    9  C   UNL     1      -9.315   6.263  68.840  1.00  0.00    -0.128 C  
HETATM   10  C   UNL     1     -10.796   6.344  68.474  1.00  0.00    -0.314 C  
HETATM   11  O   UNL     1     -11.208   6.534  67.339  1.00  0.00    -0.359 OA 
HETATM   12  O   UNL     1     -11.624   6.242  69.541  1.00  0.00    -0.423 OA 
ENDBRANCH   7   9
ENDBRANCH   2   5
TORSDOF 2
ENDMDL
MODEL      177
REMARK 921   NORMALIZED FREE ENERGY PREDICTED BY IDOCK:   -2.02 KCAL/MOL
REMARK 922        TOTAL FREE ENERGY PREDICTED BY IDOCK:   -2.34 KCAL/MOL
REMARK 923 INTER-LIGAND FREE ENERGY PREDICTED BY IDOCK:   -2.24 KCAL/MOL
REMARK 924 INTRA-LIGAND FREE ENERGY PREDICTED BY IDOCK:   -0.10 KCAL/MOL
REMARK 927      BINDING AFFINITY PREDICTED BY RF-SCORE:    0.00 PKD
ROOT
HETATM    1  C   UNL     1     -10.567   6.882  68.441  1.00  0.00    -0.249 C  
HETATM    2  C   UNL     1     -10.249   8.330  68.790  1.00  0.00    -0.210 C  
HETATM    3  S   UNL     1      -8.679   8.422  69.725  1.00  0.00    -0.134 SA 
HETATM    4  H   UNL     1      -8.389   9.743  70.043  1.00  0.00     0.000 H  
ENDROOT
BRANCH   2   5
HETATM    5  C   UNL     1     -10.164   9.216  67.543  1.00  0.00    -0.245 C  
HETATM    6  O   UNL     1      -9.276   9.126  66.703  1.00  0.00    -0.149 OA 
HETATM    7  N   UNL     1     -11.249  10.061  67.369  1.00  0.00    -0.320 N  
HETATM    8  H   UNL     1     -12.062   9.979  67.981  1.00  0.00     0.000 HD 
BRANCH   7   9
HETATM    9  C   UNL     1     -11.234  11.073  66.307  1.00  0.00     0.065 C  
HETATM   10  C   UNL     1     -11.522  12.485  66.816  1.00  0.00    -0.362 C  
HETATM   11  O   UNL     1     -11.546  13.475  66.100  1.00  0.00    -0.321 OA 
HETATM   12  O   UNL     1     -11.696  12.552  68.157  1.00  0.00    -0.317 OA 
ENDBRANCH   7   9
ENDBRANCH   2   5
TORSDOF 2
ENDMDL
MODEL      178
REMARK 921   NORMALIZED FREE ENERGY PREDICTED BY IDOCK:   -2.01 KCAL/MOL
REMARK 922        TOTAL FREE ENERGY PREDICTED BY IDOCK:   -2.33 KCAL/MOL
REMARK 923 INTER-LIGAND FREE ENERGY PREDICTED BY IDOCK:   -2.22 KCAL/MOL
REMARK 924 INTRA-LIGAND FREE ENERGY PREDICTED BY IDOCK:   -0.11 KCAL/MOL
REMARK 927      BINDING AFFINITY PREDICTED BY RF-SCORE:    0.00 PKD
ROOT
HETATM    1  C   UNL     1      -9.262  13.837  67.230  1.00  0.00    -0.239 C  
HETATM    2  C   UNL     1     -10.022  12.699  67.900  1.00  0.00    -0.228 C  
HETATM    3  S   UNL     1     -11.338  12.082  66.790  1.00  0.00    -0.334 SA 
HETATM    4  H   UNL     1     -12.031  11.044  67.401  1.00  0.00     0.000 H  
ENDROOT
BRANCH   2   5
HETATM    5  C   UNL     1      -9.095  11.546  68.298  1.00  0.00    -0.185 C  
HETATM    6  O   UNL     1      -8.032  11.302  67.738  1.00  0.00    -0.111 OA 
HETATM    7  N   UNL     1      -9.494  10.859  69.435  1.00  0.00    -0.423 N  
HETATM    8  H   UNL     1     -10.280  11.204  69.988  1.00  0.00     0.000 HD 
BRANCH   7   9
HETATM    9  C   UNL     1      -8.792   9.639  69.845  1.00  0.00    -0.221 C  
HETATM   10  C   UNL     1      -9.540   8.359  69.474  1.00  0.00    -0.170 C  
HETATM   11  O   UNL     1      -9.126   7.235  69.713  1.00  0.00    -0.142 OA 
HETATM   12  O   UNL     1     -10.691   8.582  68.797  1.00  0.00    -0.169 OA 
ENDBRANCH   7   9
ENDBRANCH   2   5
TORSDOF 2
ENDMDL
MODEL      179
REMARK 921   NORMALIZED FREE ENERGY PREDICTED BY IDOCK:   -2.00 KCAL/MOL
REMARK 922        TOTAL FREE ENERGY PREDICTED BY IDOCK:   -2.32 KCAL/MOL
REMARK 923 INTER-LIGAND FREE ENERGY PREDICTED BY IDOCK:   -2.22 KCAL/MOL
REMARK 924 INTRA-LIGAND FREE ENERGY PREDICTED BY IDOCK:   -0.10 KCAL/MOL
REMARK 927      BINDING AFFINITY PREDICTED BY RF-SCORE:    0.00 PKD
ROOT
HETATM    1  C   UNL     1      -8.564   6.619  71.086  1.00  0.00    -0.130 C  
HETATM    2  C   UNL     1      -9.892   7.221  70.647  1.00  0.00    -0.179 C  
HETATM    3  S   UNL     1     -10.091   8.893  71.360  1.00  0.00    -0.330 SA 
HETATM    4  H   UNL     1     -11.303   9.444  70.960  1.00  0.00     0.000 H  
ENDROOT
BRANCH   2   5
HETATM    5  C   UNL     1     -10.015   7.289  69.122  1.00  0.00    -0.170 C  
HETATM    6  O   UNL     1      -9.589   8.217  68.444  1.00  0.00    -0.142 OA 
HETATM    7  N   UNL     1     -10.546   6.147  68.541  1.00  0.00    -0.240 N  
HETATM    8  H   UNL     1     -10.716   5.318  69.111  1.00  0.00     0.000 HD 
BRANCH   7   9
HETATM    9  C   UNL     1     -10.865   6.127  67.109  1.00  0.00    -0.360 C  
HETATM   10  C   UNL     1     -10.375   4.864  66.401  1.00  0.00    -0.288 C  
HETATM   11  O   UNL     1     -10.546   4.641  65.211  1.00  0.00    -0.186 OA 
HETATM   12  O   UNL     1      -9.776   3.976  67.229  1.00  0.00    -0.199 OA 
ENDBRANCH   7   9
ENDBRANCH   2   5
TORSDOF 2
ENDMDL
MODEL      180
REMARK 921   NORMALIZED FREE ENERGY PREDICTED BY IDOCK:   -1.97 KCAL/MOL
REMARK 922        TOTAL FREE ENERGY PREDICTED BY IDOCK:   -2.29 KCAL/MOL
REMARK 923 INTER-LIGAND FREE ENERGY PREDICTED BY IDOCK:   -2.16 KCAL/MOL
REMARK 924 INTRA-LIGAND FREE ENERGY PREDICTED BY IDOCK:   -0.13 KCAL/MOL
REMARK 927      BINDING AFFINITY PREDICTED BY RF-SCORE:    0.00 PKD
ROOT
HETATM    1  C   UNL     1      -8.336   5.668  69.375  1.00  0.00    -0.107 C  
HETATM    2  C   UNL     1      -9.757   5.360  69.825  1.00  0.00    -0.184 C  
HETATM    3  S   UNL     1      -9.731   4.238  71.269  1.00  0.00    -0.188 SA 
HETATM    4  H   UNL     1     -11.029   3.956  71.680  1.00  0.00     0.000 H  
ENDROOT
BRANCH   2   5
HETATM    5  C   UNL     1     -10.539   6.631  70.169  1.00  0.00    -0.221 C  
HETATM    6  O   UNL     1     -11.616   6.632  70.754  1.00  0.00    -0.334 OA 
HETATM    7  N   UNL     1      -9.871   7.810  69.871  1.00  0.00    -0.176 N  
HETATM    8  H   UNL     1      -8.900   7.779  69.559  1.00  0.00     0.000 HD 
BRANCH   7   9
HETATM    9  C   UNL     1     -10.556   9.100  70.002  1.00  0.00    -0.227 C  
HETATM   10  C   UNL     1     -10.903   9.738  68.657  1.00  0.00    -0.188 C  
HETATM   11  O   UNL     1     -11.484  10.806  68.539  1.00  0.00    -0.279 OA 
HETATM   12  O   UNL     1     -10.555   8.977  67.592  1.00  0.00    -0.257 OA 
ENDBRANCH   7   9
ENDBRANCH   2   5
TORSDOF 2
ENDMDL
MODEL      181
REMARK 921   NORMALIZED FREE ENERGY PREDICTED BY IDOCK:   -1.97 KCAL/MOL
REMARK 922        TOTAL FREE ENERGY PREDICTED BY IDOCK:   -2.29 KCAL/MOL
REMARK 923 INTER-LIGAND FREE ENERGY PREDICTED BY IDOCK:   -2.14 KCAL/MOL
REMARK 924 INTRA-LIGAND FREE ENERGY PREDICTED BY IDOCK:   -0.15 KCAL/MOL
REMARK 927      BINDING AFFINITY PREDICTED BY RF-SCORE:    0.00 PKD
ROOT
HETATM    1  C   UNL     1      -8.705  10.199  62.703  1.00  0.00    -0.218 C  
HETATM    2  C   UNL     1      -8.754   9.434  64.018  1.00  0.00    -0.200 C  
HETATM    3  S   UNL     1      -7.111   9.454  64.820  1.00  0.00    -0.107 SA 
HETATM    4  H   UNL     1      -7.156   8.755  66.021  1.00  0.00     0.000 H  
ENDROOT
BRANCH   2   5
HETATM    5  C   UNL     1      -9.806  10.004  64.975  1.00  0.00    -0.304 C  
HETATM    6  O   UNL     1     -10.540  10.947  64.698  1.00  0.00    -0.334 OA 
HETATM    7  N   UNL     1      -9.953   9.288  66.154  1.00  0.00    -0.290 N  
HETATM    8  H   UNL     1      -9.464   8.401  66.274  1.00  0.00     0.000 HD 
BRANCH   7   9
HETATM    9  C   UNL     1     -10.810   9.802  67.228  1.00  0.00    -0.177 C  
HETATM   10  C   UNL     1     -10.037  10.151  68.500  1.00  0.00    -0.169 C  
HETATM   11  O   UNL     1     -10.557  10.604  69.509  1.00  0.00    -0.227 OA 
HETATM   12  O   UNL     1      -8.701   9.963  68.390  1.00  0.00    -0.117 OA 
ENDBRANCH   7   9
ENDBRANCH   2   5
TORSDOF 2
ENDMDL
MODEL      182
REMARK 921   NORMALIZED FREE ENERGY PREDICTED BY IDOCK:   -1.97 KCAL/MOL
REMARK 922        TOTAL FREE ENERGY PREDICTED BY IDOCK:   -2.28 KCAL/MOL
REMARK 923 INTER-LIGAND FREE ENERGY PREDICTED BY IDOCK:   -2.14 KCAL/MOL
REMARK 924 INTRA-LIGAND FREE ENERGY PREDICTED BY IDOCK:   -0.14 KCAL/MOL
REMARK 927      BINDING AFFINITY PREDICTED BY RF-SCORE:    0.00 PKD
ROOT
HETATM    1  C   UNL     1      -7.861   5.287  65.006  1.00  0.00    -0.098 C  
HETATM    2  C   UNL     1      -7.671   6.792  65.138  1.00  0.00    -0.105 C  
HETATM    3  S   UNL     1      -7.873   7.597  63.508  1.00  0.00    -0.097 SA 
HETATM    4  H   UNL     1      -7.699   8.971  63.629  1.00  0.00     0.000 H  
ENDROOT
BRANCH   2   5
HETATM    5  C   UNL     1      -8.647   7.407  66.146  1.00  0.00    -0.146 C  
HETATM    6  O   UNL     1      -8.441   8.460  66.738  1.00  0.00    -0.110 OA 
HETATM    7  N   UNL     1      -9.856   6.735  66.252  1.00  0.00    -0.404 N  
HETATM    8  H   UNL     1     -10.073   5.973  65.609  1.00  0.00     0.000 HD 
BRANCH   7   9
HETATM    9  C   UNL     1     -10.824   7.117  67.285  1.00  0.00    -0.312 C  
HETATM   10  C   UNL     1     -10.875   6.136  68.456  1.00  0.00    -0.314 C  
HETATM   11  O   UNL     1     -11.604   6.272  69.427  1.00  0.00    -0.403 OA 
HETATM   12  O   UNL     1      -9.988   5.118  68.348  1.00  0.00    -0.153 OA 
ENDBRANCH   7   9
ENDBRANCH   2   5
TORSDOF 2
ENDMDL
MODEL      183
REMARK 921   NORMALIZED FREE ENERGY PREDICTED BY IDOCK:   -1.96 KCAL/MOL
REMARK 922        TOTAL FREE ENERGY PREDICTED BY IDOCK:   -2.28 KCAL/MOL
REMARK 923 INTER-LIGAND FREE ENERGY PREDICTED BY IDOCK:   -2.18 KCAL/MOL
REMARK 924 INTRA-LIGAND FREE ENERGY PREDICTED BY IDOCK:   -0.10 KCAL/MOL
REMARK 927      BINDING AFFINITY PREDICTED BY RF-SCORE:    0.00 PKD
ROOT
HETATM    1  C   UNL     1      -9.161   3.495  70.840  1.00  0.00    -0.201 C  
HETATM    2  C   UNL     1      -9.918   4.368  71.833  1.00  0.00    -0.189 C  
HETATM    3  S   UNL     1      -8.755   5.111  73.033  1.00  0.00    -0.113 SA 
HETATM    4  H   UNL     1      -9.446   5.907  73.938  1.00  0.00     0.000 H  
ENDROOT
BRANCH   2   5
HETATM    5  C   UNL     1     -10.718   5.471  71.132  1.00  0.00    -0.210 C  
HETATM    6  O   UNL     1     -11.546   6.176  71.697  1.00  0.00    -0.295 OA 
HETATM    7  N   UNL     1     -10.343   5.700  69.816  1.00  0.00    -0.255 N  
HETATM    8  H   UNL     1      -9.523   5.228  69.432  1.00  0.00     0.000 HD 
BRANCH   7   9
HETATM    9  C   UNL     1     -11.120   6.616  68.976  1.00  0.00    -0.257 C  
HETATM   10  C   UNL     1     -10.317   7.192  67.810  1.00  0.00    -0.202 C  
HETATM   11  O   UNL     1     -10.777   7.967  66.983  1.00  0.00    -0.339 OA 
HETATM   12  O   UNL     1      -9.050   6.720  67.739  1.00  0.00    -0.120 OA 
ENDBRANCH   7   9
ENDBRANCH   2   5
TORSDOF 2
ENDMDL
MODEL      184
REMARK 921   NORMALIZED FREE ENERGY PREDICTED BY IDOCK:   -1.95 KCAL/MOL
REMARK 922        TOTAL FREE ENERGY PREDICTED BY IDOCK:   -2.27 KCAL/MOL
REMARK 923 INTER-LIGAND FREE ENERGY PREDICTED BY IDOCK:   -2.14 KCAL/MOL
REMARK 924 INTRA-LIGAND FREE ENERGY PREDICTED BY IDOCK:   -0.12 KCAL/MOL
REMARK 927      BINDING AFFINITY PREDICTED BY RF-SCORE:    0.00 PKD
ROOT
HETATM    1  C   UNL     1     -11.888   5.440  72.492  1.00  0.00    -0.110 C  
HETATM    2  C   UNL     1     -11.774   6.748  71.722  1.00  0.00    -0.312 C  
HETATM    3  S   UNL     1     -13.408   7.564  71.621  1.00  0.00    -0.319 SA 
HETATM    4  H   UNL     1     -13.304   8.758  70.918  1.00  0.00     0.000 H  
ENDROOT
BRANCH   2   5
HETATM    5  C   UNL     1     -10.756   7.701  72.356  1.00  0.00    -0.280 C  
HETATM    6  O   UNL     1     -10.683   8.895  72.092  1.00  0.00    -0.342 OA 
HETATM    7  N   UNL     1      -9.986   7.128  73.358  1.00  0.00    -0.245 N  
HETATM    8  H   UNL     1     -10.198   6.185  73.687  1.00  0.00     0.000 HD 
BRANCH   7   9
HETATM    9  C   UNL     1      -8.868   7.873  73.947  1.00  0.00    -0.254 C  
HETATM   10  C   UNL     1      -7.537   7.128  73.862  1.00  0.00    -0.105 C  
HETATM   11  O   UNL     1      -6.479   7.574  74.282  1.00  0.00    -0.083 OA 
HETATM   12  O   UNL     1      -7.622   5.939  73.220  1.00  0.00    -0.097 OA 
ENDBRANCH   7   9
ENDBRANCH   2   5
TORSDOF 2
ENDMDL
MODEL      185
REMARK 921   NORMALIZED FREE ENERGY PREDICTED BY IDOCK:   -1.95 KCAL/MOL
REMARK 922        TOTAL FREE ENERGY PREDICTED BY IDOCK:   -2.27 KCAL/MOL
REMARK 923 INTER-LIGAND FREE ENERGY PREDICTED BY IDOCK:   -2.11 KCAL/MOL
REMARK 924 INTRA-LIGAND FREE ENERGY PREDICTED BY IDOCK:   -0.16 KCAL/MOL
REMARK 927      BINDING AFFINITY PREDICTED BY RF-SCORE:    0.00 PKD
ROOT
HETATM    1  C   UNL     1     -11.185  12.113  66.090  1.00  0.00    -0.386 C  
HETATM    2  C   UNL     1     -10.626  10.761  66.513  1.00  0.00    -0.218 C  
HETATM    3  S   UNL     1      -9.032  10.449  65.673  1.00  0.00    -0.185 SA 
HETATM    4  H   UNL     1      -8.521   9.215  66.058  1.00  0.00     0.000 H  
ENDROOT
BRANCH   2   5
HETATM    5  C   UNL     1     -10.441  10.666  68.030  1.00  0.00    -0.196 C  
HETATM    6  O   UNL     1     -11.109  11.300  68.840  1.00  0.00    -0.202 OA 
HETATM    7  N   UNL     1      -9.528   9.704  68.434  1.00  0.00    -0.137 N  
HETATM    8  H   UNL     1      -9.128   9.062  67.749  1.00  0.00     0.000 HD 
BRANCH   7   9
HETATM    9  C   UNL     1      -9.134   9.605  69.844  1.00  0.00    -0.225 C  
HETATM   10  C   UNL     1      -7.659   9.924  70.082  1.00  0.00    -0.175 C  
HETATM   11  O   UNL     1      -7.128   9.912  71.183  1.00  0.00    -0.327 OA 
HETATM   12  O   UNL     1      -6.994  10.282  68.957  1.00  0.00    -0.057 OA 
ENDBRANCH   7   9
ENDBRANCH   2   5
TORSDOF 2
ENDMDL
MODEL      186
REMARK 921   NORMALIZED FREE ENERGY PREDICTED BY IDOCK:   -1.93 KCAL/MOL
REMARK 922        TOTAL FREE ENERGY PREDICTED BY IDOCK:   -2.25 KCAL/MOL
REMARK 923 INTER-LIGAND FREE ENERGY PREDICTED BY IDOCK:   -2.15 KCAL/MOL
REMARK 924 INTRA-LIGAND FREE ENERGY PREDICTED BY IDOCK:   -0.10 KCAL/MOL
REMARK 927      BINDING AFFINITY PREDICTED BY RF-SCORE:    0.00 PKD
ROOT
HETATM    1  C   UNL     1     -10.403   4.305  65.165  1.00  0.00    -0.215 C  
HETATM    2  C   UNL     1     -10.044   4.898  66.520  1.00  0.00    -0.255 C  
HETATM    3  S   UNL     1      -9.234   3.635  67.566  1.00  0.00    -0.202 SA 
HETATM    4  H   UNL     1      -8.906   4.177  68.803  1.00  0.00     0.000 H  
ENDROOT
BRANCH   2   5
HETATM    5  C   UNL     1      -9.133   6.123  66.387  1.00  0.00    -0.148 C  
HETATM    6  O   UNL     1      -7.909   6.068  66.405  1.00  0.00    -0.101 OA 
HETATM    7  N   UNL     1      -9.806   7.307  66.119  1.00  0.00    -0.432 N  
HETATM    8  H   UNL     1     -10.807   7.290  65.922  1.00  0.00     0.000 HD 
BRANCH   7   9
HETATM    9  C   UNL     1      -9.082   8.583  66.119  1.00  0.00    -0.195 C  
HETATM   10  C   UNL     1      -9.777   9.670  66.937  1.00  0.00    -0.186 C  
HETATM   11  O   UNL     1      -9.339  10.802  67.078  1.00  0.00    -0.155 OA 
HETATM   12  O   UNL     1     -10.909   9.247  67.549  1.00  0.00    -0.259 OA 
ENDBRANCH   7   9
ENDBRANCH   2   5
TORSDOF 2
ENDMDL
MODEL      187
REMARK 921   NORMALIZED FREE ENERGY PREDICTED BY IDOCK:   -1.92 KCAL/MOL
REMARK 922        TOTAL FREE ENERGY PREDICTED BY IDOCK:   -2.23 KCAL/MOL
REMARK 923 INTER-LIGAND FREE ENERGY PREDICTED BY IDOCK:   -2.09 KCAL/MOL
REMARK 924 INTRA-LIGAND FREE ENERGY PREDICTED BY IDOCK:   -0.15 KCAL/MOL
REMARK 927      BINDING AFFINITY PREDICTED BY RF-SCORE:    0.00 PKD
ROOT
HETATM    1  C   UNL     1     -11.123   3.611  73.349  1.00  0.00    -0.297 C  
HETATM    2  C   UNL     1     -10.491   4.763  72.579  1.00  0.00    -0.203 C  
HETATM    3  S   UNL     1     -11.751   6.030  72.194  1.00  0.00    -0.218 SA 
HETATM    4  H   UNL     1     -11.175   7.081  71.492  1.00  0.00     0.000 H  
ENDROOT
BRANCH   2   5
HETATM    5  C   UNL     1      -9.331   5.401  73.351  1.00  0.00    -0.134 C  
HETATM    6  O   UNL     1      -8.280   4.823  73.602  1.00  0.00    -0.105 OA 
HETATM    7  N   UNL     1      -9.514   6.744  73.647  1.00  0.00    -0.163 N  
HETATM    8  H   UNL     1     -10.314   7.246  73.260  1.00  0.00     0.000 HD 
BRANCH   7   9
HETATM    9  C   UNL     1      -8.560   7.445  74.513  1.00  0.00    -0.179 C  
HETATM   10  C   UNL     1      -7.803   8.562  73.795  1.00  0.00    -0.026 C  
HETATM   11  O   UNL     1      -6.972   9.277  74.334  1.00  0.00    -0.378 OA 
HETATM   12  O   UNL     1      -8.181   8.730  72.505  1.00  0.00    -0.387 OA 
ENDBRANCH   7   9
ENDBRANCH   2   5
TORSDOF 2
ENDMDL
MODEL      188
REMARK 921   NORMALIZED FREE ENERGY PREDICTED BY IDOCK:   -1.91 KCAL/MOL
REMARK 922        TOTAL FREE ENERGY PREDICTED BY IDOCK:   -2.22 KCAL/MOL
REMARK 923 INTER-LIGAND FREE ENERGY PREDICTED BY IDOCK:   -2.13 KCAL/MOL
REMARK 924 INTRA-LIGAND FREE ENERGY PREDICTED BY IDOCK:   -0.09 KCAL/MOL
REMARK 927      BINDING AFFINITY PREDICTED BY RF-SCORE:    0.00 PKD
ROOT
HETATM    1  C   UNL     1     -11.190  10.292  68.323  1.00  0.00    -0.295 C  
HETATM    2  C   UNL     1     -10.765  10.445  69.778  1.00  0.00    -0.278 C  
HETATM    3  S   UNL     1     -12.214  10.260  70.879  1.00  0.00    -0.398 SA 
HETATM    4  H   UNL     1     -11.827  10.400  72.206  1.00  0.00     0.000 H  
ENDROOT
BRANCH   2   5
HETATM    5  C   UNL     1      -9.683   9.433  70.169  1.00  0.00    -0.235 C  
HETATM    6  O   UNL     1      -8.619   9.742  70.693  1.00  0.00    -0.184 OA 
HETATM    7  N   UNL     1     -10.052   8.108  69.993  1.00  0.00    -0.193 N  
HETATM    8  H   UNL     1     -11.011   7.876  69.734  1.00  0.00     0.000 HD 
BRANCH   7   9
HETATM    9  C   UNL     1      -9.067   7.037  70.179  1.00  0.00    -0.149 C  
HETATM   10  C   UNL     1      -9.388   5.777  69.376  1.00  0.00    -0.126 C  
HETATM   11  O   UNL     1      -8.692   4.772  69.379  1.00  0.00    -0.082 OA 
HETATM   12  O   UNL     1     -10.497   5.893  68.608  1.00  0.00    -0.192 OA 
ENDBRANCH   7   9
ENDBRANCH   2   5
TORSDOF 2
ENDMDL
MODEL      189
REMARK 921   NORMALIZED FREE ENERGY PREDICTED BY IDOCK:   -1.90 KCAL/MOL
REMARK 922        TOTAL FREE ENERGY PREDICTED BY IDOCK:   -2.21 KCAL/MOL
REMARK 923 INTER-LIGAND FREE ENERGY PREDICTED BY IDOCK:   -2.10 KCAL/MOL
REMARK 924 INTRA-LIGAND FREE ENERGY PREDICTED BY IDOCK:   -0.12 KCAL/MOL
REMARK 927      BINDING AFFINITY PREDICTED BY RF-SCORE:    0.00 PKD
ROOT
HETATM    1  C   UNL     1     -10.754  16.484  68.861  1.00  0.00    -0.337 C  
HETATM    2  C   UNL     1      -9.990  16.578  67.547  1.00  0.00    -0.255 C  
HETATM    3  S   UNL     1      -9.315  18.264  67.331  1.00  0.00    -0.264 SA 
HETATM    4  H   UNL     1      -8.617  18.350  66.132  1.00  0.00     0.000 H  
ENDROOT
BRANCH   2   5
HETATM    5  C   UNL     1      -8.855  15.551  67.470  1.00  0.00    -0.182 C  
HETATM    6  O   UNL     1      -7.711  15.823  67.125  1.00  0.00    -0.178 OA 
HETATM    7  N   UNL     1      -9.194  14.291  67.940  1.00  0.00    -0.187 N  
HETATM    8  H   UNL     1     -10.095  14.143  68.396  1.00  0.00     0.000 HD 
BRANCH   7   9
HETATM    9  C   UNL     1      -8.261  13.170  67.786  1.00  0.00    -0.168 C  
HETATM   10  C   UNL     1      -8.861  11.987  67.026  1.00  0.00    -0.197 C  
HETATM   11  O   UNL     1      -8.251  10.957  66.778  1.00  0.00    -0.130 OA 
HETATM   12  O   UNL     1     -10.126  12.205  66.597  1.00  0.00    -0.197 OA 
ENDBRANCH   7   9
ENDBRANCH   2   5
TORSDOF 2
ENDMDL
MODEL      190
REMARK 921   NORMALIZED FREE ENERGY PREDICTED BY IDOCK:   -1.90 KCAL/MOL
REMARK 922        TOTAL FREE ENERGY PREDICTED BY IDOCK:   -2.21 KCAL/MOL
REMARK 923 INTER-LIGAND FREE ENERGY PREDICTED BY IDOCK:   -2.27 KCAL/MOL
REMARK 924 INTRA-LIGAND FREE ENERGY PREDICTED BY IDOCK:    0.06 KCAL/MOL
REMARK 927      BINDING AFFINITY PREDICTED BY RF-SCORE:    0.00 PKD
ROOT
HETATM    1  C   UNL     1      -8.033   6.496  69.675  1.00  0.00    -0.120 C  
HETATM    2  C   UNL     1      -8.991   6.495  70.859  1.00  0.00    -0.147 C  
HETATM    3  S   UNL     1      -8.471   7.744  72.090  1.00  0.00    -0.135 SA 
HETATM    4  H   UNL     1      -9.345   7.743  73.170  1.00  0.00     0.000 H  
ENDROOT
BRANCH   2   5
HETATM    5  C   UNL     1     -10.436   6.762  70.427  1.00  0.00    -0.206 C  
HETATM    6  O   UNL     1     -10.769   7.003  69.272  1.00  0.00    -0.220 OA 
HETATM    7  N   UNL     1     -11.373   6.590  71.435  1.00  0.00    -0.281 N  
HETATM    8  H   UNL     1     -11.087   6.206  72.336  1.00  0.00     0.000 HD 
BRANCH   7   9
HETATM    9  C   UNL     1     -12.775   6.958  71.210  1.00  0.00    -0.315 C  
HETATM   10  C   UNL     1     -13.040   8.454  71.381  1.00  0.00    -0.223 C  
HETATM   11  O   UNL     1     -14.136   8.973  71.228  1.00  0.00    -0.302 OA 
HETATM   12  O   UNL     1     -11.927   9.172  71.665  1.00  0.00    -0.319 OA 
ENDBRANCH   7   9
ENDBRANCH   2   5
TORSDOF 2
ENDMDL
MODEL      191
REMARK 921   NORMALIZED FREE ENERGY PREDICTED BY IDOCK:   -1.89 KCAL/MOL
REMARK 922        TOTAL FREE ENERGY PREDICTED BY IDOCK:   -2.20 KCAL/MOL
REMARK 923 INTER-LIGAND FREE ENERGY PREDICTED BY IDOCK:   -2.10 KCAL/MOL
REMARK 924 INTRA-LIGAND FREE ENERGY PREDICTED BY IDOCK:   -0.10 KCAL/MOL
REMARK 927      BINDING AFFINITY PREDICTED BY RF-SCORE:    0.00 PKD
ROOT
HETATM    1  C   UNL     1     -12.028  12.324  63.369  1.00  0.00    -0.588 C  
HETATM    2  C   UNL     1     -10.934  11.594  64.137  1.00  0.00    -0.376 C  
HETATM    3  S   UNL     1      -9.905  10.613  62.987  1.00  0.00    -0.179 SA 
HETATM    4  H   UNL     1      -8.907   9.947  63.688  1.00  0.00     0.000 H  
ENDROOT
BRANCH   2   5
HETATM    5  C   UNL     1     -10.049  12.560  64.931  1.00  0.00    -0.226 C  
HETATM    6  O   UNL     1     -10.073  13.778  64.792  1.00  0.00    -0.361 OA 
HETATM    7  N   UNL     1      -9.290  11.955  65.921  1.00  0.00    -0.327 N  
HETATM    8  H   UNL     1      -9.432  10.968  66.140  1.00  0.00     0.000 HD 
BRANCH   7   9
HETATM    9  C   UNL     1      -8.284  12.729  66.657  1.00  0.00     0.180 C  
HETATM   10  C   UNL     1      -6.942  12.008  66.781  1.00  0.00     0.052 C  
HETATM   11  O   UNL     1      -5.965  12.479  67.345  1.00  0.00    -0.142 OA 
HETATM   12  O   UNL     1      -6.912  10.808  66.153  1.00  0.00    -0.129 OA 
ENDBRANCH   7   9
ENDBRANCH   2   5
TORSDOF 2
ENDMDL
MODEL      192
REMARK 921   NORMALIZED FREE ENERGY PREDICTED BY IDOCK:   -1.89 KCAL/MOL
REMARK 922        TOTAL FREE ENERGY PREDICTED BY IDOCK:   -2.20 KCAL/MOL
REMARK 923 INTER-LIGAND FREE ENERGY PREDICTED BY IDOCK:   -2.09 KCAL/MOL
REMARK 924 INTRA-LIGAND FREE ENERGY PREDICTED BY IDOCK:   -0.11 KCAL/MOL
REMARK 927      BINDING AFFINITY PREDICTED BY RF-SCORE:    0.00 PKD
ROOT
HETATM    1  C   UNL     1     -13.149   7.468  71.315  1.00  0.00    -0.316 C  
HETATM    2  C   UNL     1     -12.002   6.489  71.107  1.00  0.00    -0.306 C  
HETATM    3  S   UNL     1     -10.831   7.146  69.865  1.00  0.00    -0.251 SA 
HETATM    4  H   UNL     1      -9.783   6.253  69.676  1.00  0.00     0.000 H  
ENDROOT
BRANCH   2   5
HETATM    5  C   UNL     1     -11.259   6.190  72.414  1.00  0.00    -0.287 C  
HETATM    6  O   UNL     1     -11.017   7.034  73.269  1.00  0.00    -0.303 OA 
HETATM    7  N   UNL     1     -10.981   4.847  72.617  1.00  0.00    -0.211 N  
HETATM    8  H   UNL     1     -11.361   4.146  71.979  1.00  0.00     0.000 HD 
BRANCH   7   9
HETATM    9  C   UNL     1     -10.142   4.429  73.745  1.00  0.00    -0.155 C  
HETATM   10  C   UNL     1      -8.717   4.064  73.334  1.00  0.00    -0.091 C  
HETATM   11  O   UNL     1      -7.853   3.701  74.118  1.00  0.00    -0.069 OA 
HETATM   12  O   UNL     1      -8.475   4.234  72.012  1.00  0.00    -0.103 OA 
ENDBRANCH   7   9
ENDBRANCH   2   5
TORSDOF 2
ENDMDL
MODEL      193
REMARK 921   NORMALIZED FREE ENERGY PREDICTED BY IDOCK:   -1.88 KCAL/MOL
REMARK 922        TOTAL FREE ENERGY PREDICTED BY IDOCK:   -2.19 KCAL/MOL
REMARK 923 INTER-LIGAND FREE ENERGY PREDICTED BY IDOCK:   -2.08 KCAL/MOL
REMARK 924 INTRA-LIGAND FREE ENERGY PREDICTED BY IDOCK:   -0.11 KCAL/MOL
REMARK 927      BINDING AFFINITY PREDICTED BY RF-SCORE:    0.00 PKD
ROOT
HETATM    1  C   UNL     1     -11.210  11.923  65.511  1.00  0.00    -0.353 C  
HETATM    2  C   UNL     1     -10.515  10.942  64.575  1.00  0.00    -0.323 C  
HETATM    3  S   UNL     1      -9.806  11.833  63.144  1.00  0.00    -0.187 SA 
HETATM    4  H   UNL     1      -9.172  10.939  62.290  1.00  0.00     0.000 H  
ENDROOT
BRANCH   2   5
HETATM    5  C   UNL     1      -9.417  10.148  65.289  1.00  0.00    -0.248 C  
HETATM    6  O   UNL     1      -8.424   9.701  64.727  1.00  0.00    -0.138 OA 
HETATM    7  N   UNL     1      -9.571  10.073  66.666  1.00  0.00    -0.178 N  
HETATM    8  H   UNL     1     -10.303  10.614  67.126  1.00  0.00     0.000 HD 
BRANCH   7   9
HETATM    9  C   UNL     1      -8.684   9.218  67.462  1.00  0.00    -0.115 C  
HETATM   10  C   UNL     1      -9.320   7.883  67.848  1.00  0.00    -0.141 C  
HETATM   11  O   UNL     1      -8.751   7.021  68.500  1.00  0.00    -0.123 OA 
HETATM   12  O   UNL     1     -10.568   7.714  67.349  1.00  0.00    -0.274 OA 
ENDBRANCH   7   9
ENDBRANCH   2   5
TORSDOF 2
ENDMDL
MODEL      194
REMARK 921   NORMALIZED FREE ENERGY PREDICTED BY IDOCK:   -1.87 KCAL/MOL
REMARK 922        TOTAL FREE ENERGY PREDICTED BY IDOCK:   -2.17 KCAL/MOL
REMARK 923 INTER-LIGAND FREE ENERGY PREDICTED BY IDOCK:   -2.07 KCAL/MOL
REMARK 924 INTRA-LIGAND FREE ENERGY PREDICTED BY IDOCK:   -0.10 KCAL/MOL
REMARK 927      BINDING AFFINITY PREDICTED BY RF-SCORE:    0.00 PKD
ROOT
HETATM    1  C   UNL     1      -7.285   8.626  67.890  1.00  0.00    -0.088 C  
HETATM    2  C   UNL     1      -8.676   9.149  68.220  1.00  0.00    -0.129 C  
HETATM    3  S   UNL     1      -9.375  10.033  66.780  1.00  0.00    -0.165 SA 
HETATM    4  H   UNL     1     -10.645  10.510  67.081  1.00  0.00     0.000 H  
ENDROOT
BRANCH   2   5
HETATM    5  C   UNL     1      -9.624   8.025  68.650  1.00  0.00    -0.148 C  
HETATM    6  O   UNL     1     -10.000   7.128  67.905  1.00  0.00    -0.144 OA 
HETATM    7  N   UNL     1      -9.937   8.029  70.002  1.00  0.00    -0.189 N  
HETATM    8  H   UNL     1      -9.460   8.674  70.633  1.00  0.00     0.000 HD 
BRANCH   7   9
HETATM    9  C   UNL     1     -10.952   7.109  70.527  1.00  0.00    -0.262 C  
HETATM   10  C   UNL     1     -12.092   7.821  71.253  1.00  0.00    -0.306 C  
HETATM   11  O   UNL     1     -13.045   7.244  71.756  1.00  0.00    -0.347 OA 
HETATM   12  O   UNL     1     -11.982   9.171  71.242  1.00  0.00    -0.293 OA 
ENDBRANCH   7   9
ENDBRANCH   2   5
TORSDOF 2
ENDMDL
MODEL      195
REMARK 921   NORMALIZED FREE ENERGY PREDICTED BY IDOCK:   -1.86 KCAL/MOL
REMARK 922        TOTAL FREE ENERGY PREDICTED BY IDOCK:   -2.16 KCAL/MOL
REMARK 923 INTER-LIGAND FREE ENERGY PREDICTED BY IDOCK:   -2.05 KCAL/MOL
REMARK 924 INTRA-LIGAND FREE ENERGY PREDICTED BY IDOCK:   -0.12 KCAL/MOL
REMARK 927      BINDING AFFINITY PREDICTED BY RF-SCORE:    0.00 PKD
ROOT
HETATM    1  C   UNL     1      -9.776   2.959  71.481  1.00  0.00    -0.224 C  
HETATM    2  C   UNL     1      -9.902   4.306  72.181  1.00  0.00    -0.167 C  
HETATM    3  S   UNL     1      -8.622   4.462  73.479  1.00  0.00    -0.096 SA 
HETATM    4  H   UNL     1      -8.736   5.690  74.118  1.00  0.00     0.000 H  
ENDROOT
BRANCH   2   5
HETATM    5  C   UNL     1      -9.790   5.476  71.198  1.00  0.00    -0.181 C  
HETATM    6  O   UNL     1     -10.551   5.647  70.253  1.00  0.00    -0.266 OA 
HETATM    7  N   UNL     1      -8.821   6.410  71.532  1.00  0.00    -0.137 N  
HETATM    8  H   UNL     1      -8.332   6.340  72.425  1.00  0.00     0.000 HD 
BRANCH   7   9
HETATM    9  C   UNL     1      -8.496   7.500  70.605  1.00  0.00    -0.132 C  
HETATM   10  C   UNL     1      -8.177   8.817  71.312  1.00  0.00    -0.167 C  
HETATM   11  O   UNL     1      -7.870   9.846  70.728  1.00  0.00    -0.275 OA 
HETATM   12  O   UNL     1      -8.210   8.728  72.663  1.00  0.00    -0.403 OA 
ENDBRANCH   7   9
ENDBRANCH   2   5
TORSDOF 2
ENDMDL
MODEL      196
REMARK 921   NORMALIZED FREE ENERGY PREDICTED BY IDOCK:   -1.85 KCAL/MOL
REMARK 922        TOTAL FREE ENERGY PREDICTED BY IDOCK:   -2.16 KCAL/MOL
REMARK 923 INTER-LIGAND FREE ENERGY PREDICTED BY IDOCK:   -2.02 KCAL/MOL
REMARK 924 INTRA-LIGAND FREE ENERGY PREDICTED BY IDOCK:   -0.14 KCAL/MOL
REMARK 927      BINDING AFFINITY PREDICTED BY RF-SCORE:    0.00 PKD
ROOT
HETATM    1  C   UNL     1      -7.919   9.918  66.946  1.00  0.00    -0.109 C  
HETATM    2  C   UNL     1      -9.112  10.625  67.576  1.00  0.00    -0.139 C  
HETATM    3  S   UNL     1     -10.402  10.929  66.316  1.00  0.00    -0.240 SA 
HETATM    4  H   UNL     1     -11.490  11.574  66.891  1.00  0.00     0.000 H  
ENDROOT
BRANCH   2   5
HETATM    5  C   UNL     1      -9.703   9.825  68.742  1.00  0.00    -0.161 C  
HETATM    6  O   UNL     1     -10.499  10.287  69.551  1.00  0.00    -0.214 OA 
HETATM    7  N   UNL     1      -9.357   8.482  68.745  1.00  0.00    -0.143 N  
HETATM    8  H   UNL     1      -8.847   8.086  67.954  1.00  0.00     0.000 HD 
BRANCH   7   9
HETATM    9  C   UNL     1      -9.721   7.629  69.881  1.00  0.00    -0.175 C  
HETATM   10  C   UNL     1     -10.729   6.540  69.517  1.00  0.00    -0.270 C  
HETATM   11  O   UNL     1     -11.157   5.715  70.312  1.00  0.00    -0.278 OA 
HETATM   12  O   UNL     1     -11.069   6.533  68.207  1.00  0.00    -0.290 OA 
ENDBRANCH   7   9
ENDBRANCH   2   5
TORSDOF 2
ENDMDL
MODEL      197
REMARK 921   NORMALIZED FREE ENERGY PREDICTED BY IDOCK:   -1.85 KCAL/MOL
REMARK 922        TOTAL FREE ENERGY PREDICTED BY IDOCK:   -2.15 KCAL/MOL
REMARK 923 INTER-LIGAND FREE ENERGY PREDICTED BY IDOCK:   -2.00 KCAL/MOL
REMARK 924 INTRA-LIGAND FREE ENERGY PREDICTED BY IDOCK:   -0.15 KCAL/MOL
REMARK 927      BINDING AFFINITY PREDICTED BY RF-SCORE:    0.00 PKD
ROOT
HETATM    1  C   UNL     1      -8.524   6.331  65.586  1.00  0.00    -0.148 C  
HETATM    2  C   UNL     1      -8.115   6.142  67.040  1.00  0.00    -0.106 C  
HETATM    3  S   UNL     1      -7.656   7.751  67.779  1.00  0.00    -0.115 SA 
HETATM    4  H   UNL     1      -7.283   7.579  69.106  1.00  0.00     0.000 H  
ENDROOT
BRANCH   2   5
HETATM    5  C   UNL     1      -9.227   5.489  67.869  1.00  0.00    -0.108 C  
HETATM    6  O   UNL     1      -9.904   4.545  67.477  1.00  0.00    -0.174 OA 
HETATM    7  N   UNL     1      -9.333   5.975  69.164  1.00  0.00    -0.125 N  
HETATM    8  H   UNL     1      -8.634   6.626  69.522  1.00  0.00     0.000 HD 
BRANCH   7   9
HETATM    9  C   UNL     1     -10.447   5.555  70.020  1.00  0.00    -0.303 C  
HETATM   10  C   UNL     1     -11.274   6.726  70.551  1.00  0.00    -0.320 C  
HETATM   11  O   UNL     1     -12.252   6.597  71.272  1.00  0.00    -0.356 OA 
HETATM   12  O   UNL     1     -10.855   7.932  70.100  1.00  0.00    -0.243 OA 
ENDBRANCH   7   9
ENDBRANCH   2   5
TORSDOF 2
ENDMDL
MODEL      198
REMARK 921   NORMALIZED FREE ENERGY PREDICTED BY IDOCK:   -1.84 KCAL/MOL
REMARK 922        TOTAL FREE ENERGY PREDICTED BY IDOCK:   -2.14 KCAL/MOL
REMARK 923 INTER-LIGAND FREE ENERGY PREDICTED BY IDOCK:   -2.03 KCAL/MOL
REMARK 924 INTRA-LIGAND FREE ENERGY PREDICTED BY IDOCK:   -0.11 KCAL/MOL
REMARK 927      BINDING AFFINITY PREDICTED BY RF-SCORE:    0.00 PKD
ROOT
HETATM    1  C   UNL     1      -9.225  14.807  68.894  1.00  0.00    -0.177 C  
HETATM    2  C   UNL     1      -8.386  14.271  67.742  1.00  0.00    -0.171 C  
HETATM    3  S   UNL     1      -6.635  14.753  67.961  1.00  0.00    -0.162 SA 
HETATM    4  H   UNL     1      -5.869  14.264  66.910  1.00  0.00     0.000 H  
ENDROOT
BRANCH   2   5
HETATM    5  C   UNL     1      -8.493  12.748  67.614  1.00  0.00    -0.178 C  
HETATM    6  O   UNL     1      -8.570  12.158  66.542  1.00  0.00    -0.165 OA 
HETATM    7  N   UNL     1      -8.374  12.065  68.815  1.00  0.00    -0.351 N  
HETATM    8  H   UNL     1      -8.122  12.570  69.665  1.00  0.00     0.000 HD 
BRANCH   7   9
HETATM    9  C   UNL     1      -8.610  10.619  68.868  1.00  0.00    -0.158 C  
HETATM   10  C   UNL     1     -10.027  10.255  69.312  1.00  0.00    -0.227 C  
HETATM   11  O   UNL     1     -10.435   9.107  69.413  1.00  0.00    -0.211 OA 
HETATM   12  O   UNL     1     -10.818  11.331  69.534  1.00  0.00    -0.226 OA 
ENDBRANCH   7   9
ENDBRANCH   2   5
TORSDOF 2
ENDMDL
MODEL      199
REMARK 921   NORMALIZED FREE ENERGY PREDICTED BY IDOCK:   -1.83 KCAL/MOL
REMARK 922        TOTAL FREE ENERGY PREDICTED BY IDOCK:   -2.13 KCAL/MOL
REMARK 923 INTER-LIGAND FREE ENERGY PREDICTED BY IDOCK:   -2.00 KCAL/MOL
REMARK 924 INTRA-LIGAND FREE ENERGY PREDICTED BY IDOCK:   -0.13 KCAL/MOL
REMARK 927      BINDING AFFINITY PREDICTED BY RF-SCORE:    0.00 PKD
ROOT
HETATM    1  C   UNL     1      -9.185   5.656  66.077  1.00  0.00    -0.164 C  
HETATM    2  C   UNL     1      -8.765   7.095  66.344  1.00  0.00    -0.139 C  
HETATM    3  S   UNL     1      -7.970   7.804  64.857  1.00  0.00    -0.136 SA 
HETATM    4  H   UNL     1      -7.586   9.118  65.100  1.00  0.00     0.000 H  
ENDROOT
BRANCH   2   5
HETATM    5  C   UNL     1      -9.949   7.970  66.766  1.00  0.00    -0.274 C  
HETATM    6  O   UNL     1     -11.035   7.523  67.120  1.00  0.00    -0.293 OA 
HETATM    7  N   UNL     1      -9.662   9.325  66.835  1.00  0.00    -0.175 N  
HETATM    8  H   UNL     1      -8.701   9.648  66.719  1.00  0.00     0.000 HD 
BRANCH   7   9
HETATM    9  C   UNL     1     -10.735  10.296  67.075  1.00  0.00    -0.216 C  
HETATM   10  C   UNL     1     -10.519  11.132  68.336  1.00  0.00    -0.188 C  
HETATM   11  O   UNL     1     -11.287  12.006  68.714  1.00  0.00    -0.232 OA 
HETATM   12  O   UNL     1      -9.359  10.856  68.977  1.00  0.00    -0.188 OA 
ENDBRANCH   7   9
ENDBRANCH   2   5
TORSDOF 2
ENDMDL
MODEL      200
REMARK 921   NORMALIZED FREE ENERGY PREDICTED BY IDOCK:   -1.82 KCAL/MOL
REMARK 922        TOTAL FREE ENERGY PREDICTED BY IDOCK:   -2.12 KCAL/MOL
REMARK 923 INTER-LIGAND FREE ENERGY PREDICTED BY IDOCK:   -1.98 KCAL/MOL
REMARK 924 INTRA-LIGAND FREE ENERGY PREDICTED BY IDOCK:   -0.14 KCAL/MOL
REMARK 927      BINDING AFFINITY PREDICTED BY RF-SCORE:    0.00 PKD
ROOT
HETATM    1  C   UNL     1     -10.418   4.682  65.801  1.00  0.00    -0.290 C  
HETATM    2  C   UNL     1     -10.575   5.305  67.183  1.00  0.00    -0.155 C  
HETATM    3  S   UNL     1      -9.475   4.466  68.379  1.00  0.00    -0.146 SA 
HETATM    4  H   UNL     1      -9.618   5.033  69.640  1.00  0.00     0.000 H  
ENDROOT
BRANCH   2   5
HETATM    5  C   UNL     1     -10.279   6.808  67.171  1.00  0.00    -0.225 C  
HETATM    6  O   UNL     1      -9.806   7.402  66.210  1.00  0.00    -0.111 OA 
HETATM    7  N   UNL     1     -10.705   7.481  68.307  1.00  0.00    -0.391 N  
HETATM    8  H   UNL     1     -11.264   6.994  69.008  1.00  0.00     0.000 HD 
BRANCH   7   9
HETATM    9  C   UNL     1     -10.353   8.891  68.504  1.00  0.00    -0.198 C  
HETATM   10  C   UNL     1      -9.392   9.115  69.671  1.00  0.00    -0.172 C  
HETATM   11  O   UNL     1      -8.964  10.212  70.000  1.00  0.00    -0.151 OA 
HETATM   12  O   UNL     1      -9.006   7.970  70.282  1.00  0.00    -0.144 OA 
ENDBRANCH   7   9
ENDBRANCH   2   5
TORSDOF 2
ENDMDL
MODEL      201
REMARK 921   NORMALIZED FREE ENERGY PREDICTED BY IDOCK:   -1.82 KCAL/MOL
REMARK 922        TOTAL FREE ENERGY PREDICTED BY IDOCK:   -2.12 KCAL/MOL
REMARK 923 INTER-LIGAND FREE ENERGY PREDICTED BY IDOCK:   -2.01 KCAL/MOL
REMARK 924 INTRA-LIGAND FREE ENERGY PREDICTED BY IDOCK:   -0.10 KCAL/MOL
REMARK 927      BINDING AFFINITY PREDICTED BY RF-SCORE:    0.00 PKD
ROOT
HETATM    1  C   UNL     1      -9.682   2.760  70.888  1.00  0.00    -0.135 C  
HETATM    2  C   UNL     1     -10.008   3.452  72.205  1.00  0.00    -0.160 C  
HETATM    3  S   UNL     1      -9.011   2.732  73.558  1.00  0.00    -0.081 SA 
HETATM    4  H   UNL     1      -9.308   3.364  74.760  1.00  0.00     0.000 H  
ENDROOT
BRANCH   2   5
HETATM    5  C   UNL     1      -9.770   4.964  72.132  1.00  0.00    -0.163 C  
HETATM    6  O   UNL     1      -9.163   5.601  72.986  1.00  0.00    -0.137 OA 
HETATM    7  N   UNL     1     -10.194   5.552  70.949  1.00  0.00    -0.215 N  
HETATM    8  H   UNL     1     -10.522   4.968  70.180  1.00  0.00     0.000 HD 
BRANCH   7   9
HETATM    9  C   UNL     1     -10.172   7.011  70.801  1.00  0.00    -0.194 C  
HETATM   10  C   UNL     1     -11.543   7.657  70.995  1.00  0.00    -0.282 C  
HETATM   11  O   UNL     1     -11.745   8.861  70.926  1.00  0.00    -0.282 OA 
HETATM   12  O   UNL     1     -12.518   6.773  71.312  1.00  0.00    -0.362 OA 
ENDBRANCH   7   9
ENDBRANCH   2   5
TORSDOF 2
ENDMDL
MODEL      202
REMARK 921   NORMALIZED FREE ENERGY PREDICTED BY IDOCK:   -1.81 KCAL/MOL
REMARK 922        TOTAL FREE ENERGY PREDICTED BY IDOCK:   -2.11 KCAL/MOL
REMARK 923 INTER-LIGAND FREE ENERGY PREDICTED BY IDOCK:   -2.00 KCAL/MOL
REMARK 924 INTRA-LIGAND FREE ENERGY PREDICTED BY IDOCK:   -0.10 KCAL/MOL
REMARK 927      BINDING AFFINITY PREDICTED BY RF-SCORE:    0.00 PKD
ROOT
HETATM    1  C   UNL     1      -7.806  15.526  66.900  1.00  0.00    -0.229 C  
HETATM    2  C   UNL     1      -8.832  14.829  67.783  1.00  0.00    -0.175 C  
HETATM    3  S   UNL     1     -10.525  15.236  67.225  1.00  0.00    -0.280 SA 
HETATM    4  H   UNL     1     -11.461  14.600  68.031  1.00  0.00     0.000 H  
ENDROOT
BRANCH   2   5
HETATM    5  C   UNL     1      -8.640  13.309  67.795  1.00  0.00    -0.184 C  
HETATM    6  O   UNL     1      -9.189  12.558  68.594  1.00  0.00    -0.108 OA 
HETATM    7  N   UNL     1      -7.880  12.822  66.742  1.00  0.00    -0.396 N  
HETATM    8  H   UNL     1      -7.595  13.448  65.987  1.00  0.00     0.000 HD 
BRANCH   7   9
HETATM    9  C   UNL     1      -7.485  11.410  66.707  1.00  0.00    -0.137 C  
HETATM   10  C   UNL     1      -8.412  10.545  65.852  1.00  0.00    -0.162 C  
HETATM   11  O   UNL     1      -8.257   9.345  65.680  1.00  0.00    -0.115 OA 
HETATM   12  O   UNL     1      -9.401  11.246  65.248  1.00  0.00    -0.219 OA 
ENDBRANCH   7   9
ENDBRANCH   2   5
TORSDOF 2
ENDMDL
MODEL      203
REMARK 921   NORMALIZED FREE ENERGY PREDICTED BY IDOCK:   -1.79 KCAL/MOL
REMARK 922        TOTAL FREE ENERGY PREDICTED BY IDOCK:   -2.09 KCAL/MOL
REMARK 923 INTER-LIGAND FREE ENERGY PREDICTED BY IDOCK:   -1.96 KCAL/MOL
REMARK 924 INTRA-LIGAND FREE ENERGY PREDICTED BY IDOCK:   -0.13 KCAL/MOL
REMARK 927      BINDING AFFINITY PREDICTED BY RF-SCORE:    0.00 PKD
ROOT
HETATM    1  C   UNL     1      -7.395   7.870  69.091  1.00  0.00    -0.083 C  
HETATM    2  C   UNL     1      -7.577   8.715  70.345  1.00  0.00    -0.075 C  
HETATM    3  S   UNL     1      -6.320  10.043  70.397  1.00  0.00    -0.126 SA 
HETATM    4  H   UNL     1      -6.486  10.815  71.540  1.00  0.00     0.000 H  
ENDROOT
BRANCH   2   5
HETATM    5  C   UNL     1      -8.980   9.325  70.427  1.00  0.00    -0.239 C  
HETATM    6  O   UNL     1      -9.618   9.428  71.468  1.00  0.00    -0.250 OA 
HETATM    7  N   UNL     1      -9.436   9.870  69.236  1.00  0.00    -0.196 N  
HETATM    8  H   UNL     1      -8.808   9.938  68.434  1.00  0.00     0.000 HD 
BRANCH   7   9
HETATM    9  C   UNL     1     -10.817  10.349  69.124  1.00  0.00    -0.236 C  
HETATM   10  C   UNL     1     -10.914  11.822  68.730  1.00  0.00    -0.234 C  
HETATM   11  O   UNL     1     -11.971  12.417  68.571  1.00  0.00    -0.318 OA 
HETATM   12  O   UNL     1      -9.711  12.405  68.513  1.00  0.00    -0.206 OA 
ENDBRANCH   7   9
ENDBRANCH   2   5
TORSDOF 2
ENDMDL
MODEL      204
REMARK 921   NORMALIZED FREE ENERGY PREDICTED BY IDOCK:   -1.78 KCAL/MOL
REMARK 922        TOTAL FREE ENERGY PREDICTED BY IDOCK:   -2.08 KCAL/MOL
REMARK 923 INTER-LIGAND FREE ENERGY PREDICTED BY IDOCK:   -1.98 KCAL/MOL
REMARK 924 INTRA-LIGAND FREE ENERGY PREDICTED BY IDOCK:   -0.10 KCAL/MOL
REMARK 927      BINDING AFFINITY PREDICTED BY RF-SCORE:    0.00 PKD
ROOT
HETATM    1  C   UNL     1      -9.641   3.128  71.047  1.00  0.00    -0.228 C  
HETATM    2  C   UNL     1      -8.394   3.990  70.903  1.00  0.00    -0.071 C  
HETATM    3  S   UNL     1      -7.886   4.075  69.148  1.00  0.00    -0.056 SA 
HETATM    4  H   UNL     1      -6.748   4.862  69.017  1.00  0.00     0.000 H  
ENDROOT
BRANCH   2   5
HETATM    5  C   UNL     1      -8.607   5.405  71.452  1.00  0.00    -0.130 C  
HETATM    6  O   UNL     1      -7.703   6.214  71.620  1.00  0.00    -0.098 OA 
HETATM    7  N   UNL     1      -9.938   5.750  71.635  1.00  0.00    -0.171 N  
HETATM    8  H   UNL     1     -10.676   5.125  71.309  1.00  0.00     0.000 HD 
BRANCH   7   9
HETATM    9  C   UNL     1     -10.288   7.012  72.297  1.00  0.00    -0.193 C  
HETATM   10  C   UNL     1     -11.714   7.473  71.997  1.00  0.00    -0.294 C  
HETATM   11  O   UNL     1     -12.211   8.491  72.456  1.00  0.00    -0.389 OA 
HETATM   12  O   UNL     1     -12.408   6.614  71.213  1.00  0.00    -0.352 OA 
ENDBRANCH   7   9
ENDBRANCH   2   5
TORSDOF 2
ENDMDL
MODEL      205
REMARK 921   NORMALIZED FREE ENERGY PREDICTED BY IDOCK:   -1.77 KCAL/MOL
REMARK 922        TOTAL FREE ENERGY PREDICTED BY IDOCK:   -2.07 KCAL/MOL
REMARK 923 INTER-LIGAND FREE ENERGY PREDICTED BY IDOCK:   -1.98 KCAL/MOL
REMARK 924 INTRA-LIGAND FREE ENERGY PREDICTED BY IDOCK:   -0.09 KCAL/MOL
REMARK 927      BINDING AFFINITY PREDICTED BY RF-SCORE:    0.00 PKD
ROOT
HETATM    1  C   UNL     1      -9.126  16.151  66.117  1.00  0.00    -0.382 C  
HETATM    2  C   UNL     1      -9.701  15.165  67.125  1.00  0.00    -0.228 C  
HETATM    3  S   UNL     1     -11.343  14.582  66.570  1.00  0.00    -0.358 SA 
HETATM    4  H   UNL     1     -11.867  13.682  67.490  1.00  0.00     0.000 H  
ENDROOT
BRANCH   2   5
HETATM    5  C   UNL     1      -8.773  13.966  67.348  1.00  0.00    -0.203 C  
HETATM    6  O   UNL     1      -8.924  12.877  66.807  1.00  0.00    -0.218 OA 
HETATM    7  N   UNL     1      -7.660  14.244  68.128  1.00  0.00    -0.121 N  
HETATM    8  H   UNL     1      -7.461  15.205  68.407  1.00  0.00     0.000 HD 
BRANCH   7   9
HETATM    9  C   UNL     1      -6.767  13.161  68.552  1.00  0.00    -0.092 C  
HETATM   10  C   UNL     1      -6.148  13.395  69.930  1.00  0.00    -0.126 C  
HETATM   11  O   UNL     1      -5.384  12.612  70.476  1.00  0.00    -0.113 OA 
HETATM   12  O   UNL     1      -6.568  14.536  70.525  1.00  0.00    -0.142 OA 
ENDBRANCH   7   9
ENDBRANCH   2   5
TORSDOF 2
ENDMDL
MODEL      206
REMARK 921   NORMALIZED FREE ENERGY PREDICTED BY IDOCK:   -1.77 KCAL/MOL
REMARK 922        TOTAL FREE ENERGY PREDICTED BY IDOCK:   -2.07 KCAL/MOL
REMARK 923 INTER-LIGAND FREE ENERGY PREDICTED BY IDOCK:   -1.93 KCAL/MOL
REMARK 924 INTRA-LIGAND FREE ENERGY PREDICTED BY IDOCK:   -0.14 KCAL/MOL
REMARK 927      BINDING AFFINITY PREDICTED BY RF-SCORE:    0.00 PKD
ROOT
HETATM    1  C   UNL     1      -7.240   5.725  69.403  1.00  0.00    -0.066 C  
HETATM    2  C   UNL     1      -7.816   4.619  70.277  1.00  0.00    -0.057 C  
HETATM    3  S   UNL     1      -6.979   4.602  71.903  1.00  0.00    -0.061 SA 
HETATM    4  H   UNL     1      -7.504   3.593  72.701  1.00  0.00     0.000 H  
ENDROOT
BRANCH   2   5
HETATM    5  C   UNL     1      -9.328   4.770  70.473  1.00  0.00    -0.154 C  
HETATM    6  O   UNL     1     -10.032   3.930  71.022  1.00  0.00    -0.173 OA 
HETATM    7  N   UNL     1      -9.833   6.002  70.083  1.00  0.00    -0.169 N  
HETATM    8  H   UNL     1      -9.194   6.749  69.807  1.00  0.00     0.000 HD 
BRANCH   7   9
HETATM    9  C   UNL     1     -11.280   6.235  70.069  1.00  0.00    -0.412 C  
HETATM   10  C   UNL     1     -11.736   7.264  71.103  1.00  0.00    -0.303 C  
HETATM   11  O   UNL     1     -12.898   7.613  71.251  1.00  0.00    -0.318 OA 
HETATM   12  O   UNL     1     -10.718   7.804  71.814  1.00  0.00    -0.216 OA 
ENDBRANCH   7   9
ENDBRANCH   2   5
TORSDOF 2
ENDMDL
MODEL      207
REMARK 921   NORMALIZED FREE ENERGY PREDICTED BY IDOCK:   -1.77 KCAL/MOL
REMARK 922        TOTAL FREE ENERGY PREDICTED BY IDOCK:   -2.07 KCAL/MOL
REMARK 923 INTER-LIGAND FREE ENERGY PREDICTED BY IDOCK:   -1.92 KCAL/MOL
REMARK 924 INTRA-LIGAND FREE ENERGY PREDICTED BY IDOCK:   -0.15 KCAL/MOL
REMARK 927      BINDING AFFINITY PREDICTED BY RF-SCORE:    0.00 PKD
ROOT
HETATM    1  C   UNL     1     -11.697   6.698  70.333  1.00  0.00    -0.446 C  
HETATM    2  C   UNL     1     -10.451   7.571  70.405  1.00  0.00    -0.223 C  
HETATM    3  S   UNL     1     -10.824   9.128  71.288  1.00  0.00    -0.360 SA 
HETATM    4  H   UNL     1      -9.687   9.925  71.354  1.00  0.00     0.000 H  
ENDROOT
BRANCH   2   5
HETATM    5  C   UNL     1      -9.285   6.851  71.090  1.00  0.00    -0.154 C  
HETATM    6  O   UNL     1      -8.125   6.907  70.698  1.00  0.00    -0.114 OA 
HETATM    7  N   UNL     1      -9.624   6.217  72.276  1.00  0.00    -0.153 N  
HETATM    8  H   UNL     1     -10.555   6.346  72.674  1.00  0.00     0.000 HD 
BRANCH   7   9
HETATM    9  C   UNL     1      -8.649   5.361  72.960  1.00  0.00    -0.122 C  
HETATM   10  C   UNL     1      -8.960   3.870  72.828  1.00  0.00    -0.104 C  
HETATM   11  O   UNL     1      -8.269   2.985  73.313  1.00  0.00    -0.070 OA 
HETATM   12  O   UNL     1     -10.051   3.609  72.070  1.00  0.00    -0.173 OA 
ENDBRANCH   7   9
ENDBRANCH   2   5
TORSDOF 2
ENDMDL
MODEL      208
REMARK 921   NORMALIZED FREE ENERGY PREDICTED BY IDOCK:   -1.77 KCAL/MOL
REMARK 922        TOTAL FREE ENERGY PREDICTED BY IDOCK:   -2.06 KCAL/MOL
REMARK 923 INTER-LIGAND FREE ENERGY PREDICTED BY IDOCK:   -1.92 KCAL/MOL
REMARK 924 INTRA-LIGAND FREE ENERGY PREDICTED BY IDOCK:   -0.14 KCAL/MOL
REMARK 927      BINDING AFFINITY PREDICTED BY RF-SCORE:    0.00 PKD
ROOT
HETATM    1  C   UNL     1      -7.514   9.006  65.306  1.00  0.00    -0.093 C  
HETATM    2  C   UNL     1      -7.270   9.155  66.801  1.00  0.00    -0.086 C  
HETATM    3  S   UNL     1      -5.876  10.302  67.100  1.00  0.00    -0.050 SA 
HETATM    4  H   UNL     1      -5.653  10.438  68.465  1.00  0.00     0.000 H  
ENDROOT
BRANCH   2   5
HETATM    5  C   UNL     1      -8.517   9.650  67.540  1.00  0.00    -0.125 C  
HETATM    6  O   UNL     1      -9.133   8.981  68.362  1.00  0.00    -0.133 OA 
HETATM    7  N   UNL     1      -8.836  10.978  67.296  1.00  0.00    -0.134 N  
HETATM    8  H   UNL     1      -8.197  11.564  66.756  1.00  0.00     0.000 HD 
BRANCH   7   9
HETATM    9  C   UNL     1     -10.087  11.544  67.811  1.00  0.00    -0.182 C  
HETATM   10  C   UNL     1     -11.143  11.757  66.727  1.00  0.00    -0.306 C  
HETATM   11  O   UNL     1     -12.259  12.207  66.942  1.00  0.00    -0.537 OA 
HETATM   12  O   UNL     1     -10.749  11.345  65.498  1.00  0.00    -0.276 OA 
ENDBRANCH   7   9
ENDBRANCH   2   5
TORSDOF 2
ENDMDL
MODEL      209
REMARK 921   NORMALIZED FREE ENERGY PREDICTED BY IDOCK:   -1.76 KCAL/MOL
REMARK 922        TOTAL FREE ENERGY PREDICTED BY IDOCK:   -2.05 KCAL/MOL
REMARK 923 INTER-LIGAND FREE ENERGY PREDICTED BY IDOCK:   -1.89 KCAL/MOL
REMARK 924 INTRA-LIGAND FREE ENERGY PREDICTED BY IDOCK:   -0.16 KCAL/MOL
REMARK 927      BINDING AFFINITY PREDICTED BY RF-SCORE:    0.00 PKD
ROOT
HETATM    1  C   UNL     1      -9.340   4.592  70.762  1.00  0.00    -0.215 C  
HETATM    2  C   UNL     1     -10.058   5.560  69.831  1.00  0.00    -0.235 C  
HETATM    3  S   UNL     1     -11.328   6.497  70.754  1.00  0.00    -0.360 SA 
HETATM    4  H   UNL     1     -11.984   7.380  69.905  1.00  0.00     0.000 H  
ENDROOT
BRANCH   2   5
HETATM    5  C   UNL     1      -9.087   6.532  69.153  1.00  0.00    -0.136 C  
HETATM    6  O   UNL     1      -7.916   6.264  68.907  1.00  0.00    -0.106 OA 
HETATM    7  N   UNL     1      -9.670   7.714  68.722  1.00  0.00    -0.151 N  
HETATM    8  H   UNL     1     -10.683   7.829  68.771  1.00  0.00     0.000 HD 
BRANCH   7   9
HETATM    9  C   UNL     1      -8.837   8.800  68.196  1.00  0.00    -0.141 C  
HETATM   10  C   UNL     1      -8.816  10.034  69.097  1.00  0.00    -0.168 C  
HETATM   11  O   UNL     1      -8.176  11.046  68.852  1.00  0.00    -0.145 OA 
HETATM   12  O   UNL     1      -9.535   9.885  70.235  1.00  0.00    -0.232 OA 
ENDBRANCH   7   9
ENDBRANCH   2   5
TORSDOF 2
ENDMDL
MODEL      210
REMARK 921   NORMALIZED FREE ENERGY PREDICTED BY IDOCK:   -1.75 KCAL/MOL
REMARK 922        TOTAL FREE ENERGY PREDICTED BY IDOCK:   -2.04 KCAL/MOL
REMARK 923 INTER-LIGAND FREE ENERGY PREDICTED BY IDOCK:   -1.93 KCAL/MOL
REMARK 924 INTRA-LIGAND FREE ENERGY PREDICTED BY IDOCK:   -0.11 KCAL/MOL
REMARK 927      BINDING AFFINITY PREDICTED BY RF-SCORE:    0.00 PKD
ROOT
HETATM    1  C   UNL     1      -9.555   2.319  71.111  1.00  0.00    -0.213 C  
HETATM    2  C   UNL     1      -9.991   3.488  71.984  1.00  0.00    -0.157 C  
HETATM    3  S   UNL     1     -10.605   2.877  73.594  1.00  0.00    -0.190 SA 
HETATM    4  H   UNL     1     -11.003   3.944  74.391  1.00  0.00     0.000 H  
ENDROOT
BRANCH   2   5
HETATM    5  C   UNL     1      -8.854   4.491  72.208  1.00  0.00    -0.121 C  
HETATM    6  O   UNL     1      -7.705   4.168  72.487  1.00  0.00    -0.072 OA 
HETATM    7  N   UNL     1      -9.199   5.810  71.952  1.00  0.00    -0.145 N  
HETATM    8  H   UNL     1     -10.107   6.028  71.540  1.00  0.00     0.000 HD 
BRANCH   7   9
HETATM    9  C   UNL     1      -8.262   6.893  72.270  1.00  0.00    -0.104 C  
HETATM   10  C   UNL     1      -8.691   7.724  73.479  1.00  0.00    -0.241 C  
HETATM   11  O   UNL     1      -8.049   8.666  73.920  1.00  0.00    -0.398 OA 
HETATM   12  O   UNL     1      -9.832   7.285  74.061  1.00  0.00    -0.292 OA 
ENDBRANCH   7   9
ENDBRANCH   2   5
TORSDOF 2
ENDMDL
MODEL      211
REMARK 921   NORMALIZED FREE ENERGY PREDICTED BY IDOCK:   -1.75 KCAL/MOL
REMARK 922        TOTAL FREE ENERGY PREDICTED BY IDOCK:   -2.04 KCAL/MOL
REMARK 923 INTER-LIGAND FREE ENERGY PREDICTED BY IDOCK:   -1.90 KCAL/MOL
REMARK 924 INTRA-LIGAND FREE ENERGY PREDICTED BY IDOCK:   -0.14 KCAL/MOL
REMARK 927      BINDING AFFINITY PREDICTED BY RF-SCORE:    0.00 PKD
ROOT
HETATM    1  C   UNL     1      -7.416   6.503  70.996  1.00  0.00    -0.085 C  
HETATM    2  C   UNL     1      -8.722   6.616  71.772  1.00  0.00    -0.129 C  
HETATM    3  S   UNL     1      -8.934   8.319  72.404  1.00  0.00    -0.243 SA 
HETATM    4  H   UNL     1     -10.125   8.422  73.112  1.00  0.00     0.000 H  
ENDROOT
BRANCH   2   5
HETATM    5  C   UNL     1      -9.932   6.224  70.919  1.00  0.00    -0.186 C  
HETATM    6  O   UNL     1     -10.838   5.499  71.314  1.00  0.00    -0.242 OA 
HETATM    7  N   UNL     1      -9.989   6.855  69.686  1.00  0.00    -0.170 N  
HETATM    8  H   UNL     1      -9.323   7.595  69.462  1.00  0.00     0.000 HD 
BRANCH   7   9
HETATM    9  C   UNL     1     -11.005   6.464  68.703  1.00  0.00    -0.330 C  
HETATM   10  C   UNL     1     -10.408   5.929  67.401  1.00  0.00    -0.220 C  
HETATM   11  O   UNL     1     -11.077   5.537  66.456  1.00  0.00    -0.179 OA 
HETATM   12  O   UNL     1      -9.055   5.872  67.409  1.00  0.00    -0.112 OA 
ENDBRANCH   7   9
ENDBRANCH   2   5
TORSDOF 2
ENDMDL
MODEL      212
REMARK 921   NORMALIZED FREE ENERGY PREDICTED BY IDOCK:   -1.74 KCAL/MOL
REMARK 922        TOTAL FREE ENERGY PREDICTED BY IDOCK:   -2.03 KCAL/MOL
REMARK 923 INTER-LIGAND FREE ENERGY PREDICTED BY IDOCK:   -1.94 KCAL/MOL
REMARK 924 INTRA-LIGAND FREE ENERGY PREDICTED BY IDOCK:   -0.09 KCAL/MOL
REMARK 927      BINDING AFFINITY PREDICTED BY RF-SCORE:    0.00 PKD
ROOT
HETATM    1  C   UNL     1      -9.042   4.984  68.161  1.00  0.00    -0.131 C  
HETATM    2  C   UNL     1      -8.574   5.694  69.424  1.00  0.00    -0.106 C  
HETATM    3  S   UNL     1      -6.748   5.791  69.451  1.00  0.00    -0.062 SA 
HETATM    4  H   UNL     1      -6.320   6.438  70.603  1.00  0.00     0.000 H  
ENDROOT
BRANCH   2   5
HETATM    5  C   UNL     1      -9.170   7.099  69.547  1.00  0.00    -0.149 C  
HETATM    6  O   UNL     1      -8.584   8.121  69.207  1.00  0.00    -0.133 OA 
HETATM    7  N   UNL     1     -10.492   7.123  69.967  1.00  0.00    -0.215 N  
HETATM    8  H   UNL     1     -11.012   6.250  70.061  1.00  0.00     0.000 HD 
BRANCH   7   9
HETATM    9  C   UNL     1     -11.145   8.399  70.278  1.00  0.00    -0.213 C  
HETATM   10  C   UNL     1     -12.068   8.324  71.493  1.00  0.00    -0.299 C  
HETATM   11  O   UNL     1     -12.699   9.275  71.929  1.00  0.00    -0.340 OA 
HETATM   12  O   UNL     1     -12.082   7.107  72.088  1.00  0.00    -0.292 OA 
ENDBRANCH   7   9
ENDBRANCH   2   5
TORSDOF 2
ENDMDL
MODEL      213
REMARK 921   NORMALIZED FREE ENERGY PREDICTED BY IDOCK:   -1.73 KCAL/MOL
REMARK 922        TOTAL FREE ENERGY PREDICTED BY IDOCK:   -2.02 KCAL/MOL
REMARK 923 INTER-LIGAND FREE ENERGY PREDICTED BY IDOCK:   -1.94 KCAL/MOL
REMARK 924 INTRA-LIGAND FREE ENERGY PREDICTED BY IDOCK:   -0.08 KCAL/MOL
REMARK 927      BINDING AFFINITY PREDICTED BY RF-SCORE:    0.00 PKD
ROOT
HETATM    1  C   UNL     1      -9.465   7.019  69.247  1.00  0.00    -0.147 C  
HETATM    2  C   UNL     1     -10.590   7.864  69.830  1.00  0.00    -0.242 C  
HETATM    3  S   UNL     1     -10.861   7.427  71.585  1.00  0.00    -0.221 SA 
HETATM    4  H   UNL     1     -11.886   8.198  72.118  1.00  0.00     0.000 H  
ENDROOT
BRANCH   2   5
HETATM    5  C   UNL     1     -10.303   9.364  69.707  1.00  0.00    -0.223 C  
HETATM    6  O   UNL     1     -11.028  10.237  70.170  1.00  0.00    -0.278 OA 
HETATM    7  N   UNL     1      -9.079   9.665  69.128  1.00  0.00    -0.146 N  
HETATM    8  H   UNL     1      -8.414   8.917  68.925  1.00  0.00     0.000 HD 
BRANCH   7   9
HETATM    9  C   UNL     1      -8.737  11.054  68.805  1.00  0.00    -0.145 C  
HETATM   10  C   UNL     1      -9.085  11.442  67.368  1.00  0.00    -0.160 C  
HETATM   11  O   UNL     1      -8.893  12.554  66.897  1.00  0.00    -0.205 OA 
HETATM   12  O   UNL     1      -9.683  10.449  66.669  1.00  0.00    -0.177 OA 
ENDBRANCH   7   9
ENDBRANCH   2   5
TORSDOF 2
ENDMDL
MODEL      214
REMARK 921   NORMALIZED FREE ENERGY PREDICTED BY IDOCK:   -1.72 KCAL/MOL
REMARK 922        TOTAL FREE ENERGY PREDICTED BY IDOCK:   -2.01 KCAL/MOL
REMARK 923 INTER-LIGAND FREE ENERGY PREDICTED BY IDOCK:   -2.40 KCAL/MOL
REMARK 924 INTRA-LIGAND FREE ENERGY PREDICTED BY IDOCK:    0.39 KCAL/MOL
REMARK 927      BINDING AFFINITY PREDICTED BY RF-SCORE:    0.00 PKD
ROOT
HETATM    1  C   UNL     1      -7.846  15.429  68.313  1.00  0.00    -0.123 C  
HETATM    2  C   UNL     1      -7.114  14.198  67.793  1.00  0.00    -0.174 C  
HETATM    3  S   UNL     1      -5.676  13.824  68.858  1.00  0.00    -0.086 SA 
HETATM    4  H   UNL     1      -5.008  12.702  68.384  1.00  0.00     0.000 H  
ENDROOT
BRANCH   2   5
HETATM    5  C   UNL     1      -8.034  12.975  67.713  1.00  0.00    -0.164 C  
HETATM    6  O   UNL     1      -7.861  12.042  66.937  1.00  0.00    -0.154 OA 
HETATM    7  N   UNL     1      -9.026  12.943  68.681  1.00  0.00    -0.394 N  
HETATM    8  H   UNL     1      -9.029  13.637  69.430  1.00  0.00     0.000 HD 
BRANCH   7   9
HETATM    9  C   UNL     1     -10.071  11.916  68.634  1.00  0.00    -0.177 C  
HETATM   10  C   UNL     1     -11.059  12.114  67.485  1.00  0.00    -0.275 C  
HETATM   11  O   UNL     1     -11.999  11.366  67.258  1.00  0.00    -0.580 OA 
HETATM   12  O   UNL     1     -10.766  13.175  66.696  1.00  0.00    -0.275 OA 
ENDBRANCH   7   9
ENDBRANCH   2   5
TORSDOF 2
ENDMDL
MODEL      215
REMARK 921   NORMALIZED FREE ENERGY PREDICTED BY IDOCK:   -1.72 KCAL/MOL
REMARK 922        TOTAL FREE ENERGY PREDICTED BY IDOCK:   -2.01 KCAL/MOL
REMARK 923 INTER-LIGAND FREE ENERGY PREDICTED BY IDOCK:   -1.93 KCAL/MOL
REMARK 924 INTRA-LIGAND FREE ENERGY PREDICTED BY IDOCK:   -0.08 KCAL/MOL
REMARK 927      BINDING AFFINITY PREDICTED BY RF-SCORE:    0.00 PKD
ROOT
HETATM    1  C   UNL     1      -6.105  15.251  70.321  1.00  0.00    -0.111 C  
HETATM    2  C   UNL     1      -7.488  15.202  69.685  1.00  0.00    -0.181 C  
HETATM    3  S   UNL     1      -7.802  16.738  68.742  1.00  0.00    -0.239 SA 
HETATM    4  H   UNL     1      -9.063  16.694  68.161  1.00  0.00     0.000 H  
ENDROOT
BRANCH   2   5
HETATM    5  C   UNL     1      -7.655  13.986  68.768  1.00  0.00    -0.113 C  
HETATM    6  O   UNL     1      -6.732  13.461  68.157  1.00  0.00    -0.089 OA 
HETATM    7  N   UNL     1      -8.930  13.440  68.772  1.00  0.00    -0.388 N  
HETATM    8  H   UNL     1      -9.628  13.782  69.433  1.00  0.00     0.000 HD 
BRANCH   7   9
HETATM    9  C   UNL     1      -9.278  12.372  67.830  1.00  0.00    -0.193 C  
HETATM   10  C   UNL     1     -10.416  11.479  68.324  1.00  0.00    -0.197 C  
HETATM   11  O   UNL     1     -10.868  10.537  67.690  1.00  0.00    -0.256 OA 
HETATM   12  O   UNL     1     -10.923  11.861  69.520  1.00  0.00    -0.158 OA 
ENDBRANCH   7   9
ENDBRANCH   2   5
TORSDOF 2
ENDMDL
MODEL      216
REMARK 921   NORMALIZED FREE ENERGY PREDICTED BY IDOCK:   -1.71 KCAL/MOL
REMARK 922        TOTAL FREE ENERGY PREDICTED BY IDOCK:   -2.00 KCAL/MOL
REMARK 923 INTER-LIGAND FREE ENERGY PREDICTED BY IDOCK:   -1.87 KCAL/MOL
REMARK 924 INTRA-LIGAND FREE ENERGY PREDICTED BY IDOCK:   -0.13 KCAL/MOL
REMARK 927      BINDING AFFINITY PREDICTED BY RF-SCORE:    0.00 PKD
ROOT
HETATM    1  C   UNL     1     -11.639  11.029  68.088  1.00  0.00    -0.345 C  
HETATM    2  C   UNL     1     -10.836  10.974  66.794  1.00  0.00    -0.251 C  
HETATM    3  S   UNL     1      -9.579  12.302  66.777  1.00  0.00    -0.223 SA 
HETATM    4  H   UNL     1      -8.846  12.252  65.597  1.00  0.00     0.000 H  
ENDROOT
BRANCH   2   5
HETATM    5  C   UNL     1     -10.158   9.614  66.597  1.00  0.00    -0.239 C  
HETATM    6  O   UNL     1     -10.586   8.565  67.066  1.00  0.00    -0.306 OA 
HETATM    7  N   UNL     1      -9.073   9.638  65.735  1.00  0.00    -0.171 N  
HETATM    8  H   UNL     1      -8.856  10.487  65.212  1.00  0.00     0.000 HD 
BRANCH   7   9
HETATM    9  C   UNL     1      -8.234   8.446  65.571  1.00  0.00    -0.140 C  
HETATM   10  C   UNL     1      -6.739   8.760  65.544  1.00  0.00    -0.071 C  
HETATM   11  O   UNL     1      -5.866   7.912  65.427  1.00  0.00    -0.037 OA 
HETATM   12  O   UNL     1      -6.458  10.073  65.719  1.00  0.00    -0.085 OA 
ENDBRANCH   7   9
ENDBRANCH   2   5
TORSDOF 2
ENDMDL
MODEL      217
REMARK 921   NORMALIZED FREE ENERGY PREDICTED BY IDOCK:   -1.71 KCAL/MOL
REMARK 922        TOTAL FREE ENERGY PREDICTED BY IDOCK:   -1.99 KCAL/MOL
REMARK 923 INTER-LIGAND FREE ENERGY PREDICTED BY IDOCK:   -1.83 KCAL/MOL
REMARK 924 INTRA-LIGAND FREE ENERGY PREDICTED BY IDOCK:   -0.16 KCAL/MOL
REMARK 927      BINDING AFFINITY PREDICTED BY RF-SCORE:    0.00 PKD
ROOT
HETATM    1  C   UNL     1      -5.258  20.238  64.736  1.00  0.00    -0.197 C  
HETATM    2  C   UNL     1      -5.413  20.248  66.251  1.00  0.00    -0.167 C  
HETATM    3  S   UNL     1      -6.822  21.309  66.733  1.00  0.00     0.004 SA 
HETATM    4  H   UNL     1      -6.964  21.319  68.115  1.00  0.00     0.000 H  
ENDROOT
BRANCH   2   5
HETATM    5  C   UNL     1      -5.606  18.838  66.817  1.00  0.00    -0.150 C  
HETATM    6  O   UNL     1      -5.130  17.828  66.311  1.00  0.00    -0.143 OA 
HETATM    7  N   UNL     1      -6.272  18.798  68.033  1.00  0.00    -0.202 N  
HETATM    8  H   UNL     1      -6.489  19.667  68.523  1.00  0.00     0.000 HD 
BRANCH   7   9
HETATM    9  C   UNL     1      -6.664  17.512  68.619  1.00  0.00    -0.211 C  
HETATM   10  C   UNL     1      -8.179  17.338  68.731  1.00  0.00    -0.231 C  
HETATM   11  O   UNL     1      -8.718  16.337  69.180  1.00  0.00    -0.247 OA 
HETATM   12  O   UNL     1      -8.882  18.382  68.232  1.00  0.00    -0.290 OA 
ENDBRANCH   7   9
ENDBRANCH   2   5
TORSDOF 2
ENDMDL
MODEL      218
REMARK 921   NORMALIZED FREE ENERGY PREDICTED BY IDOCK:   -1.70 KCAL/MOL
REMARK 922        TOTAL FREE ENERGY PREDICTED BY IDOCK:   -1.99 KCAL/MOL
REMARK 923 INTER-LIGAND FREE ENERGY PREDICTED BY IDOCK:   -1.86 KCAL/MOL
REMARK 924 INTRA-LIGAND FREE ENERGY PREDICTED BY IDOCK:   -0.13 KCAL/MOL
REMARK 927      BINDING AFFINITY PREDICTED BY RF-SCORE:    0.00 PKD
ROOT
HETATM    1  C   UNL     1      -6.904   9.319  69.119  1.00  0.00    -0.050 C  
HETATM    2  C   UNL     1      -7.082  10.783  69.498  1.00  0.00    -0.132 C  
HETATM    3  S   UNL     1      -5.602  11.388  70.384  1.00  0.00    -0.151 SA 
HETATM    4  H   UNL     1      -5.764  12.724  70.730  1.00  0.00     0.000 H  
ENDROOT
BRANCH   2   5
HETATM    5  C   UNL     1      -7.351  11.664  68.274  1.00  0.00    -0.093 C  
HETATM    6  O   UNL     1      -6.840  11.479  67.175  1.00  0.00    -0.116 OA 
HETATM    7  N   UNL     1      -8.325  12.632  68.471  1.00  0.00    -0.311 N  
HETATM    8  H   UNL     1      -8.867  12.640  69.335  1.00  0.00     0.000 HD 
BRANCH   7   9
HETATM    9  C   UNL     1      -8.578  13.644  67.440  1.00  0.00    -0.209 C  
HETATM   10  C   UNL     1      -9.876  13.407  66.669  1.00  0.00    -0.278 C  
HETATM   11  O   UNL     1     -10.281  14.138  65.776  1.00  0.00    -0.305 OA 
HETATM   12  O   UNL     1     -10.577  12.333  67.105  1.00  0.00    -0.220 OA 
ENDBRANCH   7   9
ENDBRANCH   2   5
TORSDOF 2
ENDMDL
MODEL      219
REMARK 921   NORMALIZED FREE ENERGY PREDICTED BY IDOCK:   -1.68 KCAL/MOL
REMARK 922        TOTAL FREE ENERGY PREDICTED BY IDOCK:   -1.97 KCAL/MOL
REMARK 923 INTER-LIGAND FREE ENERGY PREDICTED BY IDOCK:   -1.86 KCAL/MOL
REMARK 924 INTRA-LIGAND FREE ENERGY PREDICTED BY IDOCK:   -0.11 KCAL/MOL
REMARK 927      BINDING AFFINITY PREDICTED BY RF-SCORE:    0.00 PKD
ROOT
HETATM    1  C   UNL     1     -11.276  10.354  68.061  1.00  0.00    -0.340 C  
HETATM    2  C   UNL     1     -10.582  11.701  67.903  1.00  0.00    -0.193 C  
HETATM    3  S   UNL     1     -11.414  12.963  68.933  1.00  0.00    -0.323 SA 
HETATM    4  H   UNL     1     -10.781  14.191  68.789  1.00  0.00     0.000 H  
ENDROOT
BRANCH   2   5
HETATM    5  C   UNL     1      -9.096  11.627  68.272  1.00  0.00    -0.187 C  
HETATM    6  O   UNL     1      -8.253  12.417  67.864  1.00  0.00    -0.141 OA 
HETATM    7  N   UNL     1      -8.790  10.656  69.214  1.00  0.00    -0.330 N  
HETATM    8  H   UNL     1      -9.540  10.141  69.676  1.00  0.00     0.000 HD 
BRANCH   7   9
HETATM    9  C   UNL     1      -7.391  10.367  69.547  1.00  0.00    -0.144 C  
HETATM   10  C   UNL     1      -7.169   8.931  70.022  1.00  0.00    -0.054 C  
HETATM   11  O   UNL     1      -6.079   8.479  70.339  1.00  0.00    -0.031 OA 
HETATM   12  O   UNL     1      -8.293   8.176  70.006  1.00  0.00    -0.118 OA 
ENDBRANCH   7   9
ENDBRANCH   2   5
TORSDOF 2
ENDMDL
MODEL      220
REMARK 921   NORMALIZED FREE ENERGY PREDICTED BY IDOCK:   -1.66 KCAL/MOL
REMARK 922        TOTAL FREE ENERGY PREDICTED BY IDOCK:   -1.95 KCAL/MOL
REMARK 923 INTER-LIGAND FREE ENERGY PREDICTED BY IDOCK:   -1.84 KCAL/MOL
REMARK 924 INTRA-LIGAND FREE ENERGY PREDICTED BY IDOCK:   -0.10 KCAL/MOL
REMARK 927      BINDING AFFINITY PREDICTED BY RF-SCORE:    0.00 PKD
ROOT
HETATM    1  C   UNL     1      -9.452   9.840  67.714  1.00  0.00    -0.152 C  
HETATM    2  C   UNL     1      -9.662  10.291  69.154  1.00  0.00    -0.217 C  
HETATM    3  S   UNL     1     -11.105  11.410  69.259  1.00  0.00    -0.247 SA 
HETATM    4  H   UNL     1     -11.297  11.821  70.572  1.00  0.00     0.000 H  
ENDROOT
BRANCH   2   5
HETATM    5  C   UNL     1      -9.855   9.104  70.104  1.00  0.00    -0.198 C  
HETATM    6  O   UNL     1     -10.947   8.614  70.370  1.00  0.00    -0.232 OA 
HETATM    7  N   UNL     1      -8.672   8.538  70.556  1.00  0.00    -0.143 N  
HETATM    8  H   UNL     1      -7.780   8.847  70.170  1.00  0.00     0.000 HD 
BRANCH   7   9
HETATM    9  C   UNL     1      -8.700   7.497  71.589  1.00  0.00    -0.116 C  
HETATM   10  C   UNL     1      -7.836   7.831  72.805  1.00  0.00    -0.112 C  
HETATM   11  O   UNL     1      -7.727   7.106  73.782  1.00  0.00    -0.101 OA 
HETATM   12  O   UNL     1      -7.238   9.043  72.727  1.00  0.00    -0.325 OA 
ENDBRANCH   7   9
ENDBRANCH   2   5
TORSDOF 2
ENDMDL
MODEL      221
REMARK 921   NORMALIZED FREE ENERGY PREDICTED BY IDOCK:   -1.66 KCAL/MOL
REMARK 922        TOTAL FREE ENERGY PREDICTED BY IDOCK:   -1.94 KCAL/MOL
REMARK 923 INTER-LIGAND FREE ENERGY PREDICTED BY IDOCK:   -1.80 KCAL/MOL
REMARK 924 INTRA-LIGAND FREE ENERGY PREDICTED BY IDOCK:   -0.14 KCAL/MOL
REMARK 927      BINDING AFFINITY PREDICTED BY RF-SCORE:    0.00 PKD
ROOT
HETATM    1  C   UNL     1      -6.505   5.270  73.528  1.00  0.00    -0.067 C  
HETATM    2  C   UNL     1      -7.893   5.130  72.918  1.00  0.00    -0.098 C  
HETATM    3  S   UNL     1      -9.106   4.674  74.209  1.00  0.00    -0.110 SA 
HETATM    4  H   UNL     1     -10.372   4.547  73.652  1.00  0.00     0.000 H  
ENDROOT
BRANCH   2   5
HETATM    5  C   UNL     1      -8.343   6.415  72.214  1.00  0.00    -0.107 C  
HETATM    6  O   UNL     1      -8.040   6.703  71.062  1.00  0.00    -0.116 OA 
HETATM    7  N   UNL     1      -9.231   7.186  72.948  1.00  0.00    -0.138 N  
HETATM    8  H   UNL     1      -9.612   6.829  73.825  1.00  0.00     0.000 HD 
BRANCH   7   9
HETATM    9  C   UNL     1      -9.626   8.515  72.468  1.00  0.00    -0.254 C  
HETATM   10  C   UNL     1     -11.012   8.536  71.824  1.00  0.00    -0.306 C  
HETATM   11  O   UNL     1     -11.537   9.541  71.369  1.00  0.00    -0.340 OA 
HETATM   12  O   UNL     1     -11.640   7.336  71.852  1.00  0.00    -0.262 OA 
ENDBRANCH   7   9
ENDBRANCH   2   5
TORSDOF 2
ENDMDL
MODEL      222
REMARK 921   NORMALIZED FREE ENERGY PREDICTED BY IDOCK:   -1.66 KCAL/MOL
REMARK 922        TOTAL FREE ENERGY PREDICTED BY IDOCK:   -1.94 KCAL/MOL
REMARK 923 INTER-LIGAND FREE ENERGY PREDICTED BY IDOCK:   -1.84 KCAL/MOL
REMARK 924 INTRA-LIGAND FREE ENERGY PREDICTED BY IDOCK:   -0.10 KCAL/MOL
REMARK 927      BINDING AFFINITY PREDICTED BY RF-SCORE:    0.00 PKD
ROOT
HETATM    1  C   UNL     1      -6.063   6.906  67.872  1.00  0.00    -0.033 C  
HETATM    2  C   UNL     1      -6.782   8.202  67.522  1.00  0.00    -0.062 C  
HETATM    3  S   UNL     1      -6.960   8.355  65.708  1.00  0.00    -0.068 SA 
HETATM    4  H   UNL     1      -7.616   9.537  65.389  1.00  0.00     0.000 H  
ENDROOT
BRANCH   2   5
HETATM    5  C   UNL     1      -8.159   8.293  68.188  1.00  0.00    -0.124 C  
HETATM    6  O   UNL     1      -8.483   7.641  69.175  1.00  0.00    -0.135 OA 
HETATM    7  N   UNL     1      -8.987   9.270  67.656  1.00  0.00    -0.119 N  
HETATM    8  H   UNL     1      -8.622   9.923  66.962  1.00  0.00     0.000 HD 
BRANCH   7   9
HETATM    9  C   UNL     1     -10.385   9.369  68.089  1.00  0.00    -0.211 C  
HETATM   10  C   UNL     1     -10.961  10.777  67.948  1.00  0.00    -0.289 C  
HETATM   11  O   UNL     1     -12.110  11.075  68.240  1.00  0.00    -0.604 OA 
HETATM   12  O   UNL     1     -10.093  11.666  67.410  1.00  0.00    -0.195 OA 
ENDBRANCH   7   9
ENDBRANCH   2   5
TORSDOF 2
ENDMDL
MODEL      223
REMARK 921   NORMALIZED FREE ENERGY PREDICTED BY IDOCK:   -1.66 KCAL/MOL
REMARK 922        TOTAL FREE ENERGY PREDICTED BY IDOCK:   -1.94 KCAL/MOL
REMARK 923 INTER-LIGAND FREE ENERGY PREDICTED BY IDOCK:   -1.83 KCAL/MOL
REMARK 924 INTRA-LIGAND FREE ENERGY PREDICTED BY IDOCK:   -0.10 KCAL/MOL
REMARK 927      BINDING AFFINITY PREDICTED BY RF-SCORE:    0.00 PKD
ROOT
HETATM    1  C   UNL     1      -6.501   7.644  70.179  1.00  0.00    -0.034 C  
HETATM    2  C   UNL     1      -6.998   6.511  71.066  1.00  0.00    -0.068 C  
HETATM    3  S   UNL     1      -5.944   6.368  72.554  1.00  0.00    -0.039 SA 
HETATM    4  H   UNL     1      -6.397   5.334  73.364  1.00  0.00     0.000 H  
ENDROOT
BRANCH   2   5
HETATM    5  C   UNL     1      -8.459   6.706  71.482  1.00  0.00    -0.120 C  
HETATM    6  O   UNL     1      -9.335   5.867  71.308  1.00  0.00    -0.155 OA 
HETATM    7  N   UNL     1      -8.699   7.874  72.190  1.00  0.00    -0.129 N  
HETATM    8  H   UNL     1      -7.918   8.461  72.484  1.00  0.00     0.000 HD 
BRANCH   7   9
HETATM    9  C   UNL     1     -10.073   8.269  72.518  1.00  0.00    -0.306 C  
HETATM   10  C   UNL     1     -10.676   9.247  71.510  1.00  0.00    -0.355 C  
HETATM   11  O   UNL     1     -11.812   9.693  71.589  1.00  0.00    -0.379 OA 
HETATM   12  O   UNL     1      -9.851   9.537  70.476  1.00  0.00    -0.248 OA 
ENDBRANCH   7   9
ENDBRANCH   2   5
TORSDOF 2
ENDMDL
MODEL      224
REMARK 921   NORMALIZED FREE ENERGY PREDICTED BY IDOCK:   -1.65 KCAL/MOL
REMARK 922        TOTAL FREE ENERGY PREDICTED BY IDOCK:   -1.93 KCAL/MOL
REMARK 923 INTER-LIGAND FREE ENERGY PREDICTED BY IDOCK:   -1.78 KCAL/MOL
REMARK 924 INTRA-LIGAND FREE ENERGY PREDICTED BY IDOCK:   -0.15 KCAL/MOL
REMARK 927      BINDING AFFINITY PREDICTED BY RF-SCORE:    0.00 PKD
ROOT
HETATM    1  C   UNL     1      -8.576   3.965  65.165  1.00  0.00    -0.114 C  
HETATM    2  C   UNL     1      -8.198   5.349  65.674  1.00  0.00    -0.124 C  
HETATM    3  S   UNL     1      -7.876   6.472  64.267  1.00  0.00    -0.098 SA 
HETATM    4  H   UNL     1      -7.532   7.736  64.732  1.00  0.00     0.000 H  
ENDROOT
BRANCH   2   5
HETATM    5  C   UNL     1      -9.284   5.945  66.577  1.00  0.00    -0.145 C  
HETATM    6  O   UNL     1     -10.318   5.358  66.877  1.00  0.00    -0.209 OA 
HETATM    7  N   UNL     1      -8.953   7.170  67.135  1.00  0.00    -0.123 N  
HETATM    8  H   UNL     1      -8.010   7.545  67.019  1.00  0.00     0.000 HD 
BRANCH   7   9
HETATM    9  C   UNL     1      -9.952   7.930  67.894  1.00  0.00    -0.178 C  
HETATM   10  C   UNL     1     -10.407   9.204  67.183  1.00  0.00    -0.267 C  
HETATM   11  O   UNL     1     -11.241   9.975  67.635  1.00  0.00    -0.248 OA 
HETATM   12  O   UNL     1      -9.839   9.377  65.966  1.00  0.00    -0.269 OA 
ENDBRANCH   7   9
ENDBRANCH   2   5
TORSDOF 2
ENDMDL
MODEL      225
REMARK 921   NORMALIZED FREE ENERGY PREDICTED BY IDOCK:   -1.64 KCAL/MOL
REMARK 922        TOTAL FREE ENERGY PREDICTED BY IDOCK:   -1.92 KCAL/MOL
REMARK 923 INTER-LIGAND FREE ENERGY PREDICTED BY IDOCK:   -1.79 KCAL/MOL
REMARK 924 INTRA-LIGAND FREE ENERGY PREDICTED BY IDOCK:   -0.13 KCAL/MOL
REMARK 927      BINDING AFFINITY PREDICTED BY RF-SCORE:    0.00 PKD
ROOT
HETATM    1  C   UNL     1     -10.976   6.009  70.091  1.00  0.00    -0.429 C  
HETATM    2  C   UNL     1      -9.601   6.428  70.594  1.00  0.00    -0.172 C  
HETATM    3  S   UNL     1      -8.294   5.584  69.633  1.00  0.00    -0.102 SA 
HETATM    4  H   UNL     1      -7.040   5.966  70.092  1.00  0.00     0.000 H  
ENDROOT
BRANCH   2   5
HETATM    5  C   UNL     1      -9.401   7.945  70.521  1.00  0.00    -0.162 C  
HETATM    6  O   UNL     1      -8.881   8.608  71.412  1.00  0.00    -0.177 OA 
HETATM    7  N   UNL     1      -9.750   8.509  69.303  1.00  0.00    -0.171 N  
HETATM    8  H   UNL     1     -10.002   7.907  68.518  1.00  0.00     0.000 HD 
BRANCH   7   9
HETATM    9  C   UNL     1      -9.758   9.966  69.139  1.00  0.00    -0.198 C  
HETATM   10  C   UNL     1      -8.803  10.455  68.052  1.00  0.00    -0.130 C  
HETATM   11  O   UNL     1      -8.663  11.631  67.746  1.00  0.00    -0.142 OA 
HETATM   12  O   UNL     1      -8.156   9.454  67.409  1.00  0.00    -0.109 OA 
ENDBRANCH   7   9
ENDBRANCH   2   5
TORSDOF 2
ENDMDL
MODEL      226
REMARK 921   NORMALIZED FREE ENERGY PREDICTED BY IDOCK:   -1.64 KCAL/MOL
REMARK 922        TOTAL FREE ENERGY PREDICTED BY IDOCK:   -1.92 KCAL/MOL
REMARK 923 INTER-LIGAND FREE ENERGY PREDICTED BY IDOCK:   -1.83 KCAL/MOL
REMARK 924 INTRA-LIGAND FREE ENERGY PREDICTED BY IDOCK:   -0.08 KCAL/MOL
REMARK 927      BINDING AFFINITY PREDICTED BY RF-SCORE:    0.00 PKD
ROOT
HETATM    1  C   UNL     1     -10.035  14.337  66.288  1.00  0.00    -0.319 C  
HETATM    2  C   UNL     1      -9.146  15.560  66.468  1.00  0.00    -0.302 C  
HETATM    3  S   UNL     1     -10.152  17.086  66.394  1.00  0.00    -0.326 SA 
HETATM    4  H   UNL     1      -9.340  18.203  66.558  1.00  0.00     0.000 H  
ENDROOT
BRANCH   2   5
HETATM    5  C   UNL     1      -8.367  15.515  67.786  1.00  0.00    -0.146 C  
HETATM    6  O   UNL     1      -8.345  16.434  68.597  1.00  0.00    -0.198 OA 
HETATM    7  N   UNL     1      -7.775  14.291  68.057  1.00  0.00    -0.126 N  
HETATM    8  H   UNL     1      -7.967  13.488  67.456  1.00  0.00     0.000 HD 
BRANCH   7   9
HETATM    9  C   UNL     1      -6.872  14.145  69.203  1.00  0.00    -0.113 C  
HETATM   10  C   UNL     1      -6.377  12.712  69.403  1.00  0.00    -0.112 C  
HETATM   11  O   UNL     1      -5.609  12.374  70.291  1.00  0.00    -0.125 OA 
HETATM   12  O   UNL     1      -6.827  11.849  68.461  1.00  0.00    -0.065 OA 
ENDBRANCH   7   9
ENDBRANCH   2   5
TORSDOF 2
ENDMDL
MODEL      227
REMARK 921   NORMALIZED FREE ENERGY PREDICTED BY IDOCK:   -1.61 KCAL/MOL
REMARK 922        TOTAL FREE ENERGY PREDICTED BY IDOCK:   -1.89 KCAL/MOL
REMARK 923 INTER-LIGAND FREE ENERGY PREDICTED BY IDOCK:   -1.76 KCAL/MOL
REMARK 924 INTRA-LIGAND FREE ENERGY PREDICTED BY IDOCK:   -0.13 KCAL/MOL
REMARK 927      BINDING AFFINITY PREDICTED BY RF-SCORE:    0.00 PKD
ROOT
HETATM    1  C   UNL     1      -9.874   4.122  69.956  1.00  0.00    -0.245 C  
HETATM    2  C   UNL     1      -8.485   4.729  69.811  1.00  0.00    -0.074 C  
HETATM    3  S   UNL     1      -7.516   3.793  68.574  1.00  0.00    -0.054 SA 
HETATM    4  H   UNL     1      -6.248   4.346  68.441  1.00  0.00     0.000 H  
ENDROOT
BRANCH   2   5
HETATM    5  C   UNL     1      -8.543   6.208  69.415  1.00  0.00    -0.123 C  
HETATM    6  O   UNL     1      -8.476   7.131  70.218  1.00  0.00    -0.134 OA 
HETATM    7  N   UNL     1      -8.558   6.431  68.046  1.00  0.00    -0.117 N  
HETATM    8  H   UNL     1      -8.422   5.652  67.401  1.00  0.00     0.000 HD 
BRANCH   7   9
HETATM    9  C   UNL     1      -8.767   7.785  67.522  1.00  0.00    -0.125 C  
HETATM   10  C   UNL     1     -10.138   7.974  66.873  1.00  0.00    -0.292 C  
HETATM   11  O   UNL     1     -10.520   9.027  66.383  1.00  0.00    -0.215 OA 
HETATM   12  O   UNL     1     -10.924   6.874  66.937  1.00  0.00    -0.377 OA 
ENDBRANCH   7   9
ENDBRANCH   2   5
TORSDOF 2
ENDMDL
MODEL      228
REMARK 921   NORMALIZED FREE ENERGY PREDICTED BY IDOCK:   -1.61 KCAL/MOL
REMARK 922        TOTAL FREE ENERGY PREDICTED BY IDOCK:   -1.88 KCAL/MOL
REMARK 923 INTER-LIGAND FREE ENERGY PREDICTED BY IDOCK:   -1.87 KCAL/MOL
REMARK 924 INTRA-LIGAND FREE ENERGY PREDICTED BY IDOCK:   -0.02 KCAL/MOL
REMARK 927      BINDING AFFINITY PREDICTED BY RF-SCORE:    0.00 PKD
ROOT
HETATM    1  C   UNL     1      -9.482   2.570  70.920  1.00  0.00    -0.217 C  
HETATM    2  C   UNL     1      -9.169   3.756  70.017  1.00  0.00    -0.150 C  
HETATM    3  S   UNL     1      -9.206   3.241  68.263  1.00  0.00    -0.185 SA 
HETATM    4  H   UNL     1      -8.920   4.323  67.440  1.00  0.00     0.000 H  
ENDROOT
BRANCH   2   5
HETATM    5  C   UNL     1     -10.143   4.918  70.238  1.00  0.00    -0.252 C  
HETATM    6  O   UNL     1     -10.695   5.151  71.308  1.00  0.00    -0.179 OA 
HETATM    7  N   UNL     1     -10.266   5.773  69.153  1.00  0.00    -0.201 N  
HETATM    8  H   UNL     1      -9.652   5.662  68.345  1.00  0.00     0.000 HD 
BRANCH   7   9
HETATM    9  C   UNL     1     -11.274   6.838  69.163  1.00  0.00    -0.177 C  
HETATM   10  C   UNL     1     -10.761   8.149  69.758  1.00  0.00    -0.229 C  
HETATM   11  O   UNL     1     -11.434   9.165  69.850  1.00  0.00    -0.111 OA 
HETATM   12  O   UNL     1      -9.459   8.103  70.126  1.00  0.00    -0.166 OA 
ENDBRANCH   7   9
ENDBRANCH   2   5
TORSDOF 2
ENDMDL
MODEL      229
REMARK 921   NORMALIZED FREE ENERGY PREDICTED BY IDOCK:   -1.58 KCAL/MOL
REMARK 922        TOTAL FREE ENERGY PREDICTED BY IDOCK:   -1.85 KCAL/MOL
REMARK 923 INTER-LIGAND FREE ENERGY PREDICTED BY IDOCK:   -1.75 KCAL/MOL
REMARK 924 INTRA-LIGAND FREE ENERGY PREDICTED BY IDOCK:   -0.10 KCAL/MOL
REMARK 927      BINDING AFFINITY PREDICTED BY RF-SCORE:    0.00 PKD
ROOT
HETATM    1  C   UNL     1      -7.313   6.712  68.898  1.00  0.00    -0.094 C  
HETATM    2  C   UNL     1      -8.714   7.098  69.352  1.00  0.00    -0.134 C  
HETATM    3  S   UNL     1      -9.616   7.917  67.988  1.00  0.00    -0.155 SA 
HETATM    4  H   UNL     1     -10.894   8.269  68.402  1.00  0.00     0.000 H  
ENDROOT
BRANCH   2   5
HETATM    5  C   UNL     1      -9.511   5.886  69.847  1.00  0.00    -0.150 C  
HETATM    6  O   UNL     1     -10.113   5.117  69.106  1.00  0.00    -0.193 OA 
HETATM    7  N   UNL     1      -9.401   5.650  71.209  1.00  0.00    -0.146 N  
HETATM    8  H   UNL     1      -8.743   6.193  71.769  1.00  0.00     0.000 HD 
BRANCH   7   9
HETATM    9  C   UNL     1     -10.228   4.621  71.849  1.00  0.00    -0.184 C  
HETATM   10  C   UNL     1     -11.078   5.159  72.999  1.00  0.00    -0.314 C  
HETATM   11  O   UNL     1     -11.845   4.473  73.659  1.00  0.00    -0.122 OA 
HETATM   12  O   UNL     1     -10.946   6.493  73.191  1.00  0.00    -0.258 OA 
ENDBRANCH   7   9
ENDBRANCH   2   5
TORSDOF 2
ENDMDL
MODEL      230
REMARK 921   NORMALIZED FREE ENERGY PREDICTED BY IDOCK:   -1.57 KCAL/MOL
REMARK 922        TOTAL FREE ENERGY PREDICTED BY IDOCK:   -1.84 KCAL/MOL
REMARK 923 INTER-LIGAND FREE ENERGY PREDICTED BY IDOCK:   -1.75 KCAL/MOL
REMARK 924 INTRA-LIGAND FREE ENERGY PREDICTED BY IDOCK:   -0.09 KCAL/MOL
REMARK 927      BINDING AFFINITY PREDICTED BY RF-SCORE:    0.00 PKD
ROOT
HETATM    1  C   UNL     1      -8.416   2.318  71.106  1.00  0.00    -0.088 C  
HETATM    2  C   UNL     1      -8.134   3.358  70.030  1.00  0.00    -0.045 C  
HETATM    3  S   UNL     1      -7.656   2.535  68.468  1.00  0.00    -0.047 SA 
HETATM    4  H   UNL     1      -7.399   3.484  67.486  1.00  0.00     0.000 H  
ENDROOT
BRANCH   2   5
HETATM    5  C   UNL     1      -9.339   4.272  69.787  1.00  0.00    -0.161 C  
HETATM    6  O   UNL     1      -9.959   4.318  68.730  1.00  0.00    -0.099 OA 
HETATM    7  N   UNL     1      -9.760   4.971  70.909  1.00  0.00    -0.177 N  
HETATM    8  H   UNL     1      -9.345   4.770  71.819  1.00  0.00     0.000 HD 
BRANCH   7   9
HETATM    9  C   UNL     1     -10.802   5.997  70.791  1.00  0.00    -0.292 C  
HETATM   10  C   UNL     1     -11.642   6.151  72.059  1.00  0.00    -0.310 C  
HETATM   11  O   UNL     1     -12.554   6.956  72.178  1.00  0.00    -0.243 OA 
HETATM   12  O   UNL     1     -11.246   5.344  73.072  1.00  0.00    -0.288 OA 
ENDBRANCH   7   9
ENDBRANCH   2   5
TORSDOF 2
ENDMDL
MODEL      231
REMARK 921   NORMALIZED FREE ENERGY PREDICTED BY IDOCK:   -1.57 KCAL/MOL
REMARK 922        TOTAL FREE ENERGY PREDICTED BY IDOCK:   -1.84 KCAL/MOL
REMARK 923 INTER-LIGAND FREE ENERGY PREDICTED BY IDOCK:   -1.74 KCAL/MOL
REMARK 924 INTRA-LIGAND FREE ENERGY PREDICTED BY IDOCK:   -0.10 KCAL/MOL
REMARK 927      BINDING AFFINITY PREDICTED BY RF-SCORE:    0.00 PKD
ROOT
HETATM    1  C   UNL     1      -8.298   6.775  67.131  1.00  0.00    -0.121 C  
HETATM    2  C   UNL     1      -9.642   7.478  67.272  1.00  0.00    -0.156 C  
HETATM    3  S   UNL     1     -10.909   6.301  67.867  1.00  0.00    -0.330 SA 
HETATM    4  H   UNL     1     -12.135   6.942  67.996  1.00  0.00     0.000 H  
ENDROOT
BRANCH   2   5
HETATM    5  C   UNL     1      -9.563   8.680  68.219  1.00  0.00    -0.147 C  
HETATM    6  O   UNL     1     -10.545   9.282  68.639  1.00  0.00    -0.215 OA 
HETATM    7  N   UNL     1      -8.284   8.968  68.670  1.00  0.00    -0.117 N  
HETATM    8  H   UNL     1      -7.513   8.335  68.454  1.00  0.00     0.000 HD 
BRANCH   7   9
HETATM    9  C   UNL     1      -8.034  10.180  69.457  1.00  0.00    -0.165 C  
HETATM   10  C   UNL     1      -6.764  10.099  70.303  1.00  0.00    -0.143 C  
HETATM   11  O   UNL     1      -6.366  11.002  71.024  1.00  0.00    -0.307 OA 
HETATM   12  O   UNL     1      -6.079   8.942  70.140  1.00  0.00    -0.035 OA 
ENDBRANCH   7   9
ENDBRANCH   2   5
TORSDOF 2
ENDMDL
MODEL      232
REMARK 921   NORMALIZED FREE ENERGY PREDICTED BY IDOCK:   -1.56 KCAL/MOL
REMARK 922        TOTAL FREE ENERGY PREDICTED BY IDOCK:   -1.83 KCAL/MOL
REMARK 923 INTER-LIGAND FREE ENERGY PREDICTED BY IDOCK:   -1.68 KCAL/MOL
REMARK 924 INTRA-LIGAND FREE ENERGY PREDICTED BY IDOCK:   -0.15 KCAL/MOL
REMARK 927      BINDING AFFINITY PREDICTED BY RF-SCORE:    0.00 PKD
ROOT
HETATM    1  C   UNL     1      -5.749   7.367  69.640  1.00  0.00    -0.023 C  
HETATM    2  C   UNL     1      -6.804   6.415  70.188  1.00  0.00    -0.057 C  
HETATM    3  S   UNL     1      -6.780   6.434  72.016  1.00  0.00    -0.068 SA 
HETATM    4  H   UNL     1      -7.743   5.566  72.516  1.00  0.00     0.000 H  
ENDROOT
BRANCH   2   5
HETATM    5  C   UNL     1      -8.208   6.764  69.683  1.00  0.00    -0.131 C  
HETATM    6  O   UNL     1      -8.434   7.612  68.827  1.00  0.00    -0.128 OA 
HETATM    7  N   UNL     1      -9.213   5.952  70.188  1.00  0.00    -0.151 N  
HETATM    8  H   UNL     1      -8.973   5.135  70.750  1.00  0.00     0.000 HD 
BRANCH   7   9
HETATM    9  C   UNL     1     -10.620   6.264  69.915  1.00  0.00    -0.249 C  
HETATM   10  C   UNL     1     -11.375   6.767  71.145  1.00  0.00    -0.296 C  
HETATM   11  O   UNL     1     -12.553   7.093  71.134  1.00  0.00    -0.364 OA 
HETATM   12  O   UNL     1     -10.599   6.876  72.249  1.00  0.00    -0.209 OA 
ENDBRANCH   7   9
ENDBRANCH   2   5
TORSDOF 2
ENDMDL
MODEL      233
REMARK 921   NORMALIZED FREE ENERGY PREDICTED BY IDOCK:   -1.56 KCAL/MOL
REMARK 922        TOTAL FREE ENERGY PREDICTED BY IDOCK:   -1.83 KCAL/MOL
REMARK 923 INTER-LIGAND FREE ENERGY PREDICTED BY IDOCK:   -1.72 KCAL/MOL
REMARK 924 INTRA-LIGAND FREE ENERGY PREDICTED BY IDOCK:   -0.11 KCAL/MOL
REMARK 927      BINDING AFFINITY PREDICTED BY RF-SCORE:    0.00 PKD
ROOT
HETATM    1  C   UNL     1     -10.787   8.890  70.908  1.00  0.00    -0.308 C  
HETATM    2  C   UNL     1     -11.168   7.554  71.532  1.00  0.00    -0.243 C  
HETATM    3  S   UNL     1     -12.973   7.290  71.404  1.00  0.00    -0.326 SA 
HETATM    4  H   UNL     1     -13.321   6.071  71.973  1.00  0.00     0.000 H  
ENDROOT
BRANCH   2   5
HETATM    5  C   UNL     1     -10.425   6.383  70.879  1.00  0.00    -0.228 C  
HETATM    6  O   UNL     1     -10.692   5.205  71.088  1.00  0.00    -0.181 OA 
HETATM    7  N   UNL     1      -9.490   6.761  69.927  1.00  0.00    -0.156 N  
HETATM    8  H   UNL     1      -9.423   7.738  69.639  1.00  0.00     0.000 HD 
BRANCH   7   9
HETATM    9  C   UNL     1      -8.597   5.762  69.333  1.00  0.00    -0.111 C  
HETATM   10  C   UNL     1      -7.203   5.751  69.959  1.00  0.00    -0.069 C  
HETATM   11  O   UNL     1      -6.309   4.989  69.620  1.00  0.00    -0.028 OA 
HETATM   12  O   UNL     1      -7.059   6.633  70.976  1.00  0.00    -0.069 OA 
ENDBRANCH   7   9
ENDBRANCH   2   5
TORSDOF 2
ENDMDL
MODEL      234
REMARK 921   NORMALIZED FREE ENERGY PREDICTED BY IDOCK:   -1.53 KCAL/MOL
REMARK 922        TOTAL FREE ENERGY PREDICTED BY IDOCK:   -1.79 KCAL/MOL
REMARK 923 INTER-LIGAND FREE ENERGY PREDICTED BY IDOCK:   -1.66 KCAL/MOL
REMARK 924 INTRA-LIGAND FREE ENERGY PREDICTED BY IDOCK:   -0.13 KCAL/MOL
REMARK 927      BINDING AFFINITY PREDICTED BY RF-SCORE:    0.00 PKD
ROOT
HETATM    1  C   UNL     1      -6.459   4.293  64.882  1.00  0.00    -0.035 C  
HETATM    2  C   UNL     1      -7.513   5.266  65.392  1.00  0.00    -0.077 C  
HETATM    3  S   UNL     1      -7.523   6.779  64.366  1.00  0.00    -0.107 SA 
HETATM    4  H   UNL     1      -8.486   7.667  64.831  1.00  0.00     0.000 H  
ENDROOT
BRANCH   2   5
HETATM    5  C   UNL     1      -8.911   4.639  65.408  1.00  0.00    -0.145 C  
HETATM    6  O   UNL     1      -9.538   4.397  66.433  1.00  0.00    -0.163 OA 
HETATM    7  N   UNL     1      -9.476   4.474  64.152  1.00  0.00    -0.315 N  
HETATM    8  H   UNL     1      -9.010   4.858  63.330  1.00  0.00     0.000 HD 
BRANCH   7   9
HETATM    9  C   UNL     1     -10.742   3.748  64.002  1.00  0.00    -0.242 C  
HETATM   10  C   UNL     1     -10.612   2.478  63.161  1.00  0.00    -0.199 C  
HETATM   11  O   UNL     1     -11.542   1.722  62.922  1.00  0.00    -0.288 OA 
HETATM   12  O   UNL     1      -9.348   2.232  62.745  1.00  0.00    -0.090 OA 
ENDBRANCH   7   9
ENDBRANCH   2   5
TORSDOF 2
ENDMDL
MODEL      235
REMARK 921   NORMALIZED FREE ENERGY PREDICTED BY IDOCK:   -1.49 KCAL/MOL
REMARK 922        TOTAL FREE ENERGY PREDICTED BY IDOCK:   -1.75 KCAL/MOL
REMARK 923 INTER-LIGAND FREE ENERGY PREDICTED BY IDOCK:   -1.63 KCAL/MOL
REMARK 924 INTRA-LIGAND FREE ENERGY PREDICTED BY IDOCK:   -0.12 KCAL/MOL
REMARK 927      BINDING AFFINITY PREDICTED BY RF-SCORE:    0.00 PKD
ROOT
HETATM    1  C   UNL     1     -10.161   5.803  69.933  1.00  0.00    -0.273 C  
HETATM    2  C   UNL     1      -9.147   5.146  70.860  1.00  0.00    -0.140 C  
HETATM    3  S   UNL     1      -8.324   3.754  70.006  1.00  0.00    -0.056 SA 
HETATM    4  H   UNL     1      -7.398   3.154  70.851  1.00  0.00     0.000 H  
ENDROOT
BRANCH   2   5
HETATM    5  C   UNL     1      -8.097   6.142  71.361  1.00  0.00    -0.118 C  
HETATM    6  O   UNL     1      -7.475   6.903  70.628  1.00  0.00    -0.079 OA 
HETATM    7  N   UNL     1      -7.984   6.206  72.742  1.00  0.00    -0.106 N  
HETATM    8  H   UNL     1      -8.646   5.699  73.330  1.00  0.00     0.000 HD 
BRANCH   7   9
HETATM    9  C   UNL     1      -6.916   6.999  73.359  1.00  0.00    -0.073 C  
HETATM   10  C   UNL     1      -7.407   8.329  73.931  1.00  0.00    -0.149 C  
HETATM   11  O   UNL     1      -6.684   9.135  74.497  1.00  0.00    -0.371 OA 
HETATM   12  O   UNL     1      -8.743   8.513  73.802  1.00  0.00    -0.263 OA 
ENDBRANCH   7   9
ENDBRANCH   2   5
TORSDOF 2
ENDMDL
MODEL      236
REMARK 921   NORMALIZED FREE ENERGY PREDICTED BY IDOCK:   -1.47 KCAL/MOL
REMARK 922        TOTAL FREE ENERGY PREDICTED BY IDOCK:   -1.73 KCAL/MOL
REMARK 923 INTER-LIGAND FREE ENERGY PREDICTED BY IDOCK:   -1.67 KCAL/MOL
REMARK 924 INTRA-LIGAND FREE ENERGY PREDICTED BY IDOCK:   -0.06 KCAL/MOL
REMARK 927      BINDING AFFINITY PREDICTED BY RF-SCORE:    0.00 PKD
ROOT
HETATM    1  C   UNL     1     -10.265   9.427  66.190  1.00  0.00    -0.264 C  
HETATM    2  C   UNL     1      -9.553  10.769  66.302  1.00  0.00    -0.195 C  
HETATM    3  S   UNL     1     -10.676  12.121  65.796  1.00  0.00    -0.277 SA 
HETATM    4  H   UNL     1     -10.027  13.346  65.898  1.00  0.00     0.000 H  
ENDROOT
BRANCH   2   5
HETATM    5  C   UNL     1      -9.035  11.027  67.720  1.00  0.00    -0.140 C  
HETATM    6  O   UNL     1      -9.679  10.787  68.735  1.00  0.00    -0.177 OA 
HETATM    7  N   UNL     1      -7.714  11.447  67.777  1.00  0.00    -0.110 N  
HETATM    8  H   UNL     1      -7.146  11.455  66.929  1.00  0.00     0.000 HD 
BRANCH   7   9
HETATM    9  C   UNL     1      -7.131  11.879  69.051  1.00  0.00    -0.092 C  
HETATM   10  C   UNL     1      -6.396  10.759  69.788  1.00  0.00    -0.104 C  
HETATM   11  O   UNL     1      -5.829  10.907  70.861  1.00  0.00    -0.269 OA 
HETATM   12  O   UNL     1      -6.379   9.586  69.111  1.00  0.00    -0.041 OA 
ENDBRANCH   7   9
ENDBRANCH   2   5
TORSDOF 2
ENDMDL
MODEL      237
REMARK 921   NORMALIZED FREE ENERGY PREDICTED BY IDOCK:   -1.47 KCAL/MOL
REMARK 922        TOTAL FREE ENERGY PREDICTED BY IDOCK:   -1.72 KCAL/MOL
REMARK 923 INTER-LIGAND FREE ENERGY PREDICTED BY IDOCK:   -1.63 KCAL/MOL
REMARK 924 INTRA-LIGAND FREE ENERGY PREDICTED BY IDOCK:   -0.10 KCAL/MOL
REMARK 927      BINDING AFFINITY PREDICTED BY RF-SCORE:    0.00 PKD
ROOT
HETATM    1  C   UNL     1     -10.413   5.607  67.429  1.00  0.00    -0.306 C  
HETATM    2  C   UNL     1      -9.497   6.768  67.792  1.00  0.00    -0.118 C  
HETATM    3  S   UNL     1      -7.747   6.249  67.679  1.00  0.00    -0.099 SA 
HETATM    4  H   UNL     1      -6.911   7.309  68.011  1.00  0.00     0.000 H  
ENDROOT
BRANCH   2   5
HETATM    5  C   UNL     1      -9.735   7.989  66.897  1.00  0.00    -0.225 C  
HETATM    6  O   UNL     1     -10.459   8.929  67.205  1.00  0.00    -0.266 OA 
HETATM    7  N   UNL     1      -8.965   8.010  65.744  1.00  0.00    -0.322 N  
HETATM    8  H   UNL     1      -8.234   7.311  65.607  1.00  0.00     0.000 HD 
BRANCH   7   9
HETATM    9  C   UNL     1      -9.196   9.035  64.721  1.00  0.00     0.073 C  
HETATM   10  C   UNL     1      -8.063   9.133  63.700  1.00  0.00    -0.160 C  
HETATM   11  O   UNL     1      -8.060   9.913  62.759  1.00  0.00    -0.122 OA 
HETATM   12  O   UNL     1      -7.074   8.229  63.900  1.00  0.00    -0.083 OA 
ENDBRANCH   7   9
ENDBRANCH   2   5
TORSDOF 2
ENDMDL
MODEL      238
REMARK 921   NORMALIZED FREE ENERGY PREDICTED BY IDOCK:   -1.46 KCAL/MOL
REMARK 922        TOTAL FREE ENERGY PREDICTED BY IDOCK:   -1.71 KCAL/MOL
REMARK 923 INTER-LIGAND FREE ENERGY PREDICTED BY IDOCK:   -1.61 KCAL/MOL
REMARK 924 INTRA-LIGAND FREE ENERGY PREDICTED BY IDOCK:   -0.10 KCAL/MOL
REMARK 927      BINDING AFFINITY PREDICTED BY RF-SCORE:    0.00 PKD
ROOT
HETATM    1  C   UNL     1      -8.696   5.694  65.609  1.00  0.00    -0.151 C  
HETATM    2  C   UNL     1      -8.316   7.056  66.172  1.00  0.00    -0.130 C  
HETATM    3  S   UNL     1      -8.062   8.252  64.812  1.00  0.00    -0.143 SA 
HETATM    4  H   UNL     1      -7.715   9.495  65.326  1.00  0.00     0.000 H  
ENDROOT
BRANCH   2   5
HETATM    5  C   UNL     1      -9.373   7.591  67.143  1.00  0.00    -0.142 C  
HETATM    6  O   UNL     1     -10.143   8.506  66.876  1.00  0.00    -0.239 OA 
HETATM    7  N   UNL     1      -9.478   6.872  68.325  1.00  0.00    -0.127 N  
HETATM    8  H   UNL     1      -8.956   6.002  68.439  1.00  0.00     0.000 HD 
BRANCH   7   9
HETATM    9  C   UNL     1     -10.337   7.357  69.410  1.00  0.00    -0.210 C  
HETATM   10  C   UNL     1      -9.624   7.418  70.761  1.00  0.00    -0.170 C  
HETATM   11  O   UNL     1     -10.153   7.803  71.793  1.00  0.00    -0.174 OA 
HETATM   12  O   UNL     1      -8.321   7.055  70.702  1.00  0.00    -0.124 OA 
ENDBRANCH   7   9
ENDBRANCH   2   5
TORSDOF 2
ENDMDL
MODEL      239
REMARK 921   NORMALIZED FREE ENERGY PREDICTED BY IDOCK:   -1.44 KCAL/MOL
REMARK 922        TOTAL FREE ENERGY PREDICTED BY IDOCK:   -1.70 KCAL/MOL
REMARK 923 INTER-LIGAND FREE ENERGY PREDICTED BY IDOCK:   -1.59 KCAL/MOL
REMARK 924 INTRA-LIGAND FREE ENERGY PREDICTED BY IDOCK:   -0.11 KCAL/MOL
REMARK 927      BINDING AFFINITY PREDICTED BY RF-SCORE:    0.00 PKD
ROOT
HETATM    1  C   UNL     1      -8.202   4.839  73.594  1.00  0.00    -0.106 C  
HETATM    2  C   UNL     1      -8.471   5.183  72.135  1.00  0.00    -0.125 C  
HETATM    3  S   UNL     1      -9.196   3.742  71.272  1.00  0.00    -0.140 SA 
HETATM    4  H   UNL     1      -9.441   4.056  69.940  1.00  0.00     0.000 H  
ENDROOT
BRANCH   2   5
HETATM    5  C   UNL     1      -9.398   6.394  71.993  1.00  0.00    -0.151 C  
HETATM    6  O   UNL     1     -10.483   6.491  72.554  1.00  0.00    -0.195 OA 
HETATM    7  N   UNL     1      -8.857   7.444  71.265  1.00  0.00    -0.137 N  
HETATM    8  H   UNL     1      -7.880   7.409  70.971  1.00  0.00     0.000 HD 
BRANCH   7   9
HETATM    9  C   UNL     1      -9.684   8.604  70.917  1.00  0.00    -0.204 C  
HETATM   10  C   UNL     1      -9.870   8.781  69.410  1.00  0.00    -0.186 C  
HETATM   11  O   UNL     1     -10.532   9.676  68.906  1.00  0.00    -0.203 OA 
HETATM   12  O   UNL     1      -9.275   7.812  68.674  1.00  0.00    -0.139 OA 
ENDBRANCH   7   9
ENDBRANCH   2   5
TORSDOF 2
ENDMDL
MODEL      240
REMARK 921   NORMALIZED FREE ENERGY PREDICTED BY IDOCK:   -1.44 KCAL/MOL
REMARK 922        TOTAL FREE ENERGY PREDICTED BY IDOCK:   -1.69 KCAL/MOL
REMARK 923 INTER-LIGAND FREE ENERGY PREDICTED BY IDOCK:   -1.59 KCAL/MOL
REMARK 924 INTRA-LIGAND FREE ENERGY PREDICTED BY IDOCK:   -0.10 KCAL/MOL
REMARK 927      BINDING AFFINITY PREDICTED BY RF-SCORE:    0.00 PKD
ROOT
HETATM    1  C   UNL     1      -6.182  14.105  68.100  1.00  0.00    -0.133 C  
HETATM    2  C   UNL     1      -7.335  13.758  67.168  1.00  0.00     0.167 C  
HETATM    3  S   UNL     1      -8.081  12.161  67.656  1.00  0.00    -0.171 SA 
HETATM    4  H   UNL     1      -9.133  11.844  66.806  1.00  0.00     0.000 H  
ENDROOT
BRANCH   2   5
HETATM    5  C   UNL     1      -8.409  14.850  67.153  1.00  0.00    -0.221 C  
HETATM    6  O   UNL     1      -8.359  15.846  66.441  1.00  0.00    -0.288 OA 
HETATM    7  N   UNL     1      -9.522  14.566  67.931  1.00  0.00    -0.208 N  
HETATM    8  H   UNL     1      -9.620  13.646  68.362  1.00  0.00     0.000 HD 
BRANCH   7   9
HETATM    9  C   UNL     1     -10.559  15.583  68.135  1.00  0.00    -0.266 C  
HETATM   10  C   UNL     1     -11.752  15.074  68.943  1.00  0.00    -0.328 C  
HETATM   11  O   UNL     1     -12.719  15.761  69.236  1.00  0.00     0.132 OA 
HETATM   12  O   UNL     1     -11.616  13.792  69.359  1.00  0.00    -0.274 OA 
ENDBRANCH   7   9
ENDBRANCH   2   5
TORSDOF 2
ENDMDL
MODEL      241
REMARK 921   NORMALIZED FREE ENERGY PREDICTED BY IDOCK:   -1.40 KCAL/MOL
REMARK 922        TOTAL FREE ENERGY PREDICTED BY IDOCK:   -1.65 KCAL/MOL
REMARK 923 INTER-LIGAND FREE ENERGY PREDICTED BY IDOCK:   -1.52 KCAL/MOL
REMARK 924 INTRA-LIGAND FREE ENERGY PREDICTED BY IDOCK:   -0.13 KCAL/MOL
REMARK 927      BINDING AFFINITY PREDICTED BY RF-SCORE:    0.00 PKD
ROOT
HETATM    1  C   UNL     1      -7.759   7.503  68.642  1.00  0.00    -0.119 C  
HETATM    2  C   UNL     1      -7.098   8.799  69.092  1.00  0.00    -0.063 C  
HETATM    3  S   UNL     1      -5.738   9.241  67.951  1.00  0.00    -0.037 SA 
HETATM    4  H   UNL     1      -5.135  10.424  68.361  1.00  0.00     0.000 H  
ENDROOT
BRANCH   2   5
HETATM    5  C   UNL     1      -8.100   9.955  69.177  1.00  0.00    -0.118 C  
HETATM    6  O   UNL     1      -8.989  10.025  70.018  1.00  0.00    -0.195 OA 
HETATM    7  N   UNL     1      -7.850  10.993  68.293  1.00  0.00    -0.114 N  
HETATM    8  H   UNL     1      -6.995  10.993  67.736  1.00  0.00     0.000 HD 
BRANCH   7   9
HETATM    9  C   UNL     1      -8.812  12.092  68.154  1.00  0.00    -0.187 C  
HETATM   10  C   UNL     1      -9.318  12.273  66.723  1.00  0.00    -0.218 C  
HETATM   11  O   UNL     1     -10.131  13.123  66.391  1.00  0.00    -0.267 OA 
HETATM   12  O   UNL     1      -8.822  11.361  65.854  1.00  0.00    -0.200 OA 
ENDBRANCH   7   9
ENDBRANCH   2   5
TORSDOF 2
ENDMDL
MODEL      242
REMARK 921   NORMALIZED FREE ENERGY PREDICTED BY IDOCK:   -1.39 KCAL/MOL
REMARK 922        TOTAL FREE ENERGY PREDICTED BY IDOCK:   -1.64 KCAL/MOL
REMARK 923 INTER-LIGAND FREE ENERGY PREDICTED BY IDOCK:   -1.51 KCAL/MOL
REMARK 924 INTRA-LIGAND FREE ENERGY PREDICTED BY IDOCK:   -0.13 KCAL/MOL
REMARK 927      BINDING AFFINITY PREDICTED BY RF-SCORE:    0.00 PKD
ROOT
HETATM    1  C   UNL     1      -8.328   6.379  66.618  1.00  0.00    -0.113 C  
HETATM    2  C   UNL     1      -7.967   7.857  66.564  1.00  0.00    -0.102 C  
HETATM    3  S   UNL     1      -9.161   8.759  65.512  1.00  0.00    -0.117 SA 
HETATM    4  H   UNL     1      -8.832  10.108  65.463  1.00  0.00     0.000 H  
ENDROOT
BRANCH   2   5
HETATM    5  C   UNL     1      -7.925   8.489  67.960  1.00  0.00    -0.111 C  
HETATM    6  O   UNL     1      -7.241   9.465  68.246  1.00  0.00    -0.075 OA 
HETATM    7  N   UNL     1      -8.824   7.939  68.862  1.00  0.00    -0.141 N  
HETATM    8  H   UNL     1      -9.512   7.256  68.543  1.00  0.00     0.000 HD 
BRANCH   7   9
HETATM    9  C   UNL     1      -8.789   8.336  70.273  1.00  0.00    -0.141 C  
HETATM   10  C   UNL     1     -10.108   8.931  70.764  1.00  0.00    -0.226 C  
HETATM   11  O   UNL     1     -10.297   9.316  71.909  1.00  0.00    -0.286 OA 
HETATM   12  O   UNL     1     -11.080   8.944  69.821  1.00  0.00    -0.200 OA 
ENDBRANCH   7   9
ENDBRANCH   2   5
TORSDOF 2
ENDMDL
MODEL      243
REMARK 921   NORMALIZED FREE ENERGY PREDICTED BY IDOCK:   -1.36 KCAL/MOL
REMARK 922        TOTAL FREE ENERGY PREDICTED BY IDOCK:   -1.60 KCAL/MOL
REMARK 923 INTER-LIGAND FREE ENERGY PREDICTED BY IDOCK:   -1.48 KCAL/MOL
REMARK 924 INTRA-LIGAND FREE ENERGY PREDICTED BY IDOCK:   -0.12 KCAL/MOL
REMARK 927      BINDING AFFINITY PREDICTED BY RF-SCORE:    0.00 PKD
ROOT
HETATM    1  C   UNL     1      -8.697   3.082  65.547  1.00  0.00    -0.123 C  
HETATM    2  C   UNL     1      -9.513   3.475  66.771  1.00  0.00    -0.165 C  
HETATM    3  S   UNL     1      -8.617   3.019  68.299  1.00  0.00    -0.101 SA 
HETATM    4  H   UNL     1      -9.361   3.378  69.416  1.00  0.00     0.000 H  
ENDROOT
BRANCH   2   5
HETATM    5  C   UNL     1      -9.838   4.973  66.787  1.00  0.00    -0.192 C  
HETATM    6  O   UNL     1     -10.880   5.449  66.353  1.00  0.00    -0.284 OA 
HETATM    7  N   UNL     1      -8.900   5.752  67.448  1.00  0.00    -0.107 N  
HETATM    8  H   UNL     1      -8.139   5.307  67.963  1.00  0.00     0.000 HD 
BRANCH   7   9
HETATM    9  C   UNL     1      -8.999   7.215  67.411  1.00  0.00    -0.122 C  
HETATM   10  C   UNL     1      -8.720   7.872  68.762  1.00  0.00    -0.128 C  
HETATM   11  O   UNL     1      -8.738   9.080  68.949  1.00  0.00    -0.133 OA 
HETATM   12  O   UNL     1      -8.390   6.990  69.736  1.00  0.00    -0.129 OA 
ENDBRANCH   7   9
ENDBRANCH   2   5
TORSDOF 2
ENDMDL
MODEL      244
REMARK 921   NORMALIZED FREE ENERGY PREDICTED BY IDOCK:   -1.35 KCAL/MOL
REMARK 922        TOTAL FREE ENERGY PREDICTED BY IDOCK:   -1.60 KCAL/MOL
REMARK 923 INTER-LIGAND FREE ENERGY PREDICTED BY IDOCK:   -1.45 KCAL/MOL
REMARK 924 INTRA-LIGAND FREE ENERGY PREDICTED BY IDOCK:   -0.15 KCAL/MOL
REMARK 927      BINDING AFFINITY PREDICTED BY RF-SCORE:    0.00 PKD
ROOT
HETATM    1  C   UNL     1      -8.589   3.176  65.635  1.00  0.00    -0.113 C  
HETATM    2  C   UNL     1      -9.635   3.544  66.678  1.00  0.00    -0.106 C  
HETATM    3  S   UNL     1      -9.281   2.688  68.254  1.00  0.00    -0.205 SA 
HETATM    4  H   UNL     1     -10.236   3.024  69.207  1.00  0.00     0.000 H  
ENDROOT
BRANCH   2   5
HETATM    5  C   UNL     1      -9.704   5.057  66.912  1.00  0.00    -0.168 C  
HETATM    6  O   UNL     1     -10.693   5.635  67.349  1.00  0.00    -0.248 OA 
HETATM    7  N   UNL     1      -8.504   5.721  66.704  1.00  0.00    -0.113 N  
HETATM    8  H   UNL     1      -7.652   5.189  66.525  1.00  0.00     0.000 HD 
BRANCH   7   9
HETATM    9  C   UNL     1      -8.456   7.187  66.741  1.00  0.00    -0.121 C  
HETATM   10  C   UNL     1      -8.213   7.816  65.369  1.00  0.00    -0.139 C  
HETATM   11  O   UNL     1      -8.149   9.021  65.174  1.00  0.00    -0.116 OA 
HETATM   12  O   UNL     1      -8.130   6.911  64.365  1.00  0.00    -0.120 OA 
ENDBRANCH   7   9
ENDBRANCH   2   5
TORSDOF 2
ENDMDL
MODEL      245
REMARK 921   NORMALIZED FREE ENERGY PREDICTED BY IDOCK:   -1.34 KCAL/MOL
REMARK 922        TOTAL FREE ENERGY PREDICTED BY IDOCK:   -1.58 KCAL/MOL
REMARK 923 INTER-LIGAND FREE ENERGY PREDICTED BY IDOCK:   -1.50 KCAL/MOL
REMARK 924 INTRA-LIGAND FREE ENERGY PREDICTED BY IDOCK:   -0.09 KCAL/MOL
REMARK 927      BINDING AFFINITY PREDICTED BY RF-SCORE:    0.00 PKD
ROOT
HETATM    1  C   UNL     1      -7.809  15.524  66.893  1.00  0.00    -0.229 C  
HETATM    2  C   UNL     1      -8.842  14.799  67.746  1.00  0.00    -0.175 C  
HETATM    3  S   UNL     1     -10.530  15.218  67.181  1.00  0.00    -0.285 SA 
HETATM    4  H   UNL     1     -11.473  14.557  67.958  1.00  0.00     0.000 H  
ENDROOT
BRANCH   2   5
HETATM    5  C   UNL     1      -8.647  13.280  67.716  1.00  0.00    -0.184 C  
HETATM    6  O   UNL     1      -7.972  12.696  66.877  1.00  0.00    -0.101 OA 
HETATM    7  N   UNL     1      -9.202  12.613  68.798  1.00  0.00    -0.400 N  
HETATM    8  H   UNL     1      -9.594  13.143  69.577  1.00  0.00     0.000 HD 
BRANCH   7   9
HETATM    9  C   UNL     1      -9.228  11.146  68.827  1.00  0.00    -0.145 C  
HETATM   10  C   UNL     1      -8.070  10.539  69.619  1.00  0.00    -0.043 C  
HETATM   11  O   UNL     1      -7.910   9.338  69.777  1.00  0.00    -0.081 OA 
HETATM   12  O   UNL     1      -7.258  11.463  70.185  1.00  0.00     0.148 OA 
ENDBRANCH   7   9
ENDBRANCH   2   5
TORSDOF 2
ENDMDL
MODEL      246
REMARK 921   NORMALIZED FREE ENERGY PREDICTED BY IDOCK:   -1.33 KCAL/MOL
REMARK 922        TOTAL FREE ENERGY PREDICTED BY IDOCK:   -1.58 KCAL/MOL
REMARK 923 INTER-LIGAND FREE ENERGY PREDICTED BY IDOCK:   -1.44 KCAL/MOL
REMARK 924 INTRA-LIGAND FREE ENERGY PREDICTED BY IDOCK:   -0.13 KCAL/MOL
REMARK 927      BINDING AFFINITY PREDICTED BY RF-SCORE:    0.00 PKD
ROOT
HETATM    1  C   UNL     1      -8.466   2.831  65.119  1.00  0.00    -0.097 C  
HETATM    2  C   UNL     1      -7.982   4.221  65.511  1.00  0.00    -0.094 C  
HETATM    3  S   UNL     1      -7.144   5.018  64.095  1.00  0.00    -0.050 SA 
HETATM    4  H   UNL     1      -6.703   6.286  64.452  1.00  0.00     0.000 H  
ENDROOT
BRANCH   2   5
HETATM    5  C   UNL     1      -9.129   5.110  66.004  1.00  0.00    -0.149 C  
HETATM    6  O   UNL     1     -10.309   4.781  65.969  1.00  0.00    -0.262 OA 
HETATM    7  N   UNL     1      -8.717   6.286  66.613  1.00  0.00    -0.122 N  
HETATM    8  H   UNL     1      -7.726   6.444  66.796  1.00  0.00     0.000 HD 
BRANCH   7   9
HETATM    9  C   UNL     1      -9.702   7.303  66.994  1.00  0.00    -0.181 C  
HETATM   10  C   UNL     1      -9.964   7.355  68.498  1.00  0.00    -0.165 C  
HETATM   11  O   UNL     1     -10.740   8.137  69.029  1.00  0.00    -0.185 OA 
HETATM   12  O   UNL     1      -9.209   6.484  69.209  1.00  0.00    -0.139 OA 
ENDBRANCH   7   9
ENDBRANCH   2   5
TORSDOF 2
ENDMDL
MODEL      247
REMARK 921   NORMALIZED FREE ENERGY PREDICTED BY IDOCK:   -1.33 KCAL/MOL
REMARK 922        TOTAL FREE ENERGY PREDICTED BY IDOCK:   -1.57 KCAL/MOL
REMARK 923 INTER-LIGAND FREE ENERGY PREDICTED BY IDOCK:   -1.45 KCAL/MOL
REMARK 924 INTRA-LIGAND FREE ENERGY PREDICTED BY IDOCK:   -0.12 KCAL/MOL
REMARK 927      BINDING AFFINITY PREDICTED BY RF-SCORE:    0.00 PKD
ROOT
HETATM    1  C   UNL     1      -7.721   9.161  69.070  1.00  0.00    -0.078 C  
HETATM    2  C   UNL     1      -8.365   8.232  70.090  1.00  0.00    -0.124 C  
HETATM    3  S   UNL     1     -10.080   8.768  70.434  1.00  0.00    -0.203 SA 
HETATM    4  H   UNL     1     -10.668   7.920  71.365  1.00  0.00     0.000 H  
ENDROOT
BRANCH   2   5
HETATM    5  C   UNL     1      -8.361   6.774  69.620  1.00  0.00    -0.132 C  
HETATM    6  O   UNL     1      -7.398   6.024  69.734  1.00  0.00    -0.074 OA 
HETATM    7  N   UNL     1      -9.587   6.320  69.157  1.00  0.00    -0.135 N  
HETATM    8  H   UNL     1     -10.416   6.909  69.251  1.00  0.00     0.000 HD 
BRANCH   7   9
HETATM    9  C   UNL     1      -9.697   4.997  68.534  1.00  0.00    -0.154 C  
HETATM   10  C   UNL     1      -9.814   5.056  67.011  1.00  0.00    -0.185 C  
HETATM   11  O   UNL     1      -9.904   4.069  66.296  1.00  0.00    -0.205 OA 
HETATM   12  O   UNL     1      -9.751   6.313  66.512  1.00  0.00    -0.161 OA 
ENDBRANCH   7   9
ENDBRANCH   2   5
TORSDOF 2
ENDMDL
MODEL      248
REMARK 921   NORMALIZED FREE ENERGY PREDICTED BY IDOCK:   -1.25 KCAL/MOL
REMARK 922        TOTAL FREE ENERGY PREDICTED BY IDOCK:   -1.49 KCAL/MOL
REMARK 923 INTER-LIGAND FREE ENERGY PREDICTED BY IDOCK:   -1.35 KCAL/MOL
REMARK 924 INTRA-LIGAND FREE ENERGY PREDICTED BY IDOCK:   -0.14 KCAL/MOL
REMARK 927      BINDING AFFINITY PREDICTED BY RF-SCORE:    0.00 PKD
ROOT
HETATM    1  C   UNL     1      -9.182   6.191  66.892  1.00  0.00    -0.135 C  
HETATM    2  C   UNL     1      -7.743   6.665  67.044  1.00  0.00    -0.103 C  
HETATM    3  S   UNL     1      -6.826   6.403  65.483  1.00  0.00    -0.049 SA 
HETATM    4  H   UNL     1      -5.513   6.836  65.621  1.00  0.00     0.000 H  
ENDROOT
BRANCH   2   5
HETATM    5  C   UNL     1      -7.665   8.140  67.451  1.00  0.00    -0.102 C  
HETATM    6  O   UNL     1      -6.772   8.900  67.093  1.00  0.00    -0.064 OA 
HETATM    7  N   UNL     1      -8.761   8.593  68.169  1.00  0.00    -0.141 N  
HETATM    8  H   UNL     1      -9.575   7.989  68.290  1.00  0.00     0.000 HD 
BRANCH   7   9
HETATM    9  C   UNL     1      -8.756   9.936  68.757  1.00  0.00    -0.132 C  
HETATM   10  C   UNL     1      -9.838  10.850  68.183  1.00  0.00    -0.175 C  
HETATM   11  O   UNL     1     -10.014  12.005  68.541  1.00  0.00    -0.209 OA 
HETATM   12  O   UNL     1     -10.631  10.242  67.269  1.00  0.00    -0.239 OA 
ENDBRANCH   7   9
ENDBRANCH   2   5
TORSDOF 2
ENDMDL
MODEL      249
REMARK 921   NORMALIZED FREE ENERGY PREDICTED BY IDOCK:   -1.25 KCAL/MOL
REMARK 922        TOTAL FREE ENERGY PREDICTED BY IDOCK:   -1.48 KCAL/MOL
REMARK 923 INTER-LIGAND FREE ENERGY PREDICTED BY IDOCK:   -1.34 KCAL/MOL
REMARK 924 INTRA-LIGAND FREE ENERGY PREDICTED BY IDOCK:   -0.14 KCAL/MOL
REMARK 927      BINDING AFFINITY PREDICTED BY RF-SCORE:    0.00 PKD
ROOT
HETATM    1  C   UNL     1      -6.436   2.703  74.305  1.00  0.00    -0.017 C  
HETATM    2  C   UNL     1      -7.210   3.181  73.084  1.00  0.00    -0.045 C  
HETATM    3  S   UNL     1      -7.676   1.757  72.036  1.00  0.00    -0.041 SA 
HETATM    4  H   UNL     1      -8.383   2.193  70.922  1.00  0.00     0.000 H  
ENDROOT
BRANCH   2   5
HETATM    5  C   UNL     1      -8.463   3.973  73.473  1.00  0.00    -0.088 C  
HETATM    6  O   UNL     1      -8.610   4.528  74.555  1.00  0.00    -0.102 OA 
HETATM    7  N   UNL     1      -9.387   4.118  72.448  1.00  0.00    -0.119 N  
HETATM    8  H   UNL     1      -9.153   3.807  71.504  1.00  0.00     0.000 HD 
BRANCH   7   9
HETATM    9  C   UNL     1     -10.699   4.716  72.716  1.00  0.00    -0.204 C  
HETATM   10  C   UNL     1     -10.878   6.089  72.069  1.00  0.00    -0.252 C  
HETATM   11  O   UNL     1     -11.899   6.756  72.157  1.00  0.00    -0.294 OA 
HETATM   12  O   UNL     1      -9.813   6.484  71.332  1.00  0.00    -0.176 OA 
ENDBRANCH   7   9
ENDBRANCH   2   5
TORSDOF 2
ENDMDL
MODEL      250
REMARK 921   NORMALIZED FREE ENERGY PREDICTED BY IDOCK:   -1.18 KCAL/MOL
REMARK 922        TOTAL FREE ENERGY PREDICTED BY IDOCK:   -1.41 KCAL/MOL
REMARK 923 INTER-LIGAND FREE ENERGY PREDICTED BY IDOCK:   -1.29 KCAL/MOL
REMARK 924 INTRA-LIGAND FREE ENERGY PREDICTED BY IDOCK:   -0.11 KCAL/MOL
REMARK 927      BINDING AFFINITY PREDICTED BY RF-SCORE:    0.00 PKD
ROOT
HETATM    1  C   UNL     1      -9.880   6.212  67.394  1.00  0.00    -0.151 C  
HETATM    2  C   UNL     1      -8.829   5.356  66.701  1.00  0.00    -0.115 C  
HETATM    3  S   UNL     1      -9.531   3.722  66.272  1.00  0.00    -0.156 SA 
HETATM    4  H   UNL     1      -8.572   2.941  65.639  1.00  0.00     0.000 H  
ENDROOT
BRANCH   2   5
HETATM    5  C   UNL     1      -8.278   6.032  65.441  1.00  0.00    -0.141 C  
HETATM    6  O   UNL     1      -7.337   5.594  64.789  1.00  0.00    -0.063 OA 
HETATM    7  N   UNL     1      -9.010   7.131  65.017  1.00  0.00    -0.232 N  
HETATM    8  H   UNL     1      -9.896   7.358  65.470  1.00  0.00     0.000 HD 
BRANCH   7   9
HETATM    9  C   UNL     1      -8.516   7.967  63.919  1.00  0.00     0.151 C  
HETATM   10  C   UNL     1      -8.841   9.450  64.097  1.00  0.00    -0.182 C  
HETATM   11  O   UNL     1      -8.511  10.320  63.304  1.00  0.00    -0.162 OA 
HETATM   12  O   UNL     1      -9.486   9.727  65.255  1.00  0.00    -0.241 OA 
ENDBRANCH   7   9
ENDBRANCH   2   5
TORSDOF 2
ENDMDL
MODEL      251
REMARK 921   NORMALIZED FREE ENERGY PREDICTED BY IDOCK:   -1.16 KCAL/MOL
REMARK 922        TOTAL FREE ENERGY PREDICTED BY IDOCK:   -1.38 KCAL/MOL
REMARK 923 INTER-LIGAND FREE ENERGY PREDICTED BY IDOCK:   -1.24 KCAL/MOL
REMARK 924 INTRA-LIGAND FREE ENERGY PREDICTED BY IDOCK:   -0.14 KCAL/MOL
REMARK 927      BINDING AFFINITY PREDICTED BY RF-SCORE:    0.00 PKD
ROOT
HETATM    1  C   UNL     1      -8.357   5.361  65.305  1.00  0.00    -0.142 C  
HETATM    2  C   UNL     1      -9.513   5.586  66.270  1.00  0.00    -0.157 C  
HETATM    3  S   UNL     1      -9.564   4.247  67.514  1.00  0.00    -0.152 SA 
HETATM    4  H   UNL     1     -10.620   4.451  68.395  1.00  0.00     0.000 H  
ENDROOT
BRANCH   2   5
HETATM    5  C   UNL     1      -9.419   6.944  66.972  1.00  0.00    -0.151 C  
HETATM    6  O   UNL     1      -9.790   7.143  68.123  1.00  0.00    -0.138 OA 
HETATM    7  N   UNL     1      -8.763   7.921  66.238  1.00  0.00    -0.147 N  
HETATM    8  H   UNL     1      -8.300   7.675  65.363  1.00  0.00     0.000 HD 
BRANCH   7   9
HETATM    9  C   UNL     1      -8.733   9.307  66.716  1.00  0.00    -0.127 C  
HETATM   10  C   UNL     1      -7.378   9.716  67.293  1.00  0.00    -0.087 C  
HETATM   11  O   UNL     1      -7.134  10.829  67.735  1.00  0.00    -0.083 OA 
HETATM   12  O   UNL     1      -6.441   8.741  67.218  1.00  0.00    -0.056 OA 
ENDBRANCH   7   9
ENDBRANCH   2   5
TORSDOF 2
ENDMDL
MODEL      252
REMARK 921   NORMALIZED FREE ENERGY PREDICTED BY IDOCK:   -1.14 KCAL/MOL
REMARK 922        TOTAL FREE ENERGY PREDICTED BY IDOCK:   -1.36 KCAL/MOL
REMARK 923 INTER-LIGAND FREE ENERGY PREDICTED BY IDOCK:   -1.25 KCAL/MOL
REMARK 924 INTRA-LIGAND FREE ENERGY PREDICTED BY IDOCK:   -0.10 KCAL/MOL
REMARK 927      BINDING AFFINITY PREDICTED BY RF-SCORE:    0.00 PKD
ROOT
HETATM    1  C   UNL     1      -9.340  10.551  66.716  1.00  0.00    -0.180 C  
HETATM    2  C   UNL     1      -9.516  10.781  68.211  1.00  0.00    -0.164 C  
HETATM    3  S   UNL     1     -11.157  11.513  68.547  1.00  0.00    -0.261 SA 
HETATM    4  H   UNL     1     -11.318  11.722  69.911  1.00  0.00     0.000 H  
ENDROOT
BRANCH   2   5
HETATM    5  C   UNL     1      -9.351   9.486  69.014  1.00  0.00    -0.155 C  
HETATM    6  O   UNL     1     -10.265   8.700  69.235  1.00  0.00    -0.201 OA 
HETATM    7  N   UNL     1      -8.042   9.203  69.377  1.00  0.00    -0.098 N  
HETATM    8  H   UNL     1      -7.279   9.777  69.017  1.00  0.00     0.000 HD 
BRANCH   7   9
HETATM    9  C   UNL     1      -7.752   8.082  70.277  1.00  0.00    -0.086 C  
HETATM   10  C   UNL     1      -6.676   7.140  69.738  1.00  0.00    -0.048 C  
HETATM   11  O   UNL     1      -6.277   6.150  70.334  1.00  0.00    -0.032 OA 
HETATM   12  O   UNL     1      -6.156   7.534  68.551  1.00  0.00    -0.026 OA 
ENDBRANCH   7   9
ENDBRANCH   2   5
TORSDOF 2
ENDMDL
MODEL      253
REMARK 921   NORMALIZED FREE ENERGY PREDICTED BY IDOCK:   -1.12 KCAL/MOL
REMARK 922        TOTAL FREE ENERGY PREDICTED BY IDOCK:   -1.34 KCAL/MOL
REMARK 923 INTER-LIGAND FREE ENERGY PREDICTED BY IDOCK:   -1.28 KCAL/MOL
REMARK 924 INTRA-LIGAND FREE ENERGY PREDICTED BY IDOCK:   -0.06 KCAL/MOL
REMARK 927      BINDING AFFINITY PREDICTED BY RF-SCORE:    0.00 PKD
ROOT
HETATM    1  C   UNL     1      -7.770   7.645  63.629  1.00  0.00    -0.123 C  
HETATM    2  C   UNL     1      -7.568   6.264  64.240  1.00  0.00    -0.097 C  
HETATM    3  S   UNL     1      -5.835   6.066  64.788  1.00  0.00    -0.026 SA 
HETATM    4  H   UNL     1      -5.650   4.806  65.346  1.00  0.00     0.000 H  
ENDROOT
BRANCH   2   5
HETATM    5  C   UNL     1      -8.517   6.013  65.416  1.00  0.00    -0.145 C  
HETATM    6  O   UNL     1      -8.811   6.863  66.248  1.00  0.00    -0.140 OA 
HETATM    7  N   UNL     1      -9.124   4.766  65.402  1.00  0.00    -0.151 N  
HETATM    8  H   UNL     1      -9.007   4.151  64.596  1.00  0.00     0.000 HD 
BRANCH   7   9
HETATM    9  C   UNL     1      -9.936   4.328  66.542  1.00  0.00    -0.192 C  
HETATM   10  C   UNL     1      -9.143   3.525  67.573  1.00  0.00    -0.167 C  
HETATM   11  O   UNL     1      -9.624   3.076  68.603  1.00  0.00    -0.164 OA 
HETATM   12  O   UNL     1      -7.829   3.402  67.270  1.00  0.00    -0.077 OA 
ENDBRANCH   7   9
ENDBRANCH   2   5
TORSDOF 2
ENDMDL
MODEL      254
REMARK 921   NORMALIZED FREE ENERGY PREDICTED BY IDOCK:   -1.11 KCAL/MOL
REMARK 922        TOTAL FREE ENERGY PREDICTED BY IDOCK:   -1.32 KCAL/MOL
REMARK 923 INTER-LIGAND FREE ENERGY PREDICTED BY IDOCK:   -1.24 KCAL/MOL
REMARK 924 INTRA-LIGAND FREE ENERGY PREDICTED BY IDOCK:   -0.09 KCAL/MOL
REMARK 927      BINDING AFFINITY PREDICTED BY RF-SCORE:    0.00 PKD
ROOT
HETATM    1  C   UNL     1      -6.359  15.017  70.139  1.00  0.00    -0.150 C  
HETATM    2  C   UNL     1      -7.352  14.355  69.193  1.00  0.00    -0.113 C  
HETATM    3  S   UNL     1      -8.530  15.596  68.548  1.00  0.00    -0.186 SA 
HETATM    4  H   UNL     1      -9.436  14.993  67.684  1.00  0.00     0.000 H  
ENDROOT
BRANCH   2   5
HETATM    5  C   UNL     1      -6.651  13.650  68.027  1.00  0.00    -0.136 C  
HETATM    6  O   UNL     1      -5.636  14.073  67.486  1.00  0.00    -0.342 OA 
HETATM    7  N   UNL     1      -7.189  12.414  67.702  1.00  0.00    -0.117 N  
HETATM    8  H   UNL     1      -7.913  12.003  68.292  1.00  0.00     0.000 HD 
BRANCH   7   9
HETATM    9  C   UNL     1      -6.721  11.696  66.512  1.00  0.00     0.039 C  
HETATM   10  C   UNL     1      -6.801  10.176  66.655  1.00  0.00    -0.084 C  
HETATM   11  O   UNL     1      -6.471   9.391  65.779  1.00  0.00    -0.066 OA 
HETATM   12  O   UNL     1      -7.328   9.771  67.835  1.00  0.00    -0.084 OA 
ENDBRANCH   7   9
ENDBRANCH   2   5
TORSDOF 2
ENDMDL
MODEL      255
REMARK 921   NORMALIZED FREE ENERGY PREDICTED BY IDOCK:   -1.07 KCAL/MOL
REMARK 922        TOTAL FREE ENERGY PREDICTED BY IDOCK:   -1.29 KCAL/MOL
REMARK 923 INTER-LIGAND FREE ENERGY PREDICTED BY IDOCK:   -1.17 KCAL/MOL
REMARK 924 INTRA-LIGAND FREE ENERGY PREDICTED BY IDOCK:   -0.12 KCAL/MOL
REMARK 927      BINDING AFFINITY PREDICTED BY RF-SCORE:    0.00 PKD
ROOT
HETATM    1  C   UNL     1      -8.401  10.305  63.191  1.00  0.00    -0.167 C  
HETATM    2  C   UNL     1      -7.582   9.052  63.469  1.00  0.00    -0.111 C  
HETATM    3  S   UNL     1      -5.804   9.390  63.207  1.00  0.00    -0.091 SA 
HETATM    4  H   UNL     1      -5.057   8.247  63.461  1.00  0.00     0.000 H  
ENDROOT
BRANCH   2   5
HETATM    5  C   UNL     1      -7.806   8.524  64.890  1.00  0.00    -0.119 C  
HETATM    6  O   UNL     1      -8.326   7.442  65.141  1.00  0.00    -0.135 OA 
HETATM    7  N   UNL     1      -7.261   9.319  65.887  1.00  0.00    -0.090 N  
HETATM    8  H   UNL     1      -6.671  10.114  65.638  1.00  0.00     0.000 HD 
BRANCH   7   9
HETATM    9  C   UNL     1      -7.528   9.021  67.298  1.00  0.00    -0.084 C  
HETATM   10  C   UNL     1      -8.044  10.228  68.081  1.00  0.00    -0.110 C  
HETATM   11  O   UNL     1      -8.339  10.195  69.266  1.00  0.00    -0.133 OA 
HETATM   12  O   UNL     1      -8.202  11.338  67.322  1.00  0.00    -0.130 OA 
ENDBRANCH   7   9
ENDBRANCH   2   5
TORSDOF 2
ENDMDL
MODEL      256
REMARK 921   NORMALIZED FREE ENERGY PREDICTED BY IDOCK:   -1.02 KCAL/MOL
REMARK 922        TOTAL FREE ENERGY PREDICTED BY IDOCK:   -1.22 KCAL/MOL
REMARK 923 INTER-LIGAND FREE ENERGY PREDICTED BY IDOCK:   -1.12 KCAL/MOL
REMARK 924 INTRA-LIGAND FREE ENERGY PREDICTED BY IDOCK:   -0.10 KCAL/MOL
REMARK 927      BINDING AFFINITY PREDICTED BY RF-SCORE:    0.00 PKD
ROOT
HETATM    1  C   UNL     1      -7.740   8.474  68.696  1.00  0.00    -0.103 C  
HETATM    2  C   UNL     1      -8.544   8.218  69.964  1.00  0.00    -0.128 C  
HETATM    3  S   UNL     1     -10.321   8.519  69.654  1.00  0.00    -0.219 SA 
HETATM    4  H   UNL     1     -11.055   8.286  70.811  1.00  0.00     0.000 H  
ENDROOT
BRANCH   2   5
HETATM    5  C   UNL     1      -8.343   6.795  70.494  1.00  0.00    -0.129 C  
HETATM    6  O   UNL     1      -8.937   5.815  70.058  1.00  0.00    -0.135 OA 
HETATM    7  N   UNL     1      -7.334   6.675  71.437  1.00  0.00    -0.082 N  
HETATM    8  H   UNL     1      -6.730   7.472  71.641  1.00  0.00     0.000 HD 
BRANCH   7   9
HETATM    9  C   UNL     1      -7.131   5.406  72.144  1.00  0.00    -0.086 C  
HETATM   10  C   UNL     1      -7.060   5.566  73.662  1.00  0.00    -0.086 C  
HETATM   11  O   UNL     1      -6.907   4.635  74.439  1.00  0.00    -0.064 OA 
HETATM   12  O   UNL     1      -7.240   6.841  74.081  1.00  0.00    -0.093 OA 
ENDBRANCH   7   9
ENDBRANCH   2   5
TORSDOF 2
ENDMDL
MODEL      257
REMARK 921   NORMALIZED FREE ENERGY PREDICTED BY IDOCK:   -1.01 KCAL/MOL
REMARK 922        TOTAL FREE ENERGY PREDICTED BY IDOCK:   -1.21 KCAL/MOL
REMARK 923 INTER-LIGAND FREE ENERGY PREDICTED BY IDOCK:   -1.09 KCAL/MOL
REMARK 924 INTRA-LIGAND FREE ENERGY PREDICTED BY IDOCK:   -0.13 KCAL/MOL
REMARK 927      BINDING AFFINITY PREDICTED BY RF-SCORE:    0.00 PKD
ROOT
HETATM    1  C   UNL     1      -8.606   8.876  62.717  1.00  0.00    -0.167 C  
HETATM    2  C   UNL     1      -8.011   7.565  63.213  1.00  0.00    -0.093 C  
HETATM    3  S   UNL     1      -6.318   7.353  62.554  1.00  0.00    -0.063 SA 
HETATM    4  H   UNL     1      -5.774   6.157  63.007  1.00  0.00     0.000 H  
ENDROOT
BRANCH   2   5
HETATM    5  C   UNL     1      -7.986   7.489  64.743  1.00  0.00    -0.132 C  
HETATM    6  O   UNL     1      -8.352   8.400  65.477  1.00  0.00    -0.136 OA 
HETATM    7  N   UNL     1      -7.624   6.248  65.247  1.00  0.00    -0.085 N  
HETATM    8  H   UNL     1      -7.508   5.456  64.613  1.00  0.00     0.000 HD 
BRANCH   7   9
HETATM    9  C   UNL     1      -7.408   6.071  66.686  1.00  0.00    -0.078 C  
HETATM   10  C   UNL     1      -8.577   5.385  67.391  1.00  0.00    -0.108 C  
HETATM   11  O   UNL     1      -8.598   5.131  68.587  1.00  0.00    -0.088 OA 
HETATM   12  O   UNL     1      -9.580   5.028  66.554  1.00  0.00    -0.137 OA 
ENDBRANCH   7   9
ENDBRANCH   2   5
TORSDOF 2
ENDMDL
MODEL      258
REMARK 921   NORMALIZED FREE ENERGY PREDICTED BY IDOCK:   -0.66 KCAL/MOL
REMARK 922        TOTAL FREE ENERGY PREDICTED BY IDOCK:   -0.82 KCAL/MOL
REMARK 923 INTER-LIGAND FREE ENERGY PREDICTED BY IDOCK:   -0.92 KCAL/MOL
REMARK 924 INTRA-LIGAND FREE ENERGY PREDICTED BY IDOCK:    0.10 KCAL/MOL
REMARK 927      BINDING AFFINITY PREDICTED BY RF-SCORE:    0.00 PKD
ROOT
HETATM    1  C   UNL     1      -8.848  11.156  66.166  1.00  0.00    -0.195 C  
HETATM    2  C   UNL     1      -7.382  11.079  65.761  1.00  0.00     0.084 C  
HETATM    3  S   UNL     1      -6.323  11.731  67.102  1.00  0.00    -0.148 SA 
HETATM    4  H   UNL     1      -4.985  11.660  66.733  1.00  0.00     0.000 H  
ENDROOT
BRANCH   2   5
HETATM    5  C   UNL     1      -6.957   9.649  65.413  1.00  0.00    -0.095 C  
HETATM    6  O   UNL     1      -5.909   9.138  65.789  1.00  0.00    -0.049 OA 
HETATM    7  N   UNL     1      -7.918   8.919  64.728  1.00  0.00    -0.121 N  
HETATM    8  H   UNL     1      -8.853   9.308  64.594  1.00  0.00     0.000 HD 
BRANCH   7   9
HETATM    9  C   UNL     1      -7.596   7.592  64.195  1.00  0.00    -0.109 C  
HETATM   10  C   UNL     1      -7.759   6.473  65.224  1.00  0.00    -0.102 C  
HETATM   11  O   UNL     1      -7.553   5.292  64.985  1.00  0.00    -0.078 OA 
HETATM   12  O   UNL     1      -8.212   6.905  66.425  1.00  0.00    -0.108 OA 
ENDBRANCH   7   9
ENDBRANCH   2   5
TORSDOF 2
ENDMDL
MODEL      259
REMARK 921   NORMALIZED FREE ENERGY PREDICTED BY IDOCK:   -0.64 KCAL/MOL
REMARK 922        TOTAL FREE ENERGY PREDICTED BY IDOCK:   -0.80 KCAL/MOL
REMARK 923 INTER-LIGAND FREE ENERGY PREDICTED BY IDOCK:   -0.68 KCAL/MOL
REMARK 924 INTRA-LIGAND FREE ENERGY PREDICTED BY IDOCK:   -0.12 KCAL/MOL
REMARK 927      BINDING AFFINITY PREDICTED BY RF-SCORE:    0.00 PKD
ROOT
HETATM    1  C   UNL     1      -7.249   2.045  69.876  1.00  0.00    -0.033 C  
HETATM    2  C   UNL     1      -8.556   2.723  70.265  1.00  0.00    -0.057 C  
HETATM    3  S   UNL     1      -9.532   1.628  71.357  1.00  0.00    -0.131 SA 
HETATM    4  H   UNL     1     -10.725   2.246  71.713  1.00  0.00     0.000 H  
ENDROOT
BRANCH   2   5
HETATM    5  C   UNL     1      -8.320   4.070  70.956  1.00  0.00    -0.075 C  
HETATM    6  O   UNL     1      -9.218   4.764  71.420  1.00  0.00    -0.134 OA 
HETATM    7  N   UNL     1      -6.983   4.397  71.127  1.00  0.00    -0.035 N  
HETATM    8  H   UNL     1      -6.259   3.713  70.901  1.00  0.00     0.000 HD 
BRANCH   7   9
HETATM    9  C   UNL     1      -6.606   5.721  71.632  1.00  0.00    -0.054 C  
HETATM   10  C   UNL     1      -6.280   5.726  73.125  1.00  0.00    -0.061 C  
HETATM   11  O   UNL     1      -5.933   6.722  73.743  1.00  0.00    -0.061 OA 
HETATM   12  O   UNL     1      -6.357   4.502  73.700  1.00  0.00    -0.042 OA 
ENDBRANCH   7   9
ENDBRANCH   2   5
TORSDOF 2
ENDMDL
