MODEL        1
REMARK 921   NORMALIZED FREE ENERGY PREDICTED BY IDOCK:   -7.00 KCAL/MOL
REMARK 922        TOTAL FREE ENERGY PREDICTED BY IDOCK:   -8.80 KCAL/MOL
REMARK 923 INTER-LIGAND FREE ENERGY PREDICTED BY IDOCK:   -7.81 KCAL/MOL
REMARK 924 INTRA-LIGAND FREE ENERGY PREDICTED BY IDOCK:   -0.98 KCAL/MOL
REMARK 927      BINDING AFFINITY PREDICTED BY RF-SCORE:    0.00 PKD
ROOT
HETATM    1  C   UNL     1     -10.098  18.196  68.811  1.00  0.00    -0.376 C  
HETATM    2  O   UNL     1     -10.773  16.998  68.442  1.00  0.00    -0.354 OA 
HETATM    3  C   UNL     1     -10.778  18.036  67.471  1.00  0.00    -0.336 C  
HETATM    4  C   UNL     1      -9.667  18.102  66.435  1.00  0.00    -0.327 C  
HETATM    5  C   UNL     1      -9.074  16.710  66.152  1.00  0.00    -0.318 C  
HETATM    6  C   UNL     1      -8.326  16.054  67.344  1.00  0.00    -0.167 C  
HETATM    7  C   UNL     1      -7.872  17.018  68.467  1.00  0.00    -0.251 C  
HETATM    8  N   UNL     1      -8.577  18.992  67.082  1.00  0.00    -0.276 N  
HETATM    9  C   UNL     1      -8.616  18.364  68.501  1.00  0.00    -0.319 C  
HETATM   10  C   UNL     1      -9.053  20.456  67.139  1.00  0.00    -0.362 C  
HETATM   11  C   UNL     1      -7.227  19.026  66.384  1.00  0.00    -0.236 C  
ENDROOT
BRANCH   6  12
HETATM   12  O   UNL     1      -9.147  15.045  67.975  1.00  0.00    -0.174 OA 
BRANCH  12  13
HETATM   13  C   UNL     1      -9.240  13.827  67.353  1.00  0.00    -0.221 C  
HETATM   14  C   UNL     1     -10.710  13.296  67.417  1.00  0.00    -0.258 C  
HETATM   15  C   UNL     1     -10.838  12.082  68.330  1.00  0.00    -0.233 A  
HETATM   16  O   UNL     1     -11.605  14.269  67.981  1.00  0.00    -0.295 OA 
HETATM   17  C   UNL     1     -11.163  13.034  65.984  1.00  0.00    -0.292 A  
HETATM   18  O   UNL     1      -8.293  13.310  66.774  1.00  0.00    -0.069 OA 
HETATM   19  C   UNL     1     -11.965  11.674  69.033  1.00  0.00    -0.368 A  
HETATM   20  C   UNL     1     -11.060  11.873  65.234  1.00  0.00    -0.354 A  
HETATM   21  H   UNL     1     -12.497  13.947  68.020  1.00  0.00     0.000 HD 
HETATM   22  C   UNL     1     -11.567  12.017  63.910  1.00  0.00    -0.536 A  
HETATM   23  C   UNL     1     -11.756  10.489  69.794  1.00  0.00    -0.354 A  
HETATM   24  C   UNL     1     -10.479  10.006  69.646  1.00  0.00    -0.248 A  
HETATM   25  C   UNL     1     -12.040  13.286  63.675  1.00  0.00    -0.485 A  
HETATM   26  S   UNL     1      -9.542  10.981  68.605  1.00  0.00    -0.188 SA 
HETATM   27  S   UNL     1     -11.839  14.306  65.029  1.00  0.00    -0.416 SA 
ENDBRANCH  12  13
ENDBRANCH   6  12
TORSDOF 2
ENDMDL
MODEL        2
REMARK 921   NORMALIZED FREE ENERGY PREDICTED BY IDOCK:   -6.88 KCAL/MOL
REMARK 922        TOTAL FREE ENERGY PREDICTED BY IDOCK:   -8.67 KCAL/MOL
REMARK 923 INTER-LIGAND FREE ENERGY PREDICTED BY IDOCK:   -8.19 KCAL/MOL
REMARK 924 INTRA-LIGAND FREE ENERGY PREDICTED BY IDOCK:   -0.48 KCAL/MOL
REMARK 927      BINDING AFFINITY PREDICTED BY RF-SCORE:    0.00 PKD
ROOT
HETATM    1  C   UNL     1      -8.817  19.823  68.507  1.00  0.00    -0.226 C  
HETATM    2  O   UNL     1     -10.129  19.274  68.582  1.00  0.00    -0.406 OA 
HETATM    3  C   UNL     1      -9.743  19.785  67.313  1.00  0.00    -0.370 C  
HETATM    4  C   UNL     1      -9.074  18.864  66.304  1.00  0.00    -0.261 C  
HETATM    5  C   UNL     1      -9.494  17.398  66.510  1.00  0.00    -0.288 C  
HETATM    6  C   UNL     1      -9.028  16.757  67.845  1.00  0.00    -0.219 C  
HETATM    7  C   UNL     1      -7.856  17.471  68.561  1.00  0.00    -0.274 C  
HETATM    8  N   UNL     1      -7.558  19.000  66.591  1.00  0.00    -0.234 N  
HETATM    9  C   UNL     1      -7.637  18.933  68.140  1.00  0.00    -0.277 C  
HETATM   10  C   UNL     1      -7.056  20.387  66.147  1.00  0.00    -0.233 C  
HETATM   11  C   UNL     1      -6.647  17.994  65.907  1.00  0.00    -0.284 C  
ENDROOT
BRANCH   6  12
HETATM   12  O   UNL     1     -10.116  16.699  68.795  1.00  0.00    -0.240 OA 
BRANCH  12  13
HETATM   13  C   UNL     1     -10.254  15.548  69.528  1.00  0.00    -0.279 C  
HETATM   14  C   UNL     1     -11.732  15.039  69.466  1.00  0.00    -0.322 C  
HETATM   15  C   UNL     1     -12.439  15.176  70.809  1.00  0.00    -0.372 A  
HETATM   16  O   UNL     1     -12.527  15.818  68.557  1.00  0.00    -0.366 OA 
HETATM   17  C   UNL     1     -11.699  13.609  68.934  1.00  0.00    -0.338 A  
HETATM   18  O   UNL     1      -9.305  14.994  70.068  1.00  0.00     0.038 OA 
HETATM   19  C   UNL     1     -13.802  15.337  71.029  1.00  0.00    -0.414 A  
HETATM   20  C   UNL     1     -11.601  12.418  69.638  1.00  0.00    -0.330 A  
HETATM   21  H   UNL     1     -13.424  15.509  68.519  1.00  0.00     0.000 HD 
HETATM   22  C   UNL     1     -11.566  11.272  68.792  1.00  0.00    -0.383 A  
HETATM   23  C   UNL     1     -14.143  15.429  72.408  1.00  0.00    -0.645 A  
HETATM   24  C   UNL     1     -13.036  15.322  73.216  1.00  0.00    -0.527 A  
HETATM   25  C   UNL     1     -11.632  11.611  67.462  1.00  0.00    -0.272 A  
HETATM   26  S   UNL     1     -11.602  15.121  72.314  1.00  0.00    -0.288 SA 
HETATM   27  S   UNL     1     -11.697  13.302  67.234  1.00  0.00    -0.380 SA 
ENDBRANCH  12  13
ENDBRANCH   6  12
TORSDOF 2
ENDMDL
MODEL        3
REMARK 921   NORMALIZED FREE ENERGY PREDICTED BY IDOCK:   -6.75 KCAL/MOL
REMARK 922        TOTAL FREE ENERGY PREDICTED BY IDOCK:   -8.52 KCAL/MOL
REMARK 923 INTER-LIGAND FREE ENERGY PREDICTED BY IDOCK:   -7.81 KCAL/MOL
REMARK 924 INTRA-LIGAND FREE ENERGY PREDICTED BY IDOCK:   -0.72 KCAL/MOL
REMARK 927      BINDING AFFINITY PREDICTED BY RF-SCORE:    0.00 PKD
ROOT
HETATM    1  C   UNL     1      -7.501  17.235  67.458  1.00  0.00    -0.170 C  
HETATM    2  O   UNL     1      -7.902  16.319  68.472  1.00  0.00    -0.172 OA 
HETATM    3  C   UNL     1      -8.179  17.689  68.729  1.00  0.00    -0.224 C  
HETATM    4  C   UNL     1      -9.512  18.281  68.296  1.00  0.00    -0.308 C  
HETATM    5  C   UNL     1     -10.617  17.211  68.244  1.00  0.00    -0.375 C  
HETATM    6  C   UNL     1     -10.421  16.108  67.168  1.00  0.00    -0.305 C  
HETATM    7  C   UNL     1      -9.444  16.455  66.018  1.00  0.00    -0.345 C  
HETATM    8  N   UNL     1      -9.258  18.813  66.863  1.00  0.00    -0.297 N  
HETATM    9  C   UNL     1      -8.460  17.594  66.330  1.00  0.00    -0.246 C  
HETATM   10  C   UNL     1      -8.352  20.058  66.913  1.00  0.00    -0.326 C  
HETATM   11  C   UNL     1     -10.485  19.230  66.068  1.00  0.00    -0.487 C  
ENDROOT
BRANCH   6  12
HETATM   12  O   UNL     1      -9.933  14.886  67.767  1.00  0.00    -0.220 OA 
BRANCH  12  13
HETATM   13  C   UNL     1     -10.723  13.770  67.658  1.00  0.00    -0.249 C  
HETATM   14  C   UNL     1      -9.992  12.668  66.821  1.00  0.00    -0.234 C  
HETATM   15  C   UNL     1     -10.657  12.444  65.469  1.00  0.00    -0.275 A  
HETATM   16  O   UNL     1      -8.643  13.047  66.503  1.00  0.00    -0.424 OA 
HETATM   17  C   UNL     1      -9.922  11.412  67.685  1.00  0.00    -0.179 A  
HETATM   18  O   UNL     1     -11.805  13.671  68.223  1.00  0.00    -0.338 OA 
HETATM   19  C   UNL     1     -10.057  11.987  64.302  1.00  0.00    -0.319 A  
HETATM   20  C   UNL     1     -10.826  10.364  67.777  1.00  0.00    -0.351 A  
HETATM   21  H   UNL     1      -8.199  12.379  65.996  1.00  0.00     0.000 HD 
HETATM   22  C   UNL     1     -10.437   9.374  68.724  1.00  0.00    -0.236 A  
HETATM   23  C   UNL     1     -10.961  11.881  63.207  1.00  0.00    -0.399 A  
HETATM   24  C   UNL     1     -12.237  12.245  63.562  1.00  0.00    -0.568 A  
HETATM   25  C   UNL     1      -9.249   9.688  69.340  1.00  0.00    -0.189 A  
HETATM   26  S   UNL     1     -12.337  12.718  65.199  1.00  0.00    -0.479 SA 
HETATM   27  S   UNL     1      -8.628  11.186  68.806  1.00  0.00    -0.091 SA 
ENDBRANCH  12  13
ENDBRANCH   6  12
TORSDOF 2
ENDMDL
MODEL        4
REMARK 921   NORMALIZED FREE ENERGY PREDICTED BY IDOCK:   -6.55 KCAL/MOL
REMARK 922        TOTAL FREE ENERGY PREDICTED BY IDOCK:   -8.30 KCAL/MOL
REMARK 923 INTER-LIGAND FREE ENERGY PREDICTED BY IDOCK:   -8.12 KCAL/MOL
REMARK 924 INTRA-LIGAND FREE ENERGY PREDICTED BY IDOCK:   -0.19 KCAL/MOL
REMARK 927      BINDING AFFINITY PREDICTED BY RF-SCORE:    0.00 PKD
ROOT
HETATM    1  C   UNL     1      -7.410  17.426  67.455  1.00  0.00    -0.168 C  
HETATM    2  O   UNL     1      -7.799  16.682  68.605  1.00  0.00    -0.209 OA 
HETATM    3  C   UNL     1      -7.989  18.088  68.684  1.00  0.00    -0.294 C  
HETATM    4  C   UNL     1      -9.311  18.695  68.240  1.00  0.00    -0.328 C  
HETATM    5  C   UNL     1     -10.472  17.696  68.394  1.00  0.00    -0.360 C  
HETATM    6  C   UNL     1     -10.398  16.448  67.473  1.00  0.00    -0.288 C  
HETATM    7  C   UNL     1      -9.473  16.577  66.238  1.00  0.00    -0.339 C  
HETATM    8  N   UNL     1      -9.114  19.012  66.737  1.00  0.00    -0.308 N  
HETATM    9  C   UNL     1      -8.413  17.686  66.338  1.00  0.00    -0.246 C  
HETATM   10  C   UNL     1      -8.142  20.196  66.567  1.00  0.00    -0.274 C  
HETATM   11  C   UNL     1     -10.361  19.390  65.955  1.00  0.00    -0.497 C  
ENDROOT
BRANCH   6  12
HETATM   12  O   UNL     1      -9.941  15.291  68.209  1.00  0.00    -0.217 OA 
BRANCH  12  13
HETATM   13  C   UNL     1      -9.768  14.125  67.510  1.00  0.00    -0.234 C  
HETATM   14  C   UNL     1     -11.092  13.290  67.511  1.00  0.00    -0.270 C  
HETATM   15  C   UNL     1     -10.963  12.019  68.342  1.00  0.00    -0.237 A  
HETATM   16  O   UNL     1     -12.176  14.012  68.117  1.00  0.00    -0.516 OA 
HETATM   17  C   UNL     1     -11.469  13.034  66.055  1.00  0.00    -0.335 A  
HETATM   18  O   UNL     1      -8.729  13.860  66.918  1.00  0.00    -0.219 OA 
HETATM   19  C   UNL     1     -11.981  11.336  68.996  1.00  0.00    -0.393 A  
HETATM   20  C   UNL     1     -11.116  11.973  65.235  1.00  0.00    -0.367 A  
HETATM   21  H   UNL     1     -12.980  13.505  68.118  1.00  0.00     0.000 HD 
HETATM   22  C   UNL     1     -11.635  12.093  63.913  1.00  0.00    -0.532 A  
HETATM   23  C   UNL     1     -11.529  10.174  69.683  1.00  0.00    -0.256 A  
HETATM   24  C   UNL     1     -10.177   9.985  69.530  1.00  0.00    -0.234 A  
HETATM   25  C   UNL     1     -12.366  13.245  63.750  1.00  0.00    -0.367 A  
HETATM   26  S   UNL     1      -9.463  11.203  68.572  1.00  0.00    -0.191 SA 
HETATM   27  S   UNL     1     -12.396  14.193  65.170  1.00  0.00    -0.435 SA 
ENDBRANCH  12  13
ENDBRANCH   6  12
TORSDOF 2
ENDMDL
MODEL        5
REMARK 921   NORMALIZED FREE ENERGY PREDICTED BY IDOCK:   -6.25 KCAL/MOL
REMARK 922        TOTAL FREE ENERGY PREDICTED BY IDOCK:   -7.96 KCAL/MOL
REMARK 923 INTER-LIGAND FREE ENERGY PREDICTED BY IDOCK:   -7.27 KCAL/MOL
REMARK 924 INTRA-LIGAND FREE ENERGY PREDICTED BY IDOCK:   -0.69 KCAL/MOL
REMARK 927      BINDING AFFINITY PREDICTED BY RF-SCORE:    0.00 PKD
ROOT
HETATM    1  C   UNL     1      -8.261  19.791  66.141  1.00  0.00    -0.344 C  
HETATM    2  O   UNL     1      -8.498  18.438  65.768  1.00  0.00    -0.468 OA 
HETATM    3  C   UNL     1      -7.162  18.754  66.135  1.00  0.00    -0.263 C  
HETATM    4  C   UNL     1      -6.726  18.609  67.585  1.00  0.00    -0.204 C  
HETATM    5  C   UNL     1      -7.552  17.537  68.320  1.00  0.00    -0.240 C  
HETATM    6  C   UNL     1      -9.058  17.870  68.497  1.00  0.00    -0.285 C  
HETATM    7  C   UNL     1      -9.440  19.363  68.351  1.00  0.00    -0.439 C  
HETATM    8  N   UNL     1      -7.012  19.991  68.223  1.00  0.00    -0.292 N  
HETATM    9  C   UNL     1      -8.412  20.220  67.595  1.00  0.00    -0.264 C  
HETATM   10  C   UNL     1      -6.015  21.038  67.689  1.00  0.00    -0.328 C  
HETATM   11  C   UNL     1      -6.919  20.071  69.738  1.00  0.00    -0.098 C  
ENDROOT
BRANCH   6  12
HETATM   12  O   UNL     1      -9.862  17.143  67.540  1.00  0.00    -0.255 OA 
BRANCH  12  13
HETATM   13  C   UNL     1     -10.133  15.827  67.812  1.00  0.00    -0.238 C  
HETATM   14  C   UNL     1      -9.503  14.906  66.716  1.00  0.00    -0.252 C  
HETATM   15  C   UNL     1     -10.567  14.243  65.848  1.00  0.00    -0.302 A  
HETATM   16  O   UNL     1      -8.694  15.652  65.792  1.00  0.00    -0.293 OA 
HETATM   17  C   UNL     1      -8.588  13.913  67.427  1.00  0.00    -0.200 A  
HETATM   18  O   UNL     1     -10.720  15.472  68.827  1.00  0.00    -0.233 OA 
HETATM   19  C   UNL     1     -10.432  13.819  64.531  1.00  0.00    -0.378 A  
HETATM   20  C   UNL     1      -8.887  12.656  67.931  1.00  0.00    -0.182 A  
HETATM   21  H   UNL     1      -8.311  15.093  65.126  1.00  0.00     0.000 HD 
HETATM   22  C   UNL     1      -7.774  12.030  68.564  1.00  0.00    -0.127 A  
HETATM   23  C   UNL     1     -11.617  13.231  64.005  1.00  0.00    -0.458 A  
HETATM   24  C   UNL     1     -12.629  13.205  64.934  1.00  0.00    -0.407 A  
HETATM   25  C   UNL     1      -6.652  12.823  68.536  1.00  0.00    -0.086 A  
HETATM   26  S   UNL     1     -12.152  13.891  66.421  1.00  0.00    -0.454 SA 
HETATM   27  S   UNL     1      -6.949  14.328  67.785  1.00  0.00    -0.184 SA 
ENDBRANCH  12  13
ENDBRANCH   6  12
TORSDOF 2
ENDMDL
MODEL        6
REMARK 921   NORMALIZED FREE ENERGY PREDICTED BY IDOCK:   -6.20 KCAL/MOL
REMARK 922        TOTAL FREE ENERGY PREDICTED BY IDOCK:   -7.90 KCAL/MOL
REMARK 923 INTER-LIGAND FREE ENERGY PREDICTED BY IDOCK:   -7.27 KCAL/MOL
REMARK 924 INTRA-LIGAND FREE ENERGY PREDICTED BY IDOCK:   -0.63 KCAL/MOL
REMARK 927      BINDING AFFINITY PREDICTED BY RF-SCORE:    0.00 PKD
ROOT
HETATM    1  C   UNL     1      -6.311  16.906  67.841  1.00  0.00    -0.138 C  
HETATM    2  O   UNL     1      -7.006  16.855  69.083  1.00  0.00    -0.224 OA 
HETATM    3  C   UNL     1      -6.242  18.030  68.848  1.00  0.00    -0.215 C  
HETATM    4  C   UNL     1      -6.893  19.228  68.173  1.00  0.00    -0.257 C  
HETATM    5  C   UNL     1      -8.410  19.267  68.430  1.00  0.00    -0.383 C  
HETATM    6  C   UNL     1      -9.218  18.099  67.801  1.00  0.00    -0.263 C  
HETATM    7  C   UNL     1      -8.516  17.336  66.652  1.00  0.00    -0.292 C  
HETATM    8  N   UNL     1      -6.644  19.010  66.659  1.00  0.00    -0.189 N  
HETATM    9  C   UNL     1      -6.987  17.497  66.611  1.00  0.00    -0.229 C  
HETATM   10  C   UNL     1      -5.153  19.224  66.331  1.00  0.00    -0.157 C  
HETATM   11  C   UNL     1      -7.408  19.917  65.709  1.00  0.00    -0.321 C  
ENDROOT
BRANCH   6  12
HETATM   12  O   UNL     1      -9.561  17.113  68.801  1.00  0.00    -0.266 OA 
BRANCH  12  13
HETATM   13  C   UNL     1     -10.819  16.570  68.748  1.00  0.00    -0.342 C  
HETATM   14  C   UNL     1     -10.848  15.195  69.494  1.00  0.00    -0.263 C  
HETATM   15  C   UNL     1     -11.038  14.029  68.531  1.00  0.00    -0.257 A  
HETATM   16  O   UNL     1      -9.602  14.921  70.155  1.00  0.00    -0.417 OA 
HETATM   17  C   UNL     1     -11.927  15.284  70.569  1.00  0.00    -0.344 A  
HETATM   18  O   UNL     1     -11.769  17.158  68.246  1.00  0.00     0.346 OA 
HETATM   19  C   UNL     1     -10.609  12.718  68.705  1.00  0.00    -0.256 A  
HETATM   20  C   UNL     1     -13.274  14.962  70.484  1.00  0.00    -0.232 A  
HETATM   21  H   UNL     1      -9.620  14.086  70.608  1.00  0.00     0.000 HD 
HETATM   22  C   UNL     1     -13.984  15.209  71.694  1.00  0.00    -0.618 A  
HETATM   23  C   UNL     1     -10.952  11.866  67.617  1.00  0.00    -0.286 A  
HETATM   24  C   UNL     1     -11.647  12.537  66.641  1.00  0.00    -0.380 A  
HETATM   25  C   UNL     1     -13.168  15.719  72.675  1.00  0.00    -0.502 A  
HETATM   26  S   UNL     1     -11.875  14.182  67.034  1.00  0.00    -0.441 SA 
HETATM   27  S   UNL     1     -11.565  15.934  72.128  1.00  0.00    -0.349 SA 
ENDBRANCH  12  13
ENDBRANCH   6  12
TORSDOF 2
ENDMDL
MODEL        7
REMARK 921   NORMALIZED FREE ENERGY PREDICTED BY IDOCK:   -6.16 KCAL/MOL
REMARK 922        TOTAL FREE ENERGY PREDICTED BY IDOCK:   -7.86 KCAL/MOL
REMARK 923 INTER-LIGAND FREE ENERGY PREDICTED BY IDOCK:   -6.93 KCAL/MOL
REMARK 924 INTRA-LIGAND FREE ENERGY PREDICTED BY IDOCK:   -0.94 KCAL/MOL
REMARK 927      BINDING AFFINITY PREDICTED BY RF-SCORE:    0.00 PKD
ROOT
HETATM    1  C   UNL     1     -12.268  13.342  66.818  1.00  0.00    -0.312 C  
HETATM    2  O   UNL     1     -11.994  11.965  67.056  1.00  0.00    -0.615 OA 
HETATM    3  C   UNL     1     -11.569  12.473  65.798  1.00  0.00    -0.392 C  
HETATM    4  C   UNL     1     -10.170  13.051  65.654  1.00  0.00    -0.287 C  
HETATM    5  C   UNL     1      -9.192  12.425  66.663  1.00  0.00    -0.218 C  
HETATM    6  C   UNL     1      -9.488  12.740  68.155  1.00  0.00    -0.219 C  
HETATM    7  C   UNL     1     -10.394  13.967  68.417  1.00  0.00    -0.251 C  
HETATM    8  N   UNL     1     -10.332  14.558  65.977  1.00  0.00    -0.296 N  
HETATM    9  C   UNL     1     -11.251  14.404  67.217  1.00  0.00    -0.323 C  
HETATM   10  C   UNL     1     -11.093  15.265  64.839  1.00  0.00    -0.424 C  
HETATM   11  C   UNL     1      -9.050  15.351  66.168  1.00  0.00    -0.304 C  
ENDROOT
BRANCH   6  12
HETATM   12  O   UNL     1     -10.122  11.614  68.803  1.00  0.00    -0.207 OA 
BRANCH  12  13
HETATM   13  C   UNL     1      -9.322  10.563  69.169  1.00  0.00    -0.187 C  
HETATM   14  C   UNL     1     -10.082   9.209  68.978  1.00  0.00    -0.191 C  
HETATM   15  C   UNL     1     -10.410   8.546  70.311  1.00  0.00    -0.205 A  
HETATM   16  O   UNL     1     -11.358   9.399  68.345  1.00  0.00    -0.479 OA 
HETATM   17  C   UNL     1      -9.237   8.339  68.052  1.00  0.00    -0.136 A  
HETATM   18  O   UNL     1      -8.156  10.712  69.513  1.00  0.00    -0.135 OA 
HETATM   19  C   UNL     1     -11.464   7.682  70.583  1.00  0.00    -0.276 A  
HETATM   20  C   UNL     1      -8.244   7.427  68.377  1.00  0.00    -0.125 A  
HETATM   21  H   UNL     1     -11.820   8.577  68.228  1.00  0.00     0.000 HD 
HETATM   22  C   UNL     1      -7.648   6.822  67.233  1.00  0.00    -0.104 A  
HETATM   23  C   UNL     1     -11.486   7.230  71.933  1.00  0.00    -0.302 A  
HETATM   24  C   UNL     1     -10.442   7.745  72.662  1.00  0.00    -0.302 A  
HETATM   25  C   UNL     1      -8.192   7.288  66.061  1.00  0.00    -0.138 A  
HETATM   26  S   UNL     1      -9.451   8.770  71.724  1.00  0.00    -0.270 SA 
HETATM   27  S   UNL     1      -9.388   8.475  66.336  1.00  0.00    -0.228 SA 
ENDBRANCH  12  13
ENDBRANCH   6  12
TORSDOF 2
ENDMDL
MODEL        8
REMARK 921   NORMALIZED FREE ENERGY PREDICTED BY IDOCK:   -6.11 KCAL/MOL
REMARK 922        TOTAL FREE ENERGY PREDICTED BY IDOCK:   -7.81 KCAL/MOL
REMARK 923 INTER-LIGAND FREE ENERGY PREDICTED BY IDOCK:   -6.73 KCAL/MOL
REMARK 924 INTRA-LIGAND FREE ENERGY PREDICTED BY IDOCK:   -1.08 KCAL/MOL
REMARK 927      BINDING AFFINITY PREDICTED BY RF-SCORE:    0.00 PKD
ROOT
HETATM    1  C   UNL     1      -8.666  19.494  67.302  1.00  0.00    -0.300 C  
HETATM    2  O   UNL     1      -8.871  18.802  66.074  1.00  0.00    -0.479 OA 
HETATM    3  C   UNL     1      -7.737  19.658  66.122  1.00  0.00    -0.321 C  
HETATM    4  C   UNL     1      -6.395  19.104  66.574  1.00  0.00    -0.186 C  
HETATM    5  C   UNL     1      -6.279  17.596  66.288  1.00  0.00    -0.272 C  
HETATM    6  C   UNL     1      -7.256  16.693  67.090  1.00  0.00    -0.184 C  
HETATM    7  C   UNL     1      -7.868  17.327  68.362  1.00  0.00    -0.254 C  
HETATM    8  N   UNL     1      -6.373  19.329  68.106  1.00  0.00    -0.220 N  
HETATM    9  C   UNL     1      -7.823  18.863  68.403  1.00  0.00    -0.325 C  
HETATM   10  C   UNL     1      -6.225  20.831  68.420  1.00  0.00    -0.321 C  
HETATM   11  C   UNL     1      -5.260  18.637  68.877  1.00  0.00    -0.189 C  
ENDROOT
BRANCH   6  12
HETATM   12  O   UNL     1      -8.366  16.275  66.264  1.00  0.00    -0.303 OA 
BRANCH  12  13
HETATM   13  C   UNL     1      -9.039  15.140  66.636  1.00  0.00    -0.280 C  
HETATM   14  C   UNL     1     -10.560  15.449  66.829  1.00  0.00    -0.309 C  
HETATM   15  C   UNL     1     -10.979  15.364  68.292  1.00  0.00    -0.288 A  
HETATM   16  O   UNL     1     -10.885  16.793  66.436  1.00  0.00    -0.157 OA 
HETATM   17  C   UNL     1     -11.336  14.505  65.914  1.00  0.00    -0.341 A  
HETATM   18  O   UNL     1      -8.493  14.047  66.714  1.00  0.00    -0.141 OA 
HETATM   19  C   UNL     1     -12.024  16.041  68.908  1.00  0.00    -0.129 A  
HETATM   20  C   UNL     1     -11.833  13.240  66.185  1.00  0.00    -0.437 A  
HETATM   21  H   UNL     1     -11.809  16.981  66.553  1.00  0.00     0.000 HD 
HETATM   22  C   UNL     1     -12.480  12.643  65.064  1.00  0.00    -0.556 A  
HETATM   23  C   UNL     1     -12.156  15.735  70.292  1.00  0.00    -0.371 A  
HETATM   24  C   UNL     1     -11.218  14.819  70.703  1.00  0.00    -0.131 A  
HETATM   25  C   UNL     1     -12.457  13.462  63.960  1.00  0.00    -0.241 A  
HETATM   26  S   UNL     1     -10.186  14.343  69.430  1.00  0.00     0.115 SA 
HETATM   27  S   UNL     1     -11.629  14.924  64.263  1.00  0.00    -0.102 SA 
ENDBRANCH  12  13
ENDBRANCH   6  12
TORSDOF 2
ENDMDL
MODEL        9
REMARK 921   NORMALIZED FREE ENERGY PREDICTED BY IDOCK:   -6.10 KCAL/MOL
REMARK 922        TOTAL FREE ENERGY PREDICTED BY IDOCK:   -7.80 KCAL/MOL
REMARK 923 INTER-LIGAND FREE ENERGY PREDICTED BY IDOCK:   -6.90 KCAL/MOL
REMARK 924 INTRA-LIGAND FREE ENERGY PREDICTED BY IDOCK:   -0.90 KCAL/MOL
REMARK 927      BINDING AFFINITY PREDICTED BY RF-SCORE:    0.00 PKD
ROOT
HETATM    1  C   UNL     1      -8.934   8.573  72.274  1.00  0.00    -0.229 C  
HETATM    2  O   UNL     1      -8.689   9.364  71.115  1.00  0.00    -0.284 OA 
HETATM    3  C   UNL     1      -8.574   7.958  70.942  1.00  0.00    -0.128 C  
HETATM    4  C   UNL     1      -9.792   7.150  70.519  1.00  0.00    -0.179 C  
HETATM    5  C   UNL     1     -10.783   8.003  69.709  1.00  0.00    -0.231 C  
HETATM    6  C   UNL     1     -11.457   9.161  70.494  1.00  0.00    -0.229 C  
HETATM    7  C   UNL     1     -11.421   9.038  72.037  1.00  0.00    -0.408 C  
HETATM    8  N   UNL     1     -10.462   6.725  71.849  1.00  0.00    -0.199 N  
HETATM    9  C   UNL     1     -10.344   8.087  72.583  1.00  0.00    -0.329 C  
HETATM   10  C   UNL     1      -9.601   5.664  72.562  1.00  0.00    -0.151 C  
HETATM   11  C   UNL     1     -11.853   6.121  71.744  1.00  0.00    -0.219 C  
ENDROOT
BRANCH   6  12
HETATM   12  O   UNL     1     -10.844  10.429  70.167  1.00  0.00    -0.283 OA 
BRANCH  12  13
HETATM   13  C   UNL     1     -11.295  11.079  69.048  1.00  0.00    -0.277 C  
HETATM   14  C   UNL     1     -10.114  11.819  68.337  1.00  0.00    -0.201 C  
HETATM   15  C   UNL     1     -10.245  13.334  68.444  1.00  0.00    -0.249 A  
HETATM   16  O   UNL     1      -8.850  11.520  68.952  1.00  0.00    -0.351 OA 
HETATM   17  C   UNL     1     -10.056  11.309  66.900  1.00  0.00    -0.212 A  
HETATM   18  O   UNL     1     -12.453  10.992  68.657  1.00  0.00    -0.462 OA 
HETATM   19  C   UNL     1      -9.217  14.269  68.426  1.00  0.00    -0.196 A  
HETATM   20  C   UNL     1     -10.692  11.804  65.771  1.00  0.00    -0.328 A  
HETATM   21  H   UNL     1      -8.133  11.969  68.521  1.00  0.00     0.000 HD 
HETATM   22  C   UNL     1     -10.423  11.040  64.599  1.00  0.00    -0.398 A  
HETATM   23  C   UNL     1      -9.676  15.612  68.540  1.00  0.00    -0.202 A  
HETATM   24  C   UNL     1     -11.046  15.678  68.628  1.00  0.00    -0.317 A  
HETATM   25  C   UNL     1      -9.594   9.975  64.858  1.00  0.00    -0.310 A  
HETATM   26  S   UNL     1     -11.765  14.132  68.581  1.00  0.00    -0.364 SA 
HETATM   27  S   UNL     1      -9.173   9.876  66.510  1.00  0.00    -0.161 SA 
ENDBRANCH  12  13
ENDBRANCH   6  12
TORSDOF 2
ENDMDL
MODEL       10
REMARK 921   NORMALIZED FREE ENERGY PREDICTED BY IDOCK:   -6.09 KCAL/MOL
REMARK 922        TOTAL FREE ENERGY PREDICTED BY IDOCK:   -7.79 KCAL/MOL
REMARK 923 INTER-LIGAND FREE ENERGY PREDICTED BY IDOCK:   -6.81 KCAL/MOL
REMARK 924 INTRA-LIGAND FREE ENERGY PREDICTED BY IDOCK:   -0.98 KCAL/MOL
REMARK 927      BINDING AFFINITY PREDICTED BY RF-SCORE:    0.00 PKD
ROOT
HETATM    1  C   UNL     1      -8.323   9.336  70.648  1.00  0.00    -0.207 C  
HETATM    2  O   UNL     1      -8.203  10.157  69.492  1.00  0.00    -0.148 OA 
HETATM    3  C   UNL     1      -8.124   8.756  69.267  1.00  0.00    -0.110 C  
HETATM    4  C   UNL     1      -9.390   7.970  68.964  1.00  0.00    -0.147 C  
HETATM    5  C   UNL     1     -10.458   8.853  68.296  1.00  0.00    -0.243 C  
HETATM    6  C   UNL     1     -11.026   9.993  69.185  1.00  0.00    -0.220 C  
HETATM    7  C   UNL     1     -10.816   9.826  70.709  1.00  0.00    -0.403 C  
HETATM    8  N   UNL     1      -9.909   7.511  70.349  1.00  0.00    -0.183 N  
HETATM    9  C   UNL     1      -9.694   8.851  71.102  1.00  0.00    -0.274 C  
HETATM   10  C   UNL     1      -8.984   6.424  70.929  1.00  0.00    -0.144 C  
HETATM   11  C   UNL     1     -11.310   6.922  70.387  1.00  0.00    -0.328 C  
ENDROOT
BRANCH   6  12
HETATM   12  O   UNL     1     -10.441  11.265  68.826  1.00  0.00    -0.195 OA 
BRANCH  12  13
HETATM   13  C   UNL     1     -10.944  11.903  67.721  1.00  0.00    -0.228 C  
HETATM   14  C   UNL     1      -9.781  12.516  66.873  1.00  0.00    -0.232 C  
HETATM   15  C   UNL     1      -9.786  14.040  66.917  1.00  0.00    -0.271 A  
HETATM   16  O   UNL     1      -8.492  12.142  67.385  1.00  0.00    -0.156 OA 
HETATM   17  C   UNL     1      -9.896  11.945  65.462  1.00  0.00    -0.232 A  
HETATM   18  O   UNL     1     -12.136  11.893  67.441  1.00  0.00    -0.577 OA 
HETATM   19  C   UNL     1      -8.696  14.888  66.763  1.00  0.00    -0.278 A  
HETATM   20  C   UNL     1     -10.595  12.443  64.373  1.00  0.00    -0.366 A  
HETATM   21  H   UNL     1      -7.786  12.515  66.870  1.00  0.00     0.000 HD 
HETATM   22  C   UNL     1     -10.496  11.612  63.220  1.00  0.00    -0.438 A  
HETATM   23  C   UNL     1      -9.039  16.267  66.853  1.00  0.00    -0.242 A  
HETATM   24  C   UNL     1     -10.386  16.446  67.060  1.00  0.00    -0.293 A  
HETATM   25  C   UNL     1      -9.729  10.495  63.454  1.00  0.00    -0.316 A  
HETATM   26  S   UNL     1     -11.222  14.962  67.153  1.00  0.00    -0.338 SA 
HETATM   27  S   UNL     1      -9.165  10.431  65.064  1.00  0.00    -0.236 SA 
ENDBRANCH  12  13
ENDBRANCH   6  12
TORSDOF 2
ENDMDL
MODEL       11
REMARK 921   NORMALIZED FREE ENERGY PREDICTED BY IDOCK:   -6.09 KCAL/MOL
REMARK 922        TOTAL FREE ENERGY PREDICTED BY IDOCK:   -7.78 KCAL/MOL
REMARK 923 INTER-LIGAND FREE ENERGY PREDICTED BY IDOCK:   -7.15 KCAL/MOL
REMARK 924 INTRA-LIGAND FREE ENERGY PREDICTED BY IDOCK:   -0.63 KCAL/MOL
REMARK 927      BINDING AFFINITY PREDICTED BY RF-SCORE:    0.00 PKD
ROOT
HETATM    1  C   UNL     1      -9.940   6.359  69.606  1.00  0.00    -0.164 C  
HETATM    2  O   UNL     1     -10.698   7.186  68.729  1.00  0.00    -0.212 OA 
HETATM    3  C   UNL     1     -11.436   6.520  69.745  1.00  0.00    -0.379 C  
HETATM    4  C   UNL     1     -11.654   7.202  71.086  1.00  0.00    -0.301 C  
HETATM    5  C   UNL     1     -11.634   8.735  70.952  1.00  0.00    -0.320 C  
HETATM    6  C   UNL     1     -10.270   9.345  70.530  1.00  0.00    -0.271 C  
HETATM    7  C   UNL     1      -9.033   8.440  70.746  1.00  0.00    -0.178 C  
HETATM    8  N   UNL     1     -10.451   6.757  71.954  1.00  0.00    -0.199 N  
HETATM    9  C   UNL     1      -9.345   6.941  70.881  1.00  0.00    -0.157 C  
HETATM   10  C   UNL     1     -10.586   5.267  72.323  1.00  0.00    -0.222 C  
HETATM   11  C   UNL     1     -10.257   7.490  73.272  1.00  0.00    -0.343 C  
ENDROOT
BRANCH   6  12
HETATM   12  O   UNL     1     -10.278   9.704  69.129  1.00  0.00    -0.184 OA 
BRANCH  12  13
HETATM   13  C   UNL     1      -9.956  10.997  68.806  1.00  0.00    -0.207 C  
HETATM   14  C   UNL     1     -11.215  11.749  68.262  1.00  0.00    -0.255 C  
HETATM   15  C   UNL     1     -11.093  12.062  66.775  1.00  0.00    -0.305 A  
HETATM   16  O   UNL     1     -12.403  10.948  68.368  1.00  0.00    -0.803 OA 
HETATM   17  C   UNL     1     -11.419  12.985  69.134  1.00  0.00    -0.299 A  
HETATM   18  O   UNL     1      -8.845  11.470  69.012  1.00  0.00    -0.018 OA 
HETATM   19  C   UNL     1     -12.129  12.219  65.862  1.00  0.00    -0.261 A  
HETATM   20  C   UNL     1     -10.912  14.265  68.965  1.00  0.00    -0.282 A  
HETATM   21  H   UNL     1     -13.167  11.404  68.037  1.00  0.00     0.000 HD 
HETATM   22  C   UNL     1     -11.294  15.158  70.008  1.00  0.00    -0.304 A  
HETATM   23  C   UNL     1     -11.677  12.514  64.544  1.00  0.00    -0.423 A  
HETATM   24  C   UNL     1     -10.307  12.591  64.480  1.00  0.00    -0.336 A  
HETATM   25  C   UNL     1     -12.077  14.540  70.954  1.00  0.00    -0.336 A  
HETATM   26  S   UNL     1      -9.577  12.302  65.994  1.00  0.00    -0.185 SA 
HETATM   27  S   UNL     1     -12.319  12.886  70.604  1.00  0.00    -0.207 SA 
ENDBRANCH  12  13
ENDBRANCH   6  12
TORSDOF 2
ENDMDL
MODEL       12
REMARK 921   NORMALIZED FREE ENERGY PREDICTED BY IDOCK:   -6.07 KCAL/MOL
REMARK 922        TOTAL FREE ENERGY PREDICTED BY IDOCK:   -7.76 KCAL/MOL
REMARK 923 INTER-LIGAND FREE ENERGY PREDICTED BY IDOCK:   -6.93 KCAL/MOL
REMARK 924 INTRA-LIGAND FREE ENERGY PREDICTED BY IDOCK:   -0.83 KCAL/MOL
REMARK 927      BINDING AFFINITY PREDICTED BY RF-SCORE:    0.00 PKD
ROOT
HETATM    1  C   UNL     1      -7.549  17.437  66.669  1.00  0.00    -0.256 C  
HETATM    2  O   UNL     1      -7.831  16.244  67.393  1.00  0.00    -0.141 OA 
HETATM    3  C   UNL     1      -7.629  17.411  68.177  1.00  0.00    -0.214 C  
HETATM    4  C   UNL     1      -8.818  18.288  68.541  1.00  0.00    -0.304 C  
HETATM    5  C   UNL     1     -10.126  17.477  68.589  1.00  0.00    -0.361 C  
HETATM    6  C   UNL     1     -10.594  16.896  67.227  1.00  0.00    -0.270 C  
HETATM    7  C   UNL     1      -9.988  17.560  65.967  1.00  0.00    -0.231 C  
HETATM    8  N   UNL     1      -8.909  19.323  67.392  1.00  0.00    -0.292 N  
HETATM    9  C   UNL     1      -8.687  18.340  66.212  1.00  0.00    -0.178 C  
HETATM   10  C   UNL     1      -7.735  20.318  67.481  1.00  0.00    -0.305 C  
HETATM   11  C   UNL     1     -10.167  20.176  67.347  1.00  0.00    -0.394 C  
ENDROOT
BRANCH   6  12
HETATM   12  O   UNL     1     -10.288  15.486  67.137  1.00  0.00    -0.261 OA 
BRANCH  12  13
HETATM   13  C   UNL     1     -11.225  14.604  67.612  1.00  0.00    -0.321 C  
HETATM   14  C   UNL     1     -10.634  13.768  68.795  1.00  0.00    -0.239 C  
HETATM   15  C   UNL     1     -10.435  12.305  68.415  1.00  0.00    -0.233 A  
HETATM   16  O   UNL     1      -9.324  14.226  69.169  1.00  0.00    -0.397 OA 
HETATM   17  C   UNL     1     -11.550  13.970  69.998  1.00  0.00    -0.232 A  
HETATM   18  O   UNL     1     -12.374  14.574  67.188  1.00  0.00    -0.290 OA 
HETATM   19  C   UNL     1      -9.507  11.418  68.946  1.00  0.00    -0.064 A  
HETATM   20  C   UNL     1     -12.659  13.232  70.384  1.00  0.00    -0.211 A  
HETATM   21  H   UNL     1      -8.965  13.719  69.887  1.00  0.00     0.000 HD 
HETATM   22  C   UNL     1     -13.289  13.744  71.555  1.00  0.00    -0.391 A  
HETATM   23  C   UNL     1      -9.585  10.115  68.377  1.00  0.00    -0.150 A  
HETATM   24  C   UNL     1     -10.580  10.028  67.435  1.00  0.00    -0.271 A  
HETATM   25  C   UNL     1     -12.653  14.864  72.034  1.00  0.00    -0.326 A  
HETATM   26  S   UNL     1     -11.404  11.508  67.235  1.00  0.00    -0.255 SA 
HETATM   27  S   UNL     1     -11.328  15.317  71.057  1.00  0.00    -0.344 SA 
ENDBRANCH  12  13
ENDBRANCH   6  12
TORSDOF 2
ENDMDL
MODEL       13
REMARK 921   NORMALIZED FREE ENERGY PREDICTED BY IDOCK:   -6.07 KCAL/MOL
REMARK 922        TOTAL FREE ENERGY PREDICTED BY IDOCK:   -7.76 KCAL/MOL
REMARK 923 INTER-LIGAND FREE ENERGY PREDICTED BY IDOCK:   -6.80 KCAL/MOL
REMARK 924 INTRA-LIGAND FREE ENERGY PREDICTED BY IDOCK:   -0.95 KCAL/MOL
REMARK 927      BINDING AFFINITY PREDICTED BY RF-SCORE:    0.00 PKD
ROOT
HETATM    1  C   UNL     1     -10.259   8.589  66.839  1.00  0.00    -0.305 C  
HETATM    2  O   UNL     1     -10.240   9.109  68.165  1.00  0.00    -0.188 OA 
HETATM    3  C   UNL     1      -9.251   8.133  67.868  1.00  0.00    -0.131 C  
HETATM    4  C   UNL     1      -7.894   8.573  67.339  1.00  0.00    -0.098 C  
HETATM    5  C   UNL     1      -7.536   9.994  67.811  1.00  0.00    -0.090 C  
HETATM    6  C   UNL     1      -8.448  11.124  67.261  1.00  0.00    -0.137 C  
HETATM    7  C   UNL     1      -9.268  10.771  65.995  1.00  0.00    -0.210 C  
HETATM    8  N   UNL     1      -8.057   8.580  65.799  1.00  0.00    -0.109 N  
HETATM    9  C   UNL     1      -9.448   9.266  65.742  1.00  0.00    -0.262 C  
HETATM   10  C   UNL     1      -8.157   7.136  65.270  1.00  0.00    -0.134 C  
HETATM   11  C   UNL     1      -6.938   9.232  65.002  1.00  0.00    -0.086 C  
ENDROOT
BRANCH   6  12
HETATM   12  O   UNL     1      -9.400  11.551  68.261  1.00  0.00    -0.178 OA 
BRANCH  12  13
HETATM   13  C   UNL     1      -9.719  12.883  68.302  1.00  0.00    -0.217 C  
HETATM   14  C   UNL     1     -11.240  13.087  67.997  1.00  0.00    -0.278 C  
HETATM   15  C   UNL     1     -11.465  13.768  66.651  1.00  0.00    -0.345 A  
HETATM   16  O   UNL     1     -11.935  11.834  67.890  1.00  0.00    -0.575 OA 
HETATM   17  C   UNL     1     -11.843  13.846  69.175  1.00  0.00    -0.358 A  
HETATM   18  O   UNL     1      -8.908  13.745  68.619  1.00  0.00    -0.146 OA 
HETATM   19  C   UNL     1     -12.576  13.650  65.826  1.00  0.00    -0.511 A  
HETATM   20  C   UNL     1     -11.971  15.215  69.359  1.00  0.00    -0.337 A  
HETATM   21  H   UNL     1     -12.858  11.958  67.705  1.00  0.00     0.000 HD 
HETATM   22  C   UNL     1     -12.561  15.556  70.610  1.00  0.00    -0.493 A  
HETATM   23  C   UNL     1     -12.477  14.424  64.635  1.00  0.00    -0.364 A  
HETATM   24  C   UNL     1     -11.299  15.129  64.581  1.00  0.00    -0.356 A  
HETATM   25  C   UNL     1     -12.865  14.444  71.358  1.00  0.00    -0.339 A  
HETATM   26  S   UNL     1     -10.322  14.850  65.951  1.00  0.00    -0.338 SA 
HETATM   27  S   UNL     1     -12.407  12.999  70.571  1.00  0.00    -0.216 SA 
ENDBRANCH  12  13
ENDBRANCH   6  12
TORSDOF 2
ENDMDL
MODEL       14
REMARK 921   NORMALIZED FREE ENERGY PREDICTED BY IDOCK:   -6.05 KCAL/MOL
REMARK 922        TOTAL FREE ENERGY PREDICTED BY IDOCK:   -7.73 KCAL/MOL
REMARK 923 INTER-LIGAND FREE ENERGY PREDICTED BY IDOCK:   -7.04 KCAL/MOL
REMARK 924 INTRA-LIGAND FREE ENERGY PREDICTED BY IDOCK:   -0.69 KCAL/MOL
REMARK 927      BINDING AFFINITY PREDICTED BY RF-SCORE:    0.00 PKD
ROOT
HETATM    1  C   UNL     1      -6.783  17.832  67.401  1.00  0.00    -0.164 C  
HETATM    2  O   UNL     1      -7.045  16.876  68.423  1.00  0.00    -0.172 OA 
HETATM    3  C   UNL     1      -7.250  18.237  68.780  1.00  0.00    -0.279 C  
HETATM    4  C   UNL     1      -8.619  18.868  68.582  1.00  0.00    -0.340 C  
HETATM    5  C   UNL     1      -9.743  17.819  68.653  1.00  0.00    -0.346 C  
HETATM    6  C   UNL     1      -9.737  16.765  67.512  1.00  0.00    -0.252 C  
HETATM    7  C   UNL     1      -8.940  17.152  66.243  1.00  0.00    -0.262 C  
HETATM    8  N   UNL     1      -8.575  19.464  67.153  1.00  0.00    -0.286 N  
HETATM    9  C   UNL     1      -7.894  18.259  66.451  1.00  0.00    -0.260 C  
HETATM   10  C   UNL     1      -7.644  20.691  67.118  1.00  0.00    -0.314 C  
HETATM   11  C   UNL     1      -9.898  19.936  66.574  1.00  0.00    -0.451 C  
ENDROOT
BRANCH   6  12
HETATM   12  O   UNL     1      -9.192  15.509  67.975  1.00  0.00    -0.186 OA 
BRANCH  12  13
HETATM   13  C   UNL     1     -10.038  14.431  68.020  1.00  0.00    -0.232 C  
HETATM   14  C   UNL     1      -9.529  13.301  67.066  1.00  0.00    -0.243 C  
HETATM   15  C   UNL     1     -10.448  13.114  65.864  1.00  0.00    -0.280 A  
HETATM   16  O   UNL     1      -8.249  13.619  66.497  1.00  0.00    -0.341 OA 
HETATM   17  C   UNL     1      -9.356  12.039  67.906  1.00  0.00    -0.190 A  
HETATM   18  O   UNL     1     -10.997  14.379  68.780  1.00  0.00    -0.233 OA 
HETATM   19  C   UNL     1     -10.100  12.635  64.607  1.00  0.00    -0.260 A  
HETATM   20  C   UNL     1     -10.274  11.033  68.170  1.00  0.00    -0.201 A  
HETATM   21  H   UNL     1      -7.940  12.933  65.918  1.00  0.00     0.000 HD 
HETATM   22  C   UNL     1      -9.759  10.021  69.031  1.00  0.00    -0.204 A  
HETATM   23  C   UNL     1     -11.198  12.576  63.703  1.00  0.00    -0.545 A  
HETATM   24  C   UNL     1     -12.366  12.997  64.290  1.00  0.00    -0.366 A  
HETATM   25  C   UNL     1      -8.463  10.278  69.411  1.00  0.00    -0.160 A  
HETATM   26  S   UNL     1     -12.134  13.466  65.914  1.00  0.00    -0.452 SA 
HETATM   27  S   UNL     1      -7.885  11.748  68.764  1.00  0.00    -0.023 SA 
ENDBRANCH  12  13
ENDBRANCH   6  12
TORSDOF 2
ENDMDL
MODEL       15
REMARK 921   NORMALIZED FREE ENERGY PREDICTED BY IDOCK:   -6.03 KCAL/MOL
REMARK 922        TOTAL FREE ENERGY PREDICTED BY IDOCK:   -7.72 KCAL/MOL
REMARK 923 INTER-LIGAND FREE ENERGY PREDICTED BY IDOCK:   -7.09 KCAL/MOL
REMARK 924 INTRA-LIGAND FREE ENERGY PREDICTED BY IDOCK:   -0.63 KCAL/MOL
REMARK 927      BINDING AFFINITY PREDICTED BY RF-SCORE:    0.00 PKD
ROOT
HETATM    1  C   UNL     1     -11.442   8.720  70.474  1.00  0.00    -0.196 C  
HETATM    2  O   UNL     1     -11.222  10.112  70.677  1.00  0.00    -0.305 OA 
HETATM    3  C   UNL     1     -10.415   9.238  71.454  1.00  0.00    -0.338 C  
HETATM    4  C   UNL     1      -9.067   8.783  70.917  1.00  0.00    -0.208 C  
HETATM    5  C   UNL     1      -8.466   9.814  69.946  1.00  0.00    -0.217 C  
HETATM    6  C   UNL     1      -9.256  10.017  68.624  1.00  0.00    -0.152 C  
HETATM    7  C   UNL     1     -10.235   8.879  68.244  1.00  0.00    -0.239 C  
HETATM    8  N   UNL     1      -9.373   7.478  70.141  1.00  0.00    -0.158 N  
HETATM    9  C   UNL     1     -10.651   7.969  69.411  1.00  0.00    -0.205 C  
HETATM   10  C   UNL     1      -9.729   6.346  71.125  1.00  0.00    -0.175 C  
HETATM   11  C   UNL     1      -8.254   6.928  69.271  1.00  0.00    -0.125 C  
ENDROOT
BRANCH   6  12
HETATM   12  O   UNL     1     -10.037  11.232  68.672  1.00  0.00    -0.197 OA 
BRANCH  12  13
HETATM   13  C   UNL     1      -9.722  12.221  67.777  1.00  0.00    -0.199 C  
HETATM   14  C   UNL     1     -11.026  12.876  67.210  1.00  0.00    -0.261 C  
HETATM   15  C   UNL     1     -11.237  12.543  65.738  1.00  0.00    -0.320 A  
HETATM   16  O   UNL     1     -12.202  12.376  67.867  1.00  0.00    -0.379 OA 
HETATM   17  C   UNL     1     -10.944  14.373  67.495  1.00  0.00    -0.293 A  
HETATM   18  O   UNL     1      -8.568  12.561  67.550  1.00  0.00    -0.163 OA 
HETATM   19  C   UNL     1     -12.446  12.477  65.056  1.00  0.00    -0.494 A  
HETATM   20  C   UNL     1     -10.415  15.383  66.706  1.00  0.00    -0.299 A  
HETATM   21  H   UNL     1     -12.994  12.773  67.523  1.00  0.00     0.000 HD 
HETATM   22  C   UNL     1     -10.487  16.666  67.322  1.00  0.00    -0.313 A  
HETATM   23  C   UNL     1     -12.298  12.146  63.679  1.00  0.00    -0.673 A  
HETATM   24  C   UNL     1     -10.980  11.979  63.333  1.00  0.00    -0.403 A  
HETATM   25  C   UNL     1     -11.063  16.607  68.569  1.00  0.00    -0.301 A  
HETATM   26  S   UNL     1      -9.934  12.214  64.660  1.00  0.00    -0.154 SA 
HETATM   27  S   UNL     1     -11.480  15.011  69.008  1.00  0.00    -0.323 SA 
ENDBRANCH  12  13
ENDBRANCH   6  12
TORSDOF 2
ENDMDL
MODEL       16
REMARK 921   NORMALIZED FREE ENERGY PREDICTED BY IDOCK:   -6.02 KCAL/MOL
REMARK 922        TOTAL FREE ENERGY PREDICTED BY IDOCK:   -7.70 KCAL/MOL
REMARK 923 INTER-LIGAND FREE ENERGY PREDICTED BY IDOCK:   -7.19 KCAL/MOL
REMARK 924 INTRA-LIGAND FREE ENERGY PREDICTED BY IDOCK:   -0.51 KCAL/MOL
REMARK 927      BINDING AFFINITY PREDICTED BY RF-SCORE:    0.00 PKD
ROOT
HETATM    1  C   UNL     1     -12.605   7.393  71.237  1.00  0.00    -0.340 C  
HETATM    2  O   UNL     1     -12.521   8.813  71.163  1.00  0.00    -0.280 OA 
HETATM    3  C   UNL     1     -12.067   8.228  72.376  1.00  0.00    -0.369 C  
HETATM    4  C   UNL     1     -10.605   7.835  72.520  1.00  0.00    -0.293 C  
HETATM    5  C   UNL     1      -9.695   8.701  71.630  1.00  0.00    -0.348 C  
HETATM    6  C   UNL     1      -9.899   8.520  70.101  1.00  0.00    -0.178 C  
HETATM    7  C   UNL     1     -10.615   7.218  69.667  1.00  0.00    -0.246 C  
HETATM    8  N   UNL     1     -10.542   6.367  72.028  1.00  0.00    -0.208 N  
HETATM    9  C   UNL     1     -11.436   6.534  70.771  1.00  0.00    -0.360 C  
HETATM   10  C   UNL     1     -11.229   5.437  73.047  1.00  0.00    -0.311 C  
HETATM   11  C   UNL     1      -9.155   5.785  71.810  1.00  0.00    -0.142 C  
ENDROOT
BRANCH   6  12
HETATM   12  O   UNL     1     -10.668   9.615  69.552  1.00  0.00    -0.217 OA 
BRANCH  12  13
HETATM   13  C   UNL     1      -9.973  10.651  68.983  1.00  0.00    -0.213 C  
HETATM   14  C   UNL     1     -10.914  11.493  68.060  1.00  0.00    -0.231 C  
HETATM   15  C   UNL     1     -10.557  11.337  66.586  1.00  0.00    -0.262 A  
HETATM   16  O   UNL     1     -12.280  11.056  68.150  1.00  0.00    -0.765 OA 
HETATM   17  C   UNL     1     -10.862  12.937  68.553  1.00  0.00    -0.257 A  
HETATM   18  O   UNL     1      -8.803  10.888  69.257  1.00  0.00    -0.095 OA 
HETATM   19  C   UNL     1     -11.408  11.468  65.497  1.00  0.00    -0.151 A  
HETATM   20  C   UNL     1     -10.011  13.961  68.167  1.00  0.00    -0.240 A  
HETATM   21  H   UNL     1     -12.852  11.568  67.590  1.00  0.00     0.000 HD 
HETATM   22  C   UNL     1     -10.241  15.175  68.876  1.00  0.00    -0.236 A  
HETATM   23  C   UNL     1     -10.758  11.265  64.246  1.00  0.00    -0.416 A  
HETATM   24  C   UNL     1      -9.420  10.997  64.405  1.00  0.00    -0.238 A  
HETATM   25  C   UNL     1     -11.258  15.051  69.793  1.00  0.00    -0.277 A  
HETATM   26  S   UNL     1      -8.959  10.984  66.047  1.00  0.00    -0.200 SA 
HETATM   27  S   UNL     1     -11.905  13.471  69.823  1.00  0.00    -0.318 SA 
ENDBRANCH  12  13
ENDBRANCH   6  12
TORSDOF 2
ENDMDL
MODEL       17
REMARK 921   NORMALIZED FREE ENERGY PREDICTED BY IDOCK:   -6.00 KCAL/MOL
REMARK 922        TOTAL FREE ENERGY PREDICTED BY IDOCK:   -7.68 KCAL/MOL
REMARK 923 INTER-LIGAND FREE ENERGY PREDICTED BY IDOCK:   -7.67 KCAL/MOL
REMARK 924 INTRA-LIGAND FREE ENERGY PREDICTED BY IDOCK:   -0.01 KCAL/MOL
REMARK 927      BINDING AFFINITY PREDICTED BY RF-SCORE:    0.00 PKD
ROOT
HETATM    1  C   UNL     1      -7.654  20.383  66.529  1.00  0.00    -0.209 C  
HETATM    2  O   UNL     1      -7.756  19.571  65.364  1.00  0.00    -0.378 OA 
HETATM    3  C   UNL     1      -6.443  19.984  65.717  1.00  0.00    -0.228 C  
HETATM    4  C   UNL     1      -5.602  19.111  66.636  1.00  0.00    -0.154 C  
HETATM    5  C   UNL     1      -5.999  17.628  66.528  1.00  0.00    -0.232 C  
HETATM    6  C   UNL     1      -7.429  17.288  67.028  1.00  0.00    -0.190 C  
HETATM    7  C   UNL     1      -8.080  18.333  67.967  1.00  0.00    -0.279 C  
HETATM    8  N   UNL     1      -5.924  19.617  68.064  1.00  0.00    -0.208 N  
HETATM    9  C   UNL     1      -7.462  19.738  67.895  1.00  0.00    -0.287 C  
HETATM   10  C   UNL     1      -5.305  21.011  68.285  1.00  0.00    -0.320 C  
HETATM   11  C   UNL     1      -5.427  18.759  69.215  1.00  0.00    -0.205 C  
ENDROOT
BRANCH   6  12
HETATM   12  O   UNL     1      -8.336  17.114  65.915  1.00  0.00    -0.527 OA 
BRANCH  12  13
HETATM   13  C   UNL     1      -9.640  16.810  66.205  1.00  0.00    -0.289 C  
HETATM   14  C   UNL     1      -9.773  15.299  66.591  1.00  0.00    -0.252 C  
HETATM   15  C   UNL     1     -10.531  14.505  65.533  1.00  0.00    -0.356 A  
HETATM   16  O   UNL     1      -8.491  14.657  66.677  1.00  0.00    -0.409 OA 
HETATM   17  C   UNL     1     -10.410  15.237  67.976  1.00  0.00    -0.244 A  
HETATM   18  O   UNL     1     -10.525  17.656  66.224  1.00  0.00    -0.349 OA 
HETATM   19  C   UNL     1     -10.404  13.151  65.248  1.00  0.00    -0.319 A  
HETATM   20  C   UNL     1     -11.752  15.166  68.318  1.00  0.00    -0.336 A  
HETATM   21  H   UNL     1      -8.571  13.740  66.911  1.00  0.00     0.000 HD 
HETATM   22  C   UNL     1     -11.970  15.158  69.726  1.00  0.00    -0.367 A  
HETATM   23  C   UNL     1     -11.264  12.713  64.201  1.00  0.00    -0.437 A  
HETATM   24  C   UNL     1     -12.041  13.738  63.717  1.00  0.00    -0.336 A  
HETATM   25  C   UNL     1     -10.791  15.230  70.429  1.00  0.00    -0.266 A  
HETATM   26  S   UNL     1     -11.726  15.212  64.515  1.00  0.00    -0.246 SA 
HETATM   27  S   UNL     1      -9.435  15.344  69.398  1.00  0.00    -0.248 SA 
ENDBRANCH  12  13
ENDBRANCH   6  12
TORSDOF 2
ENDMDL
MODEL       18
REMARK 921   NORMALIZED FREE ENERGY PREDICTED BY IDOCK:   -6.00 KCAL/MOL
REMARK 922        TOTAL FREE ENERGY PREDICTED BY IDOCK:   -7.68 KCAL/MOL
REMARK 923 INTER-LIGAND FREE ENERGY PREDICTED BY IDOCK:   -7.35 KCAL/MOL
REMARK 924 INTRA-LIGAND FREE ENERGY PREDICTED BY IDOCK:   -0.33 KCAL/MOL
REMARK 927      BINDING AFFINITY PREDICTED BY RF-SCORE:    0.00 PKD
ROOT
HETATM    1  C   UNL     1      -7.755  17.712  66.138  1.00  0.00    -0.258 C  
HETATM    2  O   UNL     1      -7.799  16.493  66.873  1.00  0.00    -0.179 OA 
HETATM    3  C   UNL     1      -7.365  17.638  67.596  1.00  0.00    -0.194 C  
HETATM    4  C   UNL     1      -8.383  18.489  68.338  1.00  0.00    -0.332 C  
HETATM    5  C   UNL     1      -9.611  17.664  68.761  1.00  0.00    -0.280 C  
HETATM    6  C   UNL     1     -10.478  17.121  67.592  1.00  0.00    -0.355 C  
HETATM    7  C   UNL     1     -10.292  17.831  66.230  1.00  0.00    -0.358 C  
HETATM    8  N   UNL     1      -8.825  19.560  67.310  1.00  0.00    -0.295 N  
HETATM    9  C   UNL     1      -8.979  18.618  66.087  1.00  0.00    -0.122 C  
HETATM   10  C   UNL     1      -7.682  20.563  67.064  1.00  0.00    -0.297 C  
HETATM   11  C   UNL     1     -10.035  20.400  67.684  1.00  0.00    -0.374 C  
ENDROOT
BRANCH   6  12
HETATM   12  O   UNL     1     -10.215  15.718  67.365  1.00  0.00    -0.259 OA 
BRANCH  12  13
HETATM   13  C   UNL     1     -10.154  14.900  68.463  1.00  0.00    -0.232 C  
HETATM   14  C   UNL     1     -11.564  14.294  68.767  1.00  0.00    -0.322 C  
HETATM   15  C   UNL     1     -12.158  14.851  70.056  1.00  0.00    -0.338 A  
HETATM   16  O   UNL     1     -12.521  14.633  67.750  1.00  0.00    -0.575 OA 
HETATM   17  C   UNL     1     -11.416  12.775  68.768  1.00  0.00    -0.304 A  
HETATM   18  O   UNL     1      -9.103  14.649  69.040  1.00  0.00    -0.175 OA 
HETATM   19  C   UNL     1     -13.505  14.978  70.374  1.00  0.00     0.055 A  
HETATM   20  C   UNL     1     -11.119  11.927  69.824  1.00  0.00    -0.025 A  
HETATM   21  H   UNL     1     -13.377  14.265  67.935  1.00  0.00     0.000 HD 
HETATM   22  C   UNL     1     -11.030  10.560  69.434  1.00  0.00    -0.297 A  
HETATM   23  C   UNL     1     -13.728  15.533  71.666  1.00  0.00    -0.562 A  
HETATM   24  C   UNL     1     -12.549  15.806  72.315  1.00  0.00    -0.448 A  
HETATM   25  C   UNL     1     -11.253  10.393  68.088  1.00  0.00    -0.268 A  
HETATM   26  S   UNL     1     -11.188  15.402  71.368  1.00  0.00    -0.263 SA 
HETATM   27  S   UNL     1     -11.531  11.879  67.295  1.00  0.00    -0.295 SA 
ENDBRANCH  12  13
ENDBRANCH   6  12
TORSDOF 2
ENDMDL
MODEL       19
REMARK 921   NORMALIZED FREE ENERGY PREDICTED BY IDOCK:   -5.98 KCAL/MOL
REMARK 922        TOTAL FREE ENERGY PREDICTED BY IDOCK:   -7.66 KCAL/MOL
REMARK 923 INTER-LIGAND FREE ENERGY PREDICTED BY IDOCK:   -6.73 KCAL/MOL
REMARK 924 INTRA-LIGAND FREE ENERGY PREDICTED BY IDOCK:   -0.93 KCAL/MOL
REMARK 927      BINDING AFFINITY PREDICTED BY RF-SCORE:    0.00 PKD
ROOT
HETATM    1  C   UNL     1      -7.705   9.075  69.039  1.00  0.00    -0.089 C  
HETATM    2  O   UNL     1      -7.929  10.074  68.049  1.00  0.00    -0.100 OA 
HETATM    3  C   UNL     1      -8.113   8.730  67.626  1.00  0.00    -0.106 C  
HETATM    4  C   UNL     1      -9.487   8.086  67.740  1.00  0.00    -0.145 C  
HETATM    5  C   UNL     1     -10.611   9.135  67.668  1.00  0.00    -0.307 C  
HETATM    6  C   UNL     1     -10.656  10.138  68.852  1.00  0.00    -0.215 C  
HETATM    7  C   UNL     1      -9.910   9.700  70.135  1.00  0.00    -0.310 C  
HETATM    8  N   UNL     1      -9.498   7.430  69.142  1.00  0.00    -0.150 N  
HETATM    9  C   UNL     1      -8.852   8.605  69.923  1.00  0.00    -0.144 C  
HETATM   10  C   UNL     1      -8.564   6.204  69.162  1.00  0.00    -0.119 C  
HETATM   11  C   UNL     1     -10.843   6.930  69.645  1.00  0.00    -0.259 C  
ENDROOT
BRANCH   6  12
HETATM   12  O   UNL     1     -10.098  11.415  68.467  1.00  0.00    -0.194 OA 
BRANCH  12  13
HETATM   13  C   UNL     1     -10.921  12.293  67.811  1.00  0.00    -0.232 C  
HETATM   14  C   UNL     1     -10.121  13.069  66.713  1.00  0.00    -0.247 C  
HETATM   15  C   UNL     1      -9.953  14.543  67.065  1.00  0.00    -0.255 A  
HETATM   16  O   UNL     1      -8.779  12.573  66.580  1.00  0.00    -0.374 OA 
HETATM   17  C   UNL     1     -10.830  12.835  65.382  1.00  0.00    -0.286 A  
HETATM   18  O   UNL     1     -12.123  12.361  68.035  1.00  0.00    -0.398 OA 
HETATM   19  C   UNL     1      -8.928  15.391  66.664  1.00  0.00    -0.319 A  
HETATM   20  C   UNL     1     -11.841  13.576  64.789  1.00  0.00    -0.412 A  
HETATM   21  H   UNL     1      -8.293  13.044  65.913  1.00  0.00     0.000 HD 
HETATM   22  C   UNL     1     -12.280  13.028  63.549  1.00  0.00    -0.580 A  
HETATM   23  C   UNL     1      -9.067  16.717  67.163  1.00  0.00    -0.224 A  
HETATM   24  C   UNL     1     -10.203  16.860  67.922  1.00  0.00    -0.308 A  
HETATM   25  C   UNL     1     -11.600  11.878  63.225  1.00  0.00    -0.286 A  
HETATM   26  S   UNL     1     -11.085  15.404  68.037  1.00  0.00    -0.321 SA 
HETATM   27  S   UNL     1     -10.467  11.442  64.426  1.00  0.00    -0.354 SA 
ENDBRANCH  12  13
ENDBRANCH   6  12
TORSDOF 2
ENDMDL
MODEL       20
REMARK 921   NORMALIZED FREE ENERGY PREDICTED BY IDOCK:   -5.97 KCAL/MOL
REMARK 922        TOTAL FREE ENERGY PREDICTED BY IDOCK:   -7.65 KCAL/MOL
REMARK 923 INTER-LIGAND FREE ENERGY PREDICTED BY IDOCK:   -6.77 KCAL/MOL
REMARK 924 INTRA-LIGAND FREE ENERGY PREDICTED BY IDOCK:   -0.88 KCAL/MOL
REMARK 927      BINDING AFFINITY PREDICTED BY RF-SCORE:    0.00 PKD
ROOT
HETATM    1  C   UNL     1      -9.299   7.610  66.403  1.00  0.00    -0.172 C  
HETATM    2  O   UNL     1     -10.221   8.694  66.340  1.00  0.00    -0.282 OA 
HETATM    3  C   UNL     1     -10.552   7.650  67.246  1.00  0.00    -0.318 C  
HETATM    4  C   UNL     1     -10.076   7.727  68.688  1.00  0.00    -0.199 C  
HETATM    5  C   UNL     1      -9.882   9.184  69.144  1.00  0.00    -0.171 C  
HETATM    6  C   UNL     1      -8.748   9.959  68.418  1.00  0.00    -0.120 C  
HETATM    7  C   UNL     1      -7.689   9.087  67.701  1.00  0.00    -0.097 C  
HETATM    8  N   UNL     1      -8.702   7.011  68.688  1.00  0.00    -0.123 N  
HETATM    9  C   UNL     1      -8.140   7.650  67.390  1.00  0.00    -0.119 C  
HETATM   10  C   UNL     1      -8.894   5.495  68.490  1.00  0.00    -0.104 C  
HETATM   11  C   UNL     1      -7.861   7.159  69.945  1.00  0.00    -0.113 C  
ENDROOT
BRANCH   6  12
HETATM   12  O   UNL     1      -9.292  10.850  67.419  1.00  0.00    -0.154 OA 
BRANCH  12  13
HETATM   13  C   UNL     1      -9.545  12.144  67.796  1.00  0.00    -0.195 C  
HETATM   14  C   UNL     1     -11.051  12.494  67.560  1.00  0.00    -0.267 C  
HETATM   15  C   UNL     1     -11.232  13.503  66.432  1.00  0.00    -0.307 A  
HETATM   16  O   UNL     1     -11.807  11.345  67.145  1.00  0.00    -0.566 OA 
HETATM   17  C   UNL     1     -11.624  12.960  68.896  1.00  0.00    -0.315 A  
HETATM   18  O   UNL     1      -8.694  12.856  68.315  1.00  0.00    -0.183 OA 
HETATM   19  C   UNL     1     -12.342  13.653  65.609  1.00  0.00    -0.518 A  
HETATM   20  C   UNL     1     -11.685  14.243  69.419  1.00  0.00    -0.363 A  
HETATM   21  H   UNL     1     -12.722  11.557  67.001  1.00  0.00     0.000 HD 
HETATM   22  C   UNL     1     -12.266  14.287  70.719  1.00  0.00    -0.423 A  
HETATM   23  C   UNL     1     -12.196  14.697  64.652  1.00  0.00    -0.447 A  
HETATM   24  C   UNL     1     -10.984  15.332  64.771  1.00  0.00    -0.386 A  
HETATM   25  C   UNL     1     -12.631  13.038  71.164  1.00  0.00    -0.297 A  
HETATM   26  S   UNL     1     -10.032  14.668  66.021  1.00  0.00    -0.330 SA 
HETATM   27  S   UNL     1     -12.240  11.818  70.036  1.00  0.00    -0.201 SA 
ENDBRANCH  12  13
ENDBRANCH   6  12
TORSDOF 2
ENDMDL
MODEL       21
REMARK 921   NORMALIZED FREE ENERGY PREDICTED BY IDOCK:   -5.95 KCAL/MOL
REMARK 922        TOTAL FREE ENERGY PREDICTED BY IDOCK:   -7.63 KCAL/MOL
REMARK 923 INTER-LIGAND FREE ENERGY PREDICTED BY IDOCK:   -6.66 KCAL/MOL
REMARK 924 INTRA-LIGAND FREE ENERGY PREDICTED BY IDOCK:   -0.96 KCAL/MOL
REMARK 927      BINDING AFFINITY PREDICTED BY RF-SCORE:    0.00 PKD
ROOT
HETATM    1  C   UNL     1      -9.708  11.759  65.279  1.00  0.00    -0.211 C  
HETATM    2  O   UNL     1     -10.335  12.924  65.805  1.00  0.00    -0.274 OA 
HETATM    3  C   UNL     1     -10.934  11.684  66.159  1.00  0.00    -0.288 C  
HETATM    4  C   UNL     1     -10.488  10.969  67.425  1.00  0.00    -0.218 C  
HETATM    5  C   UNL     1      -9.955  11.958  68.477  1.00  0.00    -0.196 C  
HETATM    6  C   UNL     1      -8.649  12.701  68.084  1.00  0.00    -0.188 C  
HETATM    7  C   UNL     1      -7.818  12.050  66.952  1.00  0.00    -0.095 C  
HETATM    8  N   UNL     1      -9.331  10.045  66.969  1.00  0.00    -0.152 N  
HETATM    9  C   UNL     1      -8.598  11.069  66.061  1.00  0.00    -0.172 C  
HETATM   10  C   UNL     1      -9.883   8.885  66.118  1.00  0.00    -0.256 C  
HETATM   11  C   UNL     1      -8.510   9.394  68.069  1.00  0.00    -0.120 C  
ENDROOT
BRANCH   6  12
HETATM   12  O   UNL     1      -8.935  14.053  67.659  1.00  0.00    -0.177 OA 
BRANCH  12  13
HETATM   13  C   UNL     1      -9.051  15.010  68.634  1.00  0.00    -0.191 C  
HETATM   14  C   UNL     1     -10.361  15.840  68.426  1.00  0.00    -0.233 C  
HETATM   15  C   UNL     1     -10.065  17.274  68.001  1.00  0.00    -0.324 A  
HETATM   16  O   UNL     1     -11.167  15.306  67.363  1.00  0.00    -0.327 OA 
HETATM   17  C   UNL     1     -11.174  15.738  69.713  1.00  0.00    -0.330 A  
HETATM   18  O   UNL     1      -8.256  15.106  69.561  1.00  0.00    -0.224 OA 
HETATM   19  C   UNL     1     -10.879  18.112  67.249  1.00  0.00    -0.241 A  
HETATM   20  C   UNL     1     -11.149  16.561  70.829  1.00  0.00    -0.014 A  
HETATM   21  H   UNL     1     -11.962  15.810  67.236  1.00  0.00     0.000 HD 
HETATM   22  C   UNL     1     -12.032  16.130  71.860  1.00  0.00    -0.583 A  
HETATM   23  C   UNL     1     -10.312  19.400  67.029  1.00  0.00    -0.547 A  
HETATM   24  C   UNL     1      -9.082  19.525  67.629  1.00  0.00    -0.316 A  
HETATM   25  C   UNL     1     -12.708  14.984  71.513  1.00  0.00    -0.340 A  
HETATM   26  S   UNL     1      -8.618  18.098  68.442  1.00  0.00    -0.295 SA 
HETATM   27  S   UNL     1     -12.252  14.413  69.970  1.00  0.00    -0.352 SA 
ENDBRANCH  12  13
ENDBRANCH   6  12
TORSDOF 2
ENDMDL
MODEL       22
REMARK 921   NORMALIZED FREE ENERGY PREDICTED BY IDOCK:   -5.93 KCAL/MOL
REMARK 922        TOTAL FREE ENERGY PREDICTED BY IDOCK:   -7.60 KCAL/MOL
REMARK 923 INTER-LIGAND FREE ENERGY PREDICTED BY IDOCK:   -6.52 KCAL/MOL
REMARK 924 INTRA-LIGAND FREE ENERGY PREDICTED BY IDOCK:   -1.08 KCAL/MOL
REMARK 927      BINDING AFFINITY PREDICTED BY RF-SCORE:    0.00 PKD
ROOT
HETATM    1  C   UNL     1     -10.563  13.987  68.762  1.00  0.00    -0.251 C  
HETATM    2  O   UNL     1     -11.592  13.062  69.093  1.00  0.00    -0.279 OA 
HETATM    3  C   UNL     1     -12.001  14.202  68.350  1.00  0.00    -0.331 C  
HETATM    4  C   UNL     1     -12.006  14.147  66.830  1.00  0.00    -0.447 C  
HETATM    5  C   UNL     1     -12.211  12.710  66.316  1.00  0.00    -0.225 C  
HETATM    6  C   UNL     1     -11.060  11.720  66.643  1.00  0.00    -0.310 C  
HETATM    7  C   UNL     1      -9.701  12.364  67.007  1.00  0.00    -0.211 C  
HETATM    8  N   UNL     1     -10.596  14.634  66.413  1.00  0.00    -0.295 N  
HETATM    9  C   UNL     1      -9.783  13.830  67.463  1.00  0.00    -0.230 C  
HETATM   10  C   UNL     1     -10.456  16.145  66.682  1.00  0.00    -0.300 C  
HETATM   11  C   UNL     1     -10.214  14.439  64.955  1.00  0.00    -0.374 C  
ENDROOT
BRANCH   6  12
HETATM   12  O   UNL     1     -11.419  10.861  67.749  1.00  0.00    -0.447 OA 
BRANCH  12  13
HETATM   13  C   UNL     1     -10.787   9.648  67.838  1.00  0.00    -0.215 C  
HETATM   14  C   UNL     1     -10.051   9.519  69.213  1.00  0.00    -0.198 C  
HETATM   15  C   UNL     1      -8.535   9.536  69.052  1.00  0.00    -0.128 A  
HETATM   16  O   UNL     1     -10.336  10.631  70.077  1.00  0.00    -0.441 OA 
HETATM   17  C   UNL     1     -10.580   8.261  69.896  1.00  0.00    -0.232 A  
HETATM   18  O   UNL     1     -10.884   8.790  66.970  1.00  0.00    -0.193 OA 
HETATM   19  C   UNL     1      -7.596   9.959  69.985  1.00  0.00    -0.179 A  
HETATM   20  C   UNL     1     -10.103   6.961  69.823  1.00  0.00    -0.196 A  
HETATM   21  H   UNL     1      -9.890  10.553  70.912  1.00  0.00     0.000 HD 
HETATM   22  C   UNL     1     -10.882   6.038  70.578  1.00  0.00    -0.382 A  
HETATM   23  C   UNL     1      -6.254   9.840  69.525  1.00  0.00    -0.044 A  
HETATM   24  C   UNL     1      -6.193   9.316  68.257  1.00  0.00    -0.053 A  
HETATM   25  C   UNL     1     -11.941   6.650  71.206  1.00  0.00    -0.355 A  
HETATM   26  S   UNL     1      -7.742   8.979  67.628  1.00  0.00    -0.097 SA 
HETATM   27  S   UNL     1     -12.015   8.320  70.857  1.00  0.00    -0.109 SA 
ENDBRANCH  12  13
ENDBRANCH   6  12
TORSDOF 2
ENDMDL
MODEL       23
REMARK 921   NORMALIZED FREE ENERGY PREDICTED BY IDOCK:   -5.91 KCAL/MOL
REMARK 922        TOTAL FREE ENERGY PREDICTED BY IDOCK:   -7.59 KCAL/MOL
REMARK 923 INTER-LIGAND FREE ENERGY PREDICTED BY IDOCK:   -7.27 KCAL/MOL
REMARK 924 INTRA-LIGAND FREE ENERGY PREDICTED BY IDOCK:   -0.32 KCAL/MOL
REMARK 927      BINDING AFFINITY PREDICTED BY RF-SCORE:    0.00 PKD
ROOT
HETATM    1  C   UNL     1      -9.472   6.934  69.470  1.00  0.00    -0.146 C  
HETATM    2  O   UNL     1     -10.284   7.589  68.501  1.00  0.00    -0.187 OA 
HETATM    3  C   UNL     1     -10.975   6.777  69.442  1.00  0.00    -0.276 C  
HETATM    4  C   UNL     1     -11.477   7.392  70.740  1.00  0.00    -0.288 C  
HETATM    5  C   UNL     1     -11.762   8.896  70.580  1.00  0.00    -0.212 C  
HETATM    6  C   UNL     1     -10.517   9.780  70.299  1.00  0.00    -0.288 C  
HETATM    7  C   UNL     1      -9.150   9.153  70.665  1.00  0.00    -0.307 C  
HETATM    8  N   UNL     1     -10.311   7.203  71.741  1.00  0.00    -0.197 N  
HETATM    9  C   UNL     1      -9.156   7.621  70.792  1.00  0.00    -0.153 C  
HETATM   10  C   UNL     1     -10.172   5.716  72.120  1.00  0.00    -0.202 C  
HETATM   11  C   UNL     1     -10.420   7.954  73.058  1.00  0.00    -0.343 C  
ENDROOT
BRANCH   6  12
HETATM   12  O   UNL     1     -10.445  10.137  68.900  1.00  0.00    -0.189 OA 
BRANCH  12  13
HETATM   13  C   UNL     1     -11.288  11.121  68.454  1.00  0.00    -0.288 C  
HETATM   14  C   UNL     1     -10.475  12.248  67.735  1.00  0.00    -0.209 C  
HETATM   15  C   UNL     1     -10.474  13.548  68.533  1.00  0.00    -0.244 A  
HETATM   16  O   UNL     1      -9.087  11.903  67.604  1.00  0.00    -0.169 OA 
HETATM   17  C   UNL     1     -11.046  12.394  66.328  1.00  0.00    -0.303 A  
HETATM   18  O   UNL     1     -12.506  11.041  68.558  1.00  0.00    -0.440 OA 
HETATM   19  C   UNL     1      -9.503  14.541  68.520  1.00  0.00    -0.211 A  
HETATM   20  C   UNL     1     -12.069  13.217  65.881  1.00  0.00    -0.493 A  
HETATM   21  H   UNL     1      -8.593  12.587  67.167  1.00  0.00     0.000 HD 
HETATM   22  C   UNL     1     -12.350  13.054  64.494  1.00  0.00    -0.461 A  
HETATM   23  C   UNL     1      -9.806  15.636  69.378  1.00  0.00    -0.284 A  
HETATM   24  C   UNL     1     -11.009  15.465  70.018  1.00  0.00    -0.299 A  
HETATM   25  C   UNL     1     -11.542  12.106  63.912  1.00  0.00    -0.448 A  
HETATM   26  S   UNL     1     -11.758  13.993  69.591  1.00  0.00    -0.323 SA 
HETATM   27  S   UNL     1     -10.478  11.392  65.040  1.00  0.00    -0.308 SA 
ENDBRANCH  12  13
ENDBRANCH   6  12
TORSDOF 2
ENDMDL
MODEL       24
REMARK 921   NORMALIZED FREE ENERGY PREDICTED BY IDOCK:   -5.91 KCAL/MOL
REMARK 922        TOTAL FREE ENERGY PREDICTED BY IDOCK:   -7.59 KCAL/MOL
REMARK 923 INTER-LIGAND FREE ENERGY PREDICTED BY IDOCK:   -6.61 KCAL/MOL
REMARK 924 INTRA-LIGAND FREE ENERGY PREDICTED BY IDOCK:   -0.98 KCAL/MOL
REMARK 927      BINDING AFFINITY PREDICTED BY RF-SCORE:    0.00 PKD
ROOT
HETATM    1  C   UNL     1      -9.705  14.514  66.077  1.00  0.00    -0.303 C  
HETATM    2  O   UNL     1      -9.677  13.722  67.260  1.00  0.00    -0.231 OA 
HETATM    3  C   UNL     1     -10.884  14.434  67.019  1.00  0.00    -0.297 C  
HETATM    4  C   UNL     1     -12.001  13.774  66.226  1.00  0.00    -0.429 C  
HETATM    5  C   UNL     1     -11.960  12.241  66.357  1.00  0.00    -0.286 C  
HETATM    6  C   UNL     1     -10.713  11.556  65.734  1.00  0.00    -0.271 C  
HETATM    7  C   UNL     1      -9.934  12.395  64.692  1.00  0.00    -0.198 C  
HETATM    8  N   UNL     1     -11.719  14.161  64.753  1.00  0.00    -0.388 N  
HETATM    9  C   UNL     1     -10.188  13.910  64.764  1.00  0.00    -0.324 C  
HETATM   10  C   UNL     1     -12.008  15.659  64.534  1.00  0.00    -0.120 C  
HETATM   11  C   UNL     1     -12.526  13.428  63.693  1.00  0.00    -0.242 C  
ENDROOT
BRANCH   6  12
HETATM   12  O   UNL     1      -9.762  11.188  66.759  1.00  0.00    -0.188 OA 
BRANCH  12  13
HETATM   13  C   UNL     1     -10.077  10.119  67.558  1.00  0.00    -0.201 C  
HETATM   14  C   UNL     1      -9.645  10.401  69.036  1.00  0.00    -0.204 C  
HETATM   15  C   UNL     1      -8.481   9.516  69.467  1.00  0.00    -0.155 A  
HETATM   16  O   UNL     1      -9.162  11.743  69.204  1.00  0.00    -0.382 OA 
HETATM   17  C   UNL     1     -10.887  10.248  69.909  1.00  0.00    -0.302 A  
HETATM   18  O   UNL     1     -10.684   9.141  67.140  1.00  0.00    -0.255 OA 
HETATM   19  C   UNL     1      -7.522   9.801  70.431  1.00  0.00    -0.161 A  
HETATM   20  C   UNL     1     -11.371   9.117  70.549  1.00  0.00    -0.300 A  
HETATM   21  H   UNL     1      -8.900  11.914  70.100  1.00  0.00     0.000 HD 
HETATM   22  C   UNL     1     -12.586   9.352  71.254  1.00  0.00    -0.403 A  
HETATM   23  C   UNL     1      -6.568   8.758  70.603  1.00  0.00    -0.045 A  
HETATM   24  C   UNL     1      -6.826   7.691  69.777  1.00  0.00    -0.047 A  
HETATM   25  C   UNL     1     -13.007  10.655  71.134  1.00  0.00    -0.387 A  
HETATM   26  S   UNL     1      -8.200   7.953  68.801  1.00  0.00    -0.128 SA 
HETATM   27  S   UNL     1     -11.965  11.577  70.146  1.00  0.00    -0.359 SA 
ENDBRANCH  12  13
ENDBRANCH   6  12
TORSDOF 2
ENDMDL
MODEL       25
REMARK 921   NORMALIZED FREE ENERGY PREDICTED BY IDOCK:   -5.87 KCAL/MOL
REMARK 922        TOTAL FREE ENERGY PREDICTED BY IDOCK:   -7.54 KCAL/MOL
REMARK 923 INTER-LIGAND FREE ENERGY PREDICTED BY IDOCK:   -6.57 KCAL/MOL
REMARK 924 INTRA-LIGAND FREE ENERGY PREDICTED BY IDOCK:   -0.97 KCAL/MOL
REMARK 927      BINDING AFFINITY PREDICTED BY RF-SCORE:    0.00 PKD
ROOT
HETATM    1  C   UNL     1     -12.478  13.289  65.163  1.00  0.00    -0.470 C  
HETATM    2  O   UNL     1     -11.780  12.048  65.188  1.00  0.00    -0.330 OA 
HETATM    3  C   UNL     1     -11.148  13.100  64.471  1.00  0.00    -0.356 C  
HETATM    4  C   UNL     1     -10.175  14.022  65.190  1.00  0.00    -0.371 C  
HETATM    5  C   UNL     1      -9.505  13.318  66.383  1.00  0.00    -0.225 C  
HETATM    6  C   UNL     1     -10.460  12.933  67.546  1.00  0.00    -0.223 C  
HETATM    7  C   UNL     1     -11.813  13.684  67.583  1.00  0.00    -0.404 C  
HETATM    8  N   UNL     1     -11.052  15.184  65.718  1.00  0.00    -0.344 N  
HETATM    9  C   UNL     1     -12.231  14.326  66.250  1.00  0.00    -0.410 C  
HETATM   10  C   UNL     1     -11.527  16.065  64.546  1.00  0.00    -0.271 C  
HETATM   11  C   UNL     1     -10.396  16.135  66.706  1.00  0.00    -0.291 C  
ENDROOT
BRANCH   6  12
HETATM   12  O   UNL     1     -10.773  11.522  67.509  1.00  0.00    -0.203 OA 
BRANCH  12  13
HETATM   13  C   UNL     1      -9.858  10.657  68.050  1.00  0.00    -0.160 C  
HETATM   14  C   UNL     1      -9.584   9.471  67.067  1.00  0.00    -0.164 C  
HETATM   15  C   UNL     1     -10.135   8.153  67.598  1.00  0.00    -0.207 A  
HETATM   16  O   UNL     1     -10.247   9.660  65.807  1.00  0.00    -0.261 OA 
HETATM   17  C   UNL     1      -8.083   9.442  66.795  1.00  0.00    -0.109 A  
HETATM   18  O   UNL     1      -9.301  10.872  69.120  1.00  0.00    -0.170 OA 
HETATM   19  C   UNL     1     -10.552   7.056  66.854  1.00  0.00    -0.372 A  
HETATM   20  C   UNL     1      -7.085   8.758  67.473  1.00  0.00    -0.079 A  
HETATM   21  H   UNL     1     -10.082   8.940  65.209  1.00  0.00     0.000 HD 
HETATM   22  C   UNL     1      -5.784   9.002  66.946  1.00  0.00    -0.045 A  
HETATM   23  C   UNL     1     -11.010   5.973  67.656  1.00  0.00    -0.334 A  
HETATM   24  C   UNL     1     -10.921   6.257  68.997  1.00  0.00    -0.372 A  
HETATM   25  C   UNL     1      -5.815   9.872  65.881  1.00  0.00    -0.070 A  
HETATM   26  S   UNL     1     -10.297   7.820  69.280  1.00  0.00    -0.218 SA 
HETATM   27  S   UNL     1      -7.397  10.418  65.545  1.00  0.00    -0.112 SA 
ENDBRANCH  12  13
ENDBRANCH   6  12
TORSDOF 2
ENDMDL
MODEL       26
REMARK 921   NORMALIZED FREE ENERGY PREDICTED BY IDOCK:   -5.87 KCAL/MOL
REMARK 922        TOTAL FREE ENERGY PREDICTED BY IDOCK:   -7.54 KCAL/MOL
REMARK 923 INTER-LIGAND FREE ENERGY PREDICTED BY IDOCK:   -6.93 KCAL/MOL
REMARK 924 INTRA-LIGAND FREE ENERGY PREDICTED BY IDOCK:   -0.60 KCAL/MOL
REMARK 927      BINDING AFFINITY PREDICTED BY RF-SCORE:    0.00 PKD
ROOT
HETATM    1  C   UNL     1      -8.473   8.705  71.814  1.00  0.00    -0.155 C  
HETATM    2  O   UNL     1      -8.365   9.486  70.628  1.00  0.00    -0.192 OA 
HETATM    3  C   UNL     1      -8.187   8.085  70.467  1.00  0.00    -0.118 C  
HETATM    4  C   UNL     1      -9.388   7.205  70.156  1.00  0.00    -0.158 C  
HETATM    5  C   UNL     1     -10.487   7.988  69.415  1.00  0.00    -0.223 C  
HETATM    6  C   UNL     1     -11.158   9.122  70.235  1.00  0.00    -0.239 C  
HETATM    7  C   UNL     1     -10.992   9.031  71.772  1.00  0.00    -0.443 C  
HETATM    8  N   UNL     1      -9.926   6.769  71.541  1.00  0.00    -0.178 N  
HETATM    9  C   UNL     1      -9.825   8.150  72.243  1.00  0.00    -0.260 C  
HETATM   10  C   UNL     1      -8.954   5.770  72.197  1.00  0.00    -0.136 C  
HETATM   11  C   UNL     1     -11.286   6.090  71.557  1.00  0.00    -0.264 C  
ENDROOT
BRANCH   6  12
HETATM   12  O   UNL     1     -10.644  10.415  69.842  1.00  0.00    -0.263 OA 
BRANCH  12  13
HETATM   13  C   UNL     1     -11.498  11.260  69.182  1.00  0.00    -0.297 C  
HETATM   14  C   UNL     1     -10.691  12.375  68.438  1.00  0.00    -0.235 C  
HETATM   15  C   UNL     1     -10.902  13.748  69.068  1.00  0.00    -0.217 A  
HETATM   16  O   UNL     1      -9.274  12.153  68.521  1.00  0.00    -0.295 OA 
HETATM   17  C   UNL     1     -11.079  12.312  66.964  1.00  0.00    -0.287 A  
HETATM   18  O   UNL     1     -12.708  11.076  69.143  1.00  0.00    -0.277 OA 
HETATM   19  C   UNL     1     -10.021  14.822  69.056  1.00  0.00    -0.218 A  
HETATM   20  C   UNL     1     -12.096  12.980  66.299  1.00  0.00    -0.453 A  
HETATM   21  H   UNL     1      -8.783  12.830  68.069  1.00  0.00     0.000 HD 
HETATM   22  C   UNL     1     -12.177  12.641  64.918  1.00  0.00    -0.531 A  
HETATM   23  C   UNL     1     -10.523  15.970  69.732  1.00  0.00    -0.300 A  
HETATM   24  C   UNL     1     -11.783  15.754  70.236  1.00  0.00    -0.358 A  
HETATM   25  C   UNL     1     -11.224  11.718  64.558  1.00  0.00    -0.305 A  
HETATM   26  S   UNL     1     -12.347  14.180  69.900  1.00  0.00    -0.271 SA 
HETATM   27  S   UNL     1     -10.265  11.236  65.885  1.00  0.00    -0.257 SA 
ENDBRANCH  12  13
ENDBRANCH   6  12
TORSDOF 2
ENDMDL
MODEL       27
REMARK 921   NORMALIZED FREE ENERGY PREDICTED BY IDOCK:   -5.76 KCAL/MOL
REMARK 922        TOTAL FREE ENERGY PREDICTED BY IDOCK:   -7.41 KCAL/MOL
REMARK 923 INTER-LIGAND FREE ENERGY PREDICTED BY IDOCK:   -6.56 KCAL/MOL
REMARK 924 INTRA-LIGAND FREE ENERGY PREDICTED BY IDOCK:   -0.85 KCAL/MOL
REMARK 927      BINDING AFFINITY PREDICTED BY RF-SCORE:    0.00 PKD
ROOT
HETATM    1  C   UNL     1     -10.308  17.113  69.012  1.00  0.00    -0.331 C  
HETATM    2  O   UNL     1     -10.634  15.766  68.686  1.00  0.00    -0.234 OA 
HETATM    3  C   UNL     1     -10.864  16.724  67.662  1.00  0.00    -0.252 C  
HETATM    4  C   UNL     1      -9.762  17.033  66.659  1.00  0.00    -0.277 C  
HETATM    5  C   UNL     1      -8.818  15.833  66.469  1.00  0.00    -0.345 C  
HETATM    6  C   UNL     1      -7.979  15.446  67.717  1.00  0.00    -0.146 C  
HETATM    7  C   UNL     1      -7.841  16.542  68.802  1.00  0.00    -0.235 C  
HETATM    8  N   UNL     1      -8.970  18.203  67.293  1.00  0.00    -0.246 N  
HETATM    9  C   UNL     1      -8.908  17.647  68.741  1.00  0.00    -0.208 C  
HETATM   10  C   UNL     1      -9.810  19.494  67.258  1.00  0.00    -0.357 C  
HETATM   11  C   UNL     1      -7.645  18.557  66.638  1.00  0.00    -0.238 C  
ENDROOT
BRANCH   6  12
HETATM   12  O   UNL     1      -8.539  14.286  68.374  1.00  0.00    -0.165 OA 
BRANCH  12  13
HETATM   13  C   UNL     1      -8.375  13.072  67.759  1.00  0.00    -0.175 C  
HETATM   14  C   UNL     1      -9.758  12.358  67.592  1.00  0.00    -0.195 C  
HETATM   15  C   UNL     1      -9.876  11.129  68.486  1.00  0.00    -0.198 A  
HETATM   16  O   UNL     1     -10.847  13.204  67.994  1.00  0.00    -0.230 OA 
HETATM   17  C   UNL     1      -9.937  12.055  66.107  1.00  0.00    -0.231 A  
HETATM   18  O   UNL     1      -7.290  12.684  67.345  1.00  0.00    -0.140 OA 
HETATM   19  C   UNL     1     -11.040  10.575  69.003  1.00  0.00    -0.300 A  
HETATM   20  C   UNL     1      -9.569  10.923  65.396  1.00  0.00    -0.271 A  
HETATM   21  H   UNL     1     -11.686  12.771  67.893  1.00  0.00     0.000 HD 
HETATM   22  C   UNL     1      -9.871  11.014  64.007  1.00  0.00    -0.365 A  
HETATM   23  C   UNL     1     -10.808   9.418  69.800  1.00  0.00    -0.250 A  
HETATM   24  C   UNL     1      -9.473   9.103  69.865  1.00  0.00    -0.186 A  
HETATM   25  C   UNL     1     -10.457  12.215  63.685  1.00  0.00    -0.460 A  
HETATM   26  S   UNL     1      -8.512  10.198  68.977  1.00  0.00    -0.161 SA 
HETATM   27  S   UNL     1     -10.607  13.239  65.043  1.00  0.00    -0.366 SA 
ENDBRANCH  12  13
ENDBRANCH   6  12
TORSDOF 2
ENDMDL
MODEL       28
REMARK 921   NORMALIZED FREE ENERGY PREDICTED BY IDOCK:   -5.73 KCAL/MOL
REMARK 922        TOTAL FREE ENERGY PREDICTED BY IDOCK:   -7.39 KCAL/MOL
REMARK 923 INTER-LIGAND FREE ENERGY PREDICTED BY IDOCK:   -6.44 KCAL/MOL
REMARK 924 INTRA-LIGAND FREE ENERGY PREDICTED BY IDOCK:   -0.94 KCAL/MOL
REMARK 927      BINDING AFFINITY PREDICTED BY RF-SCORE:    0.00 PKD
ROOT
HETATM    1  C   UNL     1      -9.906  12.518  65.682  1.00  0.00    -0.216 C  
HETATM    2  O   UNL     1     -10.867  13.564  65.779  1.00  0.00    -0.273 OA 
HETATM    3  C   UNL     1     -11.362  12.247  65.980  1.00  0.00    -0.350 C  
HETATM    4  C   UNL     1     -11.392  11.660  67.383  1.00  0.00    -0.300 C  
HETATM    5  C   UNL     1     -11.514  12.759  68.453  1.00  0.00    -0.349 C  
HETATM    6  C   UNL     1     -10.296  13.716  68.561  1.00  0.00    -0.243 C  
HETATM    7  C   UNL     1      -8.974  13.195  67.947  1.00  0.00    -0.200 C  
HETATM    8  N   UNL     1     -10.025  10.950  67.542  1.00  0.00    -0.172 N  
HETATM    9  C   UNL     1      -9.142  12.064  66.919  1.00  0.00    -0.196 C  
HETATM   10  C   UNL     1      -9.978   9.685  66.664  1.00  0.00    -0.236 C  
HETATM   11  C   UNL     1      -9.660  10.490  68.944  1.00  0.00    -0.193 C  
ENDROOT
BRANCH   6  12
HETATM   12  O   UNL     1     -10.577  14.981  67.920  1.00  0.00    -0.251 OA 
BRANCH  12  13
HETATM   13  C   UNL     1      -9.977  16.099  68.439  1.00  0.00    -0.230 C  
HETATM   14  C   UNL     1      -8.955  16.691  67.413  1.00  0.00    -0.196 C  
HETATM   15  C   UNL     1      -7.514  16.526  67.884  1.00  0.00    -0.150 A  
HETATM   16  O   UNL     1      -9.006  16.004  66.153  1.00  0.00    -0.317 OA 
HETATM   17  C   UNL     1      -9.353  18.143  67.160  1.00  0.00    -0.263 A  
HETATM   18  O   UNL     1     -10.292  16.573  69.524  1.00  0.00    -0.287 OA 
HETATM   19  C   UNL     1      -6.377  16.429  67.092  1.00  0.00    -0.215 A  
HETATM   20  C   UNL     1      -8.943  19.289  67.823  1.00  0.00    -0.354 A  
HETATM   21  H   UNL     1      -8.385  16.363  65.530  1.00  0.00     0.000 HD 
HETATM   22  C   UNL     1      -9.559  20.473  67.324  1.00  0.00    -0.580 A  
HETATM   23  C   UNL     1      -5.177  16.287  67.844  1.00  0.00    -0.130 A  
HETATM   24  C   UNL     1      -5.419  16.292  69.196  1.00  0.00    -0.113 A  
HETATM   25  C   UNL     1     -10.430  20.205  66.294  1.00  0.00    -0.338 A  
HETATM   26  S   UNL     1      -7.079  16.459  69.550  1.00  0.00    -0.009 SA 
HETATM   27  S   UNL     1     -10.532  18.534  65.959  1.00  0.00    -0.282 SA 
ENDBRANCH  12  13
ENDBRANCH   6  12
TORSDOF 2
ENDMDL
MODEL       29
REMARK 921   NORMALIZED FREE ENERGY PREDICTED BY IDOCK:   -5.72 KCAL/MOL
REMARK 922        TOTAL FREE ENERGY PREDICTED BY IDOCK:   -7.37 KCAL/MOL
REMARK 923 INTER-LIGAND FREE ENERGY PREDICTED BY IDOCK:   -6.39 KCAL/MOL
REMARK 924 INTRA-LIGAND FREE ENERGY PREDICTED BY IDOCK:   -0.98 KCAL/MOL
REMARK 927      BINDING AFFINITY PREDICTED BY RF-SCORE:    0.00 PKD
ROOT
HETATM    1  C   UNL     1      -7.360   8.466  68.282  1.00  0.00    -0.095 C  
HETATM    2  O   UNL     1      -7.908   9.683  67.783  1.00  0.00    -0.094 OA 
HETATM    3  C   UNL     1      -7.915   8.584  66.881  1.00  0.00    -0.095 C  
HETATM    4  C   UNL     1      -9.119   7.656  66.836  1.00  0.00    -0.144 C  
HETATM    5  C   UNL     1     -10.408   8.379  67.265  1.00  0.00    -0.369 C  
HETATM    6  C   UNL     1     -10.446   8.838  68.748  1.00  0.00    -0.191 C  
HETATM    7  C   UNL     1      -9.444   8.136  69.697  1.00  0.00    -0.159 C  
HETATM    8  N   UNL     1      -8.797   6.544  67.865  1.00  0.00    -0.115 N  
HETATM    9  C   UNL     1      -8.255   7.461  68.994  1.00  0.00    -0.128 C  
HETATM   10  C   UNL     1      -7.670   5.638  67.333  1.00  0.00    -0.100 C  
HETATM   11  C   UNL     1      -9.937   5.608  68.231  1.00  0.00    -0.155 C  
ENDROOT
BRANCH   6  12
HETATM   12  O   UNL     1     -10.188  10.257  68.854  1.00  0.00    -0.184 OA 
BRANCH  12  13
HETATM   13  C   UNL     1     -11.153  11.111  68.387  1.00  0.00    -0.247 C  
HETATM   14  C   UNL     1     -10.494  12.312  67.631  1.00  0.00    -0.214 C  
HETATM   15  C   UNL     1     -10.659  13.623  68.391  1.00  0.00    -0.251 A  
HETATM   16  O   UNL     1      -9.073  12.145  67.500  1.00  0.00    -0.169 OA 
HETATM   17  C   UNL     1     -11.082  12.342  66.223  1.00  0.00    -0.302 A  
HETATM   18  O   UNL     1     -12.350  10.878  68.500  1.00  0.00    -0.490 OA 
HETATM   19  C   UNL     1      -9.824  14.732  68.344  1.00  0.00    -0.220 A  
HETATM   20  C   UNL     1     -12.204  13.013  65.760  1.00  0.00    -0.511 A  
HETATM   21  H   UNL     1      -8.672  12.874  67.042  1.00  0.00     0.000 HD 
HETATM   22  C   UNL     1     -12.465  12.775  64.380  1.00  0.00    -0.476 A  
HETATM   23  C   UNL     1     -10.263  15.804  69.172  1.00  0.00    -0.231 A  
HETATM   24  C   UNL     1     -11.433  15.498  69.824  1.00  0.00    -0.331 A  
HETATM   25  C   UNL     1     -11.543  11.922  63.820  1.00  0.00    -0.462 A  
HETATM   26  S   UNL     1     -11.987  13.930  69.444  1.00  0.00    -0.355 SA 
HETATM   27  S   UNL     1     -10.393  11.385  64.961  1.00  0.00    -0.303 SA 
ENDBRANCH  12  13
ENDBRANCH   6  12
TORSDOF 2
ENDMDL
MODEL       30
REMARK 921   NORMALIZED FREE ENERGY PREDICTED BY IDOCK:   -5.71 KCAL/MOL
REMARK 922        TOTAL FREE ENERGY PREDICTED BY IDOCK:   -7.36 KCAL/MOL
REMARK 923 INTER-LIGAND FREE ENERGY PREDICTED BY IDOCK:   -6.47 KCAL/MOL
REMARK 924 INTRA-LIGAND FREE ENERGY PREDICTED BY IDOCK:   -0.88 KCAL/MOL
REMARK 927      BINDING AFFINITY PREDICTED BY RF-SCORE:    0.00 PKD
ROOT
HETATM    1  C   UNL     1      -8.956  13.188  67.071  1.00  0.00    -0.228 C  
HETATM    2  O   UNL     1      -8.905  12.357  68.226  1.00  0.00    -0.185 OA 
HETATM    3  C   UNL     1      -9.826  13.439  68.281  1.00  0.00    -0.235 C  
HETATM    4  C   UNL     1     -11.257  13.232  67.809  1.00  0.00    -0.280 C  
HETATM    5  C   UNL     1     -11.698  11.765  67.961  1.00  0.00    -0.363 C  
HETATM    6  C   UNL     1     -10.942  10.751  67.060  1.00  0.00    -0.227 C  
HETATM    7  C   UNL     1     -10.209  11.353  65.836  1.00  0.00    -0.292 C  
HETATM    8  N   UNL     1     -11.232  13.598  66.304  1.00  0.00    -0.302 N  
HETATM    9  C   UNL     1      -9.918  12.859  65.936  1.00  0.00    -0.268 C  
HETATM   10  C   UNL     1     -11.050  15.119  66.131  1.00  0.00    -0.311 C  
HETATM   11  C   UNL     1     -12.469  13.238  65.498  1.00  0.00    -0.474 C  
ENDROOT
BRANCH   6  12
HETATM   12  O   UNL     1      -9.948  10.028  67.821  1.00  0.00    -0.159 OA 
BRANCH  12  13
HETATM   13  C   UNL     1     -10.309   8.810  68.336  1.00  0.00    -0.204 C  
HETATM   14  C   UNL     1     -10.007   8.758  69.870  1.00  0.00    -0.187 C  
HETATM   15  C   UNL     1      -8.868   7.799  70.194  1.00  0.00    -0.145 A  
HETATM   16  O   UNL     1      -9.563  10.030  70.369  1.00  0.00    -0.380 OA 
HETATM   17  C   UNL     1     -11.315   8.419  70.580  1.00  0.00    -0.244 A  
HETATM   18  O   UNL     1     -10.863   7.949  67.663  1.00  0.00    -0.176 OA 
HETATM   19  C   UNL     1      -7.998   7.863  71.275  1.00  0.00    -0.094 A  
HETATM   20  C   UNL     1     -11.831   7.175  70.912  1.00  0.00    -0.379 A  
HETATM   21  H   UNL     1      -9.380   9.999  71.300  1.00  0.00     0.000 HD 
HETATM   22  C   UNL     1     -13.104   7.251  71.546  1.00  0.00    -0.434 A  
HETATM   23  C   UNL     1      -7.044   6.806  71.294  1.00  0.00    -0.075 A  
HETATM   24  C   UNL     1      -7.213   5.947  70.235  1.00  0.00    -0.075 A  
HETATM   25  C   UNL     1     -13.537   8.549  71.679  1.00  0.00    -0.361 A  
HETATM   26  S   UNL     1      -8.506   6.420  69.227  1.00  0.00    -0.126 SA 
HETATM   27  S   UNL     1     -12.431   9.665  71.010  1.00  0.00    -0.271 SA 
ENDBRANCH  12  13
ENDBRANCH   6  12
TORSDOF 2
ENDMDL
MODEL       31
REMARK 921   NORMALIZED FREE ENERGY PREDICTED BY IDOCK:   -5.68 KCAL/MOL
REMARK 922        TOTAL FREE ENERGY PREDICTED BY IDOCK:   -7.33 KCAL/MOL
REMARK 923 INTER-LIGAND FREE ENERGY PREDICTED BY IDOCK:   -6.72 KCAL/MOL
REMARK 924 INTRA-LIGAND FREE ENERGY PREDICTED BY IDOCK:   -0.61 KCAL/MOL
REMARK 927      BINDING AFFINITY PREDICTED BY RF-SCORE:    0.00 PKD
ROOT
HETATM    1  C   UNL     1     -10.541  15.517  70.053  1.00  0.00    -0.324 C  
HETATM    2  O   UNL     1     -11.411  14.398  70.191  1.00  0.00    -0.263 OA 
HETATM    3  C   UNL     1     -11.906  15.475  69.406  1.00  0.00    -0.374 C  
HETATM    4  C   UNL     1     -11.652  15.492  67.907  1.00  0.00    -0.223 C  
HETATM    5  C   UNL     1     -11.488  14.069  67.344  1.00  0.00    -0.373 C  
HETATM    6  C   UNL     1     -10.236  13.299  67.846  1.00  0.00    -0.233 C  
HETATM    7  C   UNL     1      -9.105  14.170  68.445  1.00  0.00    -0.191 C  
HETATM    8  N   UNL     1     -10.314  16.256  67.743  1.00  0.00    -0.279 N  
HETATM    9  C   UNL     1      -9.544  15.571  68.902  1.00  0.00    -0.220 C  
HETATM   10  C   UNL     1     -10.516  17.752  68.053  1.00  0.00    -0.394 C  
HETATM   11  C   UNL     1      -9.670  16.206  66.367  1.00  0.00    -0.286 C  
ENDROOT
BRANCH   6  12
HETATM   12  O   UNL     1     -10.597  12.337  68.863  1.00  0.00    -0.211 OA 
BRANCH  12  13
HETATM   13  C   UNL     1     -10.904  11.066  68.450  1.00  0.00    -0.220 C  
HETATM   14  C   UNL     1      -9.705  10.100  68.730  1.00  0.00    -0.172 C  
HETATM   15  C   UNL     1      -9.039   9.631  67.441  1.00  0.00    -0.130 A  
HETATM   16  O   UNL     1      -8.656  10.751  69.464  1.00  0.00    -0.373 OA 
HETATM   17  C   UNL     1     -10.231   8.960  69.597  1.00  0.00    -0.206 A  
HETATM   18  O   UNL     1     -12.005  10.766  68.007  1.00  0.00    -0.537 OA 
HETATM   19  C   UNL     1      -7.717   9.237  67.274  1.00  0.00    -0.095 A  
HETATM   20  C   UNL     1     -10.771   7.744  69.207  1.00  0.00    -0.156 A  
HETATM   21  H   UNL     1      -7.927  10.165  69.634  1.00  0.00     0.000 HD 
HETATM   22  C   UNL     1     -11.188   6.941  70.307  1.00  0.00    -0.363 A  
HETATM   23  C   UNL     1      -7.410   8.848  65.939  1.00  0.00    -0.093 A  
HETATM   24  C   UNL     1      -8.506   8.938  65.116  1.00  0.00    -0.173 A  
HETATM   25  C   UNL     1     -10.963   7.561  71.513  1.00  0.00    -0.229 A  
HETATM   26  S   UNL     1      -9.888   9.495  65.948  1.00  0.00    -0.261 SA 
HETATM   27  S   UNL     1     -10.289   9.118  71.316  1.00  0.00    -0.338 SA 
ENDBRANCH  12  13
ENDBRANCH   6  12
TORSDOF 2
ENDMDL
MODEL       32
REMARK 921   NORMALIZED FREE ENERGY PREDICTED BY IDOCK:   -5.66 KCAL/MOL
REMARK 922        TOTAL FREE ENERGY PREDICTED BY IDOCK:   -7.31 KCAL/MOL
REMARK 923 INTER-LIGAND FREE ENERGY PREDICTED BY IDOCK:   -6.78 KCAL/MOL
REMARK 924 INTRA-LIGAND FREE ENERGY PREDICTED BY IDOCK:   -0.53 KCAL/MOL
REMARK 927      BINDING AFFINITY PREDICTED BY RF-SCORE:    0.00 PKD
ROOT
HETATM    1  C   UNL     1     -12.602  14.195  65.989  1.00  0.00    -0.375 C  
HETATM    2  O   UNL     1     -11.926  14.279  67.239  1.00  0.00    -0.401 OA 
HETATM    3  C   UNL     1     -12.224  12.967  66.783  1.00  0.00    -0.133 C  
HETATM    4  C   UNL     1     -11.212  12.219  65.929  1.00  0.00    -0.340 C  
HETATM    5  C   UNL     1      -9.774  12.685  66.216  1.00  0.00    -0.260 C  
HETATM    6  C   UNL     1      -9.463  14.154  65.822  1.00  0.00    -0.035 C  
HETATM    7  C   UNL     1     -10.436  14.799  64.804  1.00  0.00    -0.317 C  
HETATM    8  N   UNL     1     -11.580  12.588  64.470  1.00  0.00    -0.331 N  
HETATM    9  C   UNL     1     -11.804  14.107  64.694  1.00  0.00    -0.431 C  
HETATM   10  C   UNL     1     -12.905  11.911  64.069  1.00  0.00    -0.171 C  
HETATM   11  C   UNL     1     -10.577  12.194  63.398  1.00  0.00    -0.410 C  
ENDROOT
BRANCH   6  12
HETATM   12  O   UNL     1      -9.460  15.010  66.987  1.00  0.00    -0.215 OA 
BRANCH  12  13
HETATM   13  C   UNL     1      -8.564  16.048  67.006  1.00  0.00    -0.210 C  
HETATM   14  C   UNL     1      -8.707  16.864  68.334  1.00  0.00    -0.244 C  
HETATM   15  C   UNL     1      -9.281  18.254  68.089  1.00  0.00    -0.301 A  
HETATM   16  O   UNL     1      -9.631  16.245  69.243  1.00  0.00    -0.248 OA 
HETATM   17  C   UNL     1      -7.339  16.876  69.010  1.00  0.00    -0.231 A  
HETATM   18  O   UNL     1      -7.735  16.218  66.121  1.00  0.00    -0.157 OA 
HETATM   19  C   UNL     1     -10.014  19.029  68.979  1.00  0.00    -0.390 A  
HETATM   20  C   UNL     1      -6.306  17.791  68.873  1.00  0.00    -0.211 A  
HETATM   21  H   UNL     1      -9.718  16.740  70.049  1.00  0.00     0.000 HD 
HETATM   22  C   UNL     1      -5.156  17.453  69.644  1.00  0.00    -0.169 A  
HETATM   23  C   UNL     1     -10.400  20.290  68.443  1.00  0.00    -0.305 A  
HETATM   24  C   UNL     1      -9.942  20.460  67.159  1.00  0.00    -0.428 A  
HETATM   25  C   UNL     1      -5.333  16.286  70.348  1.00  0.00    -0.186 A  
HETATM   26  S   UNL     1      -9.063  19.106  66.608  1.00  0.00    -0.346 SA 
HETATM   27  S   UNL     1      -6.860  15.583  70.050  1.00  0.00     0.068 SA 
ENDBRANCH  12  13
ENDBRANCH   6  12
TORSDOF 2
ENDMDL
MODEL       33
REMARK 921   NORMALIZED FREE ENERGY PREDICTED BY IDOCK:   -5.65 KCAL/MOL
REMARK 922        TOTAL FREE ENERGY PREDICTED BY IDOCK:   -7.29 KCAL/MOL
REMARK 923 INTER-LIGAND FREE ENERGY PREDICTED BY IDOCK:   -6.30 KCAL/MOL
REMARK 924 INTRA-LIGAND FREE ENERGY PREDICTED BY IDOCK:   -0.99 KCAL/MOL
REMARK 927      BINDING AFFINITY PREDICTED BY RF-SCORE:    0.00 PKD
ROOT
HETATM    1  C   UNL     1     -11.693  14.014  64.858  1.00  0.00    -0.380 C  
HETATM    2  O   UNL     1     -12.643  13.882  65.910  1.00  0.00    -0.478 OA 
HETATM    3  C   UNL     1     -12.635  12.835  64.949  1.00  0.00    -0.470 C  
HETATM    4  C   UNL     1     -11.750  11.618  65.170  1.00  0.00     0.025 C  
HETATM    5  C   UNL     1     -11.500  11.365  66.668  1.00  0.00    -0.124 C  
HETATM    6  C   UNL     1     -10.677  12.463  67.396  1.00  0.00    -0.229 C  
HETATM    7  C   UNL     1      -9.842  13.394  66.484  1.00  0.00    -0.286 C  
HETATM    8  N   UNL     1     -10.407  11.979  64.488  1.00  0.00    -0.283 N  
HETATM    9  C   UNL     1     -10.294  13.434  65.015  1.00  0.00    -0.347 C  
HETATM   10  C   UNL     1     -10.574  11.983  62.956  1.00  0.00    -0.023 C  
HETATM   11  C   UNL     1      -9.234  11.054  64.770  1.00  0.00    -0.176 C  
ENDROOT
BRANCH   6  12
HETATM   12  O   UNL     1     -11.540  13.319  68.178  1.00  0.00    -0.295 OA 
BRANCH  12  13
HETATM   13  C   UNL     1     -10.973  14.007  69.219  1.00  0.00    -0.206 C  
HETATM   14  C   UNL     1     -11.560  15.454  69.298  1.00  0.00    -0.339 C  
HETATM   15  C   UNL     1     -10.527  16.510  68.924  1.00  0.00    -0.304 A  
HETATM   16  O   UNL     1     -12.631  15.647  68.359  1.00  0.00    -0.121 OA 
HETATM   17  C   UNL     1     -12.141  15.635  70.698  1.00  0.00    -0.405 A  
HETATM   18  O   UNL     1     -10.182  13.488  69.998  1.00  0.00     1.037 OA 
HETATM   19  C   UNL     1     -10.767  17.767  68.382  1.00  0.00    -0.205 A  
HETATM   20  C   UNL     1     -11.524  16.112  71.844  1.00  0.00    -0.360 A  
HETATM   21  H   UNL     1     -12.988  16.526  68.407  1.00  0.00     0.000 HD 
HETATM   22  C   UNL     1     -12.380  16.105  72.982  1.00  0.00    -0.625 A  
HETATM   23  C   UNL     1      -9.580  18.518  68.153  1.00  0.00    -0.353 A  
HETATM   24  C   UNL     1      -8.456  17.827  68.537  1.00  0.00    -0.296 A  
HETATM   25  C   UNL     1     -13.631  15.619  72.683  1.00  0.00    -0.579 A  
HETATM   26  S   UNL     1      -8.835  16.284  69.159  1.00  0.00    -0.168 SA 
HETATM   27  S   UNL     1     -13.758  15.138  71.050  1.00  0.00    -0.312 SA 
ENDBRANCH  12  13
ENDBRANCH   6  12
TORSDOF 2
ENDMDL
MODEL       34
REMARK 921   NORMALIZED FREE ENERGY PREDICTED BY IDOCK:   -5.62 KCAL/MOL
REMARK 922        TOTAL FREE ENERGY PREDICTED BY IDOCK:   -7.26 KCAL/MOL
REMARK 923 INTER-LIGAND FREE ENERGY PREDICTED BY IDOCK:   -6.64 KCAL/MOL
REMARK 924 INTRA-LIGAND FREE ENERGY PREDICTED BY IDOCK:   -0.62 KCAL/MOL
REMARK 927      BINDING AFFINITY PREDICTED BY RF-SCORE:    0.00 PKD
ROOT
HETATM    1  C   UNL     1     -10.784   6.548  68.962  1.00  0.00    -0.278 C  
HETATM    2  O   UNL     1     -10.333   7.571  69.845  1.00  0.00    -0.212 OA 
HETATM    3  C   UNL     1      -9.393   6.545  69.553  1.00  0.00    -0.147 C  
HETATM    4  C   UNL     1      -8.445   6.706  68.375  1.00  0.00    -0.125 C  
HETATM    5  C   UNL     1      -8.169   8.189  68.069  1.00  0.00    -0.129 C  
HETATM    6  C   UNL     1      -9.395   9.002  67.573  1.00  0.00    -0.135 C  
HETATM    7  C   UNL     1     -10.575   8.169  67.016  1.00  0.00    -0.346 C  
HETATM    8  N   UNL     1      -9.197   6.076  67.176  1.00  0.00    -0.116 N  
HETATM    9  C   UNL     1     -10.590   6.697  67.459  1.00  0.00    -0.281 C  
HETATM   10  C   UNL     1      -9.258   4.544  67.334  1.00  0.00    -0.137 C  
HETATM   11  C   UNL     1      -8.603   6.322  65.798  1.00  0.00    -0.150 C  
ENDROOT
BRANCH   6  12
HETATM   12  O   UNL     1      -9.935   9.820  68.636  1.00  0.00    -0.158 OA 
BRANCH  12  13
HETATM   13  C   UNL     1      -9.829  11.180  68.503  1.00  0.00    -0.198 C  
HETATM   14  C   UNL     1     -11.210  11.795  68.097  1.00  0.00    -0.260 C  
HETATM   15  C   UNL     1     -11.196  12.333  66.671  1.00  0.00    -0.316 A  
HETATM   16  O   UNL     1     -12.254  10.808  68.103  1.00  0.00    -0.765 OA 
HETATM   17  C   UNL     1     -11.566  12.845  69.144  1.00  0.00    -0.322 A  
HETATM   18  O   UNL     1      -8.797  11.789  68.757  1.00  0.00    -0.102 OA 
HETATM   19  C   UNL     1     -12.279  12.453  65.808  1.00  0.00    -0.277 A  
HETATM   20  C   UNL     1     -11.270  14.200  69.158  1.00  0.00    -0.307 A  
HETATM   21  H   UNL     1     -13.093  11.181  67.856  1.00  0.00     0.000 HD 
HETATM   22  C   UNL     1     -11.743  14.862  70.328  1.00  0.00    -0.352 A  
HETATM   23  C   UNL     1     -11.931  13.001  64.541  1.00  0.00    -0.450 A  
HETATM   24  C   UNL     1     -10.593  13.302  64.465  1.00  0.00    -0.419 A  
HETATM   25  C   UNL     1     -12.384  13.999  71.185  1.00  0.00    -0.365 A  
HETATM   26  S   UNL     1      -9.767  12.919  65.908  1.00  0.00    -0.125 SA 
HETATM   27  S   UNL     1     -12.382  12.395  70.599  1.00  0.00    -0.172 SA 
ENDBRANCH  12  13
ENDBRANCH   6  12
TORSDOF 2
ENDMDL
MODEL       35
REMARK 921   NORMALIZED FREE ENERGY PREDICTED BY IDOCK:   -5.60 KCAL/MOL
REMARK 922        TOTAL FREE ENERGY PREDICTED BY IDOCK:   -7.24 KCAL/MOL
REMARK 923 INTER-LIGAND FREE ENERGY PREDICTED BY IDOCK:   -6.18 KCAL/MOL
REMARK 924 INTRA-LIGAND FREE ENERGY PREDICTED BY IDOCK:   -1.05 KCAL/MOL
REMARK 927      BINDING AFFINITY PREDICTED BY RF-SCORE:    0.00 PKD
ROOT
HETATM    1  C   UNL     1      -7.977  15.495  67.518  1.00  0.00    -0.168 C  
HETATM    2  O   UNL     1      -8.492  14.739  68.610  1.00  0.00    -0.155 OA 
HETATM    3  C   UNL     1      -8.744  16.138  68.651  1.00  0.00    -0.214 C  
HETATM    4  C   UNL     1     -10.015  16.691  68.024  1.00  0.00    -0.258 C  
HETATM    5  C   UNL     1     -11.147  15.648  68.025  1.00  0.00    -0.335 C  
HETATM    6  C   UNL     1     -10.898  14.401  67.133  1.00  0.00    -0.292 C  
HETATM    7  C   UNL     1      -9.818  14.563  66.036  1.00  0.00    -0.342 C  
HETATM    8  N   UNL     1      -9.625  17.011  66.560  1.00  0.00    -0.266 N  
HETATM    9  C   UNL     1      -8.825  15.713  66.273  1.00  0.00    -0.329 C  
HETATM   10  C   UNL     1      -8.685  18.231  66.517  1.00  0.00    -0.274 C  
HETATM   11  C   UNL     1     -10.766  17.338  65.611  1.00  0.00    -0.120 C  
ENDROOT
BRANCH   6  12
HETATM   12  O   UNL     1     -10.504  13.265  67.935  1.00  0.00    -0.230 OA 
BRANCH  12  13
HETATM   13  C   UNL     1     -10.853  12.020  67.481  1.00  0.00    -0.241 C  
HETATM   14  C   UNL     1      -9.591  11.099  67.397  1.00  0.00    -0.168 C  
HETATM   15  C   UNL     1      -9.215  10.777  65.955  1.00  0.00    -0.187 A  
HETATM   16  O   UNL     1      -8.426  11.740  67.941  1.00  0.00    -0.140 OA 
HETATM   17  C   UNL     1      -9.872   9.863  68.247  1.00  0.00    -0.147 A  
HETATM   18  O   UNL     1     -12.015  11.700  67.264  1.00  0.00    -0.627 OA 
HETATM   19  C   UNL     1      -7.952  10.470  65.465  1.00  0.00    -0.145 A  
HETATM   20  C   UNL     1     -10.445   8.657  67.872  1.00  0.00    -0.269 A  
HETATM   21  H   UNL     1      -7.659  11.181  67.890  1.00  0.00     0.000 HD 
HETATM   22  C   UNL     1     -10.578   7.742  68.956  1.00  0.00    -0.179 A  
HETATM   23  C   UNL     1      -7.939  10.212  64.065  1.00  0.00    -0.154 A  
HETATM   24  C   UNL     1      -9.194  10.313  63.515  1.00  0.00    -0.289 A  
HETATM   25  C   UNL     1     -10.110   8.269  70.135  1.00  0.00    -0.191 A  
HETATM   26  S   UNL     1     -10.372  10.723  64.680  1.00  0.00    -0.266 SA 
HETATM   27  S   UNL     1      -9.549   9.870  69.944  1.00  0.00    -0.197 SA 
ENDBRANCH  12  13
ENDBRANCH   6  12
TORSDOF 2
ENDMDL
MODEL       36
REMARK 921   NORMALIZED FREE ENERGY PREDICTED BY IDOCK:   -5.56 KCAL/MOL
REMARK 922        TOTAL FREE ENERGY PREDICTED BY IDOCK:   -7.19 KCAL/MOL
REMARK 923 INTER-LIGAND FREE ENERGY PREDICTED BY IDOCK:   -7.03 KCAL/MOL
REMARK 924 INTRA-LIGAND FREE ENERGY PREDICTED BY IDOCK:   -0.17 KCAL/MOL
REMARK 927      BINDING AFFINITY PREDICTED BY RF-SCORE:    0.00 PKD
ROOT
HETATM    1  C   UNL     1     -12.263   7.797  71.505  1.00  0.00    -0.318 C  
HETATM    2  O   UNL     1     -12.048   9.137  71.937  1.00  0.00    -0.349 OA 
HETATM    3  C   UNL     1     -11.328   8.135  72.643  1.00  0.00    -0.381 C  
HETATM    4  C   UNL     1      -9.940   7.731  72.168  1.00  0.00    -0.193 C  
HETATM    5  C   UNL     1      -9.239   8.882  71.425  1.00  0.00    -0.328 C  
HETATM    6  C   UNL     1      -9.898   9.301  70.083  1.00  0.00    -0.215 C  
HETATM    7  C   UNL     1     -10.849   8.259  69.445  1.00  0.00    -0.095 C  
HETATM    8  N   UNL     1     -10.187   6.566  71.178  1.00  0.00    -0.191 N  
HETATM    9  C   UNL     1     -11.384   7.195  70.417  1.00  0.00    -0.289 C  
HETATM   10  C   UNL     1     -10.647   5.309  71.941  1.00  0.00    -0.209 C  
HETATM   11  C   UNL     1      -8.997   6.126  70.340  1.00  0.00    -0.150 C  
ENDROOT
BRANCH   6  12
HETATM   12  O   UNL     1     -10.666  10.515  70.244  1.00  0.00    -0.253 OA 
BRANCH  12  13
HETATM   13  C   UNL     1     -11.212  11.071  69.116  1.00  0.00    -0.255 C  
HETATM   14  C   UNL     1     -10.136  11.906  68.346  1.00  0.00    -0.206 C  
HETATM   15  C   UNL     1     -10.425  13.401  68.404  1.00  0.00    -0.250 A  
HETATM   16  O   UNL     1      -8.832  11.765  68.933  1.00  0.00    -0.368 OA 
HETATM   17  C   UNL     1     -10.060  11.352  66.926  1.00  0.00    -0.214 A  
HETATM   18  O   UNL     1     -12.363  10.848  68.763  1.00  0.00    -0.495 OA 
HETATM   19  C   UNL     1      -9.504  14.439  68.324  1.00  0.00    -0.207 A  
HETATM   20  C   UNL     1     -10.774  11.734  65.800  1.00  0.00    -0.328 A  
HETATM   21  H   UNL     1      -8.178  12.272  68.466  1.00  0.00     0.000 HD 
HETATM   22  C   UNL     1     -10.454  10.959  64.648  1.00  0.00    -0.384 A  
HETATM   23  C   UNL     1     -10.101  15.729  68.405  1.00  0.00    -0.222 A  
HETATM   24  C   UNL     1     -11.467  15.652  68.531  1.00  0.00    -0.375 A  
HETATM   25  C   UNL     1      -9.510   9.998  64.919  1.00  0.00    -0.293 A  
HETATM   26  S   UNL     1     -12.018  14.038  68.559  1.00  0.00    -0.306 SA 
HETATM   27  S   UNL     1      -9.039  10.007  66.560  1.00  0.00    -0.151 SA 
ENDBRANCH  12  13
ENDBRANCH   6  12
TORSDOF 2
ENDMDL
MODEL       37
REMARK 921   NORMALIZED FREE ENERGY PREDICTED BY IDOCK:   -5.53 KCAL/MOL
REMARK 922        TOTAL FREE ENERGY PREDICTED BY IDOCK:   -7.15 KCAL/MOL
REMARK 923 INTER-LIGAND FREE ENERGY PREDICTED BY IDOCK:   -6.27 KCAL/MOL
REMARK 924 INTRA-LIGAND FREE ENERGY PREDICTED BY IDOCK:   -0.89 KCAL/MOL
REMARK 927      BINDING AFFINITY PREDICTED BY RF-SCORE:    0.00 PKD
ROOT
HETATM    1  C   UNL     1     -10.537   5.513  70.245  1.00  0.00    -0.287 C  
HETATM    2  O   UNL     1     -10.827   6.481  69.242  1.00  0.00    -0.248 OA 
HETATM    3  C   UNL     1     -11.771   6.383  70.299  1.00  0.00    -0.320 C  
HETATM    4  C   UNL     1     -11.608   7.253  71.536  1.00  0.00    -0.275 C  
HETATM    5  C   UNL     1     -10.862   8.560  71.215  1.00  0.00    -0.312 C  
HETATM    6  C   UNL     1      -9.381   8.387  70.779  1.00  0.00    -0.163 C  
HETATM    7  C   UNL     1      -8.721   7.039  71.158  1.00  0.00    -0.137 C  
HETATM    8  N   UNL     1     -10.745   6.404  72.503  1.00  0.00    -0.218 N  
HETATM    9  C   UNL     1      -9.708   5.901  71.463  1.00  0.00    -0.161 C  
HETATM   10  C   UNL     1     -11.566   5.219  73.047  1.00  0.00    -0.217 C  
HETATM   11  C   UNL     1     -10.196   7.119  73.727  1.00  0.00    -0.352 C  
ENDROOT
BRANCH   6  12
HETATM   12  O   UNL     1      -9.247   8.523  69.346  1.00  0.00    -0.152 OA 
BRANCH  12  13
HETATM   13  C   UNL     1      -8.932   9.764  68.856  1.00  0.00    -0.144 C  
HETATM   14  C   UNL     1     -10.001  10.222  67.810  1.00  0.00    -0.173 C  
HETATM   15  C   UNL     1      -9.434  10.264  66.396  1.00  0.00    -0.174 A  
HETATM   16  O   UNL     1     -11.101   9.301  67.733  1.00  0.00    -0.504 OA 
HETATM   17  C   UNL     1     -10.558  11.561  68.286  1.00  0.00    -0.200 A  
HETATM   18  O   UNL     1      -7.980  10.413  69.272  1.00  0.00    -0.133 OA 
HETATM   19  C   UNL     1     -10.132  10.103  65.205  1.00  0.00    -0.344 A  
HETATM   20  C   UNL     1     -10.116  12.843  67.997  1.00  0.00    -0.235 A  
HETATM   21  H   UNL     1     -11.750   9.579  67.098  1.00  0.00     0.000 HD 
HETATM   22  C   UNL     1     -10.873  13.855  68.655  1.00  0.00    -0.278 A  
HETATM   23  C   UNL     1      -9.306  10.204  64.050  1.00  0.00    -0.339 A  
HETATM   24  C   UNL     1      -7.996  10.453  64.380  1.00  0.00    -0.085 A  
HETATM   25  C   UNL     1     -11.871  13.325  69.437  1.00  0.00    -0.329 A  
HETATM   26  S   UNL     1      -7.768  10.556  66.067  1.00  0.00    -0.148 SA 
HETATM   27  S   UNL     1     -11.872  11.618  69.407  1.00  0.00    -0.341 SA 
ENDBRANCH  12  13
ENDBRANCH   6  12
TORSDOF 2
ENDMDL
MODEL       38
REMARK 921   NORMALIZED FREE ENERGY PREDICTED BY IDOCK:   -5.53 KCAL/MOL
REMARK 922        TOTAL FREE ENERGY PREDICTED BY IDOCK:   -7.15 KCAL/MOL
REMARK 923 INTER-LIGAND FREE ENERGY PREDICTED BY IDOCK:   -6.12 KCAL/MOL
REMARK 924 INTRA-LIGAND FREE ENERGY PREDICTED BY IDOCK:   -1.04 KCAL/MOL
REMARK 927      BINDING AFFINITY PREDICTED BY RF-SCORE:    0.00 PKD
ROOT
HETATM    1  C   UNL     1     -11.378   6.603  71.838  1.00  0.00    -0.279 C  
HETATM    2  O   UNL     1     -11.359   7.998  71.552  1.00  0.00    -0.248 OA 
HETATM    3  C   UNL     1     -11.188   7.643  72.918  1.00  0.00    -0.372 C  
HETATM    4  C   UNL     1      -9.787   7.416  73.465  1.00  0.00    -0.312 C  
HETATM    5  C   UNL     1      -8.736   8.224  72.685  1.00  0.00    -0.291 C  
HETATM    6  C   UNL     1      -8.544   7.803  71.202  1.00  0.00    -0.131 C  
HETATM    7  C   UNL     1      -9.054   6.389  70.833  1.00  0.00    -0.151 C  
HETATM    8  N   UNL     1      -9.522   5.905  73.253  1.00  0.00    -0.142 N  
HETATM    9  C   UNL     1     -10.085   5.800  71.810  1.00  0.00    -0.187 C  
HETATM   10  C   UNL     1     -10.387   5.073  74.220  1.00  0.00    -0.279 C  
HETATM   11  C   UNL     1      -8.094   5.431  73.468  1.00  0.00    -0.113 C  
ENDROOT
BRANCH   6  12
HETATM   12  O   UNL     1      -9.212   8.727  70.314  1.00  0.00    -0.157 OA 
BRANCH  12  13
HETATM   13  C   UNL     1      -8.830   8.725  68.997  1.00  0.00    -0.137 C  
HETATM   14  C   UNL     1     -10.056   8.415  68.076  1.00  0.00    -0.199 C  
HETATM   15  C   UNL     1      -9.938   7.049  67.411  1.00  0.00    -0.167 A  
HETATM   16  O   UNL     1     -11.281   8.349  68.824  1.00  0.00    -0.357 OA 
HETATM   17  C   UNL     1     -10.185   9.569  67.087  1.00  0.00    -0.242 A  
HETATM   18  O   UNL     1      -7.694   9.013  68.641  1.00  0.00    -0.094 OA 
HETATM   19  C   UNL     1     -10.975   6.229  66.986  1.00  0.00    -0.442 A  
HETATM   20  C   UNL     1      -9.617   9.709  65.829  1.00  0.00    -0.329 A  
HETATM   21  H   UNL     1     -12.026   8.161  68.265  1.00  0.00     0.000 HD 
HETATM   22  C   UNL     1      -9.940  10.949  65.207  1.00  0.00    -0.330 A  
HETATM   23  C   UNL     1     -10.527   5.014  66.395  1.00  0.00    -0.349 A  
HETATM   24  C   UNL     1      -9.156   4.936  66.366  1.00  0.00    -0.127 A  
HETATM   25  C   UNL     1     -10.742  11.732  66.003  1.00  0.00    -0.279 A  
HETATM   26  S   UNL     1      -8.421   6.313  67.054  1.00  0.00    -0.108 SA 
HETATM   27  S   UNL     1     -11.071  10.992  67.506  1.00  0.00    -0.294 SA 
ENDBRANCH  12  13
ENDBRANCH   6  12
TORSDOF 2
ENDMDL
MODEL       39
REMARK 921   NORMALIZED FREE ENERGY PREDICTED BY IDOCK:   -5.48 KCAL/MOL
REMARK 922        TOTAL FREE ENERGY PREDICTED BY IDOCK:   -7.11 KCAL/MOL
REMARK 923 INTER-LIGAND FREE ENERGY PREDICTED BY IDOCK:   -6.66 KCAL/MOL
REMARK 924 INTRA-LIGAND FREE ENERGY PREDICTED BY IDOCK:   -0.45 KCAL/MOL
REMARK 927      BINDING AFFINITY PREDICTED BY RF-SCORE:    0.00 PKD
ROOT
HETATM    1  C   UNL     1      -9.001  10.742  66.201  1.00  0.00    -0.177 C  
HETATM    2  O   UNL     1      -9.477  12.033  65.835  1.00  0.00    -0.234 OA 
HETATM    3  C   UNL     1     -10.451  10.998  65.858  1.00  0.00    -0.240 C  
HETATM    4  C   UNL     1     -11.230  10.727  67.136  1.00  0.00    -0.147 C  
HETATM    5  C   UNL     1     -11.350  11.991  68.005  1.00  0.00    -0.358 C  
HETATM    6  C   UNL     1     -10.012  12.525  68.585  1.00  0.00    -0.103 C  
HETATM    7  C   UNL     1      -8.841  11.513  68.617  1.00  0.00    -0.108 C  
HETATM    8  N   UNL     1     -10.387   9.671  67.894  1.00  0.00    -0.209 N  
HETATM    9  C   UNL     1      -8.995  10.317  67.664  1.00  0.00    -0.134 C  
HETATM   10  C   UNL     1     -10.465   8.312  67.173  1.00  0.00    -0.316 C  
HETATM   11  C   UNL     1     -10.785   9.395  69.335  1.00  0.00    -0.217 C  
ENDROOT
BRANCH   6  12
HETATM   12  O   UNL     1      -9.546  13.669  67.834  1.00  0.00    -0.208 OA 
BRANCH  12  13
HETATM   13  C   UNL     1     -10.291  14.818  67.907  1.00  0.00    -0.240 C  
HETATM   14  C   UNL     1      -9.966  15.593  69.227  1.00  0.00    -0.265 C  
HETATM   15  C   UNL     1     -11.138  15.576  70.201  1.00  0.00    -0.323 A  
HETATM   16  O   UNL     1      -8.884  14.984  69.950  1.00  0.00    -0.448 OA 
HETATM   17  C   UNL     1      -9.519  16.997  68.831  1.00  0.00    -0.235 A  
HETATM   18  O   UNL     1     -11.031  15.182  67.001  1.00  0.00    -0.314 OA 
HETATM   19  C   UNL     1     -11.081  15.668  71.586  1.00  0.00    -0.217 A  
HETATM   20  C   UNL     1     -10.283  18.142  68.664  1.00  0.00    -0.382 A  
HETATM   21  H   UNL     1      -8.687  15.454  70.751  1.00  0.00     0.000 HD 
HETATM   22  C   UNL     1      -9.515  19.271  68.255  1.00  0.00    -0.421 A  
HETATM   23  C   UNL     1     -12.361  15.627  72.207  1.00  0.00    -0.518 A  
HETATM   24  C   UNL     1     -13.373  15.519  71.283  1.00  0.00    -0.511 A  
HETATM   25  C   UNL     1      -8.183  18.963  68.113  1.00  0.00    -0.311 A  
HETATM   26  S   UNL     1     -12.778  15.459  69.685  1.00  0.00     0.239 SA 
HETATM   27  S   UNL     1      -7.868  17.316  68.434  1.00  0.00    -0.263 SA 
ENDBRANCH  12  13
ENDBRANCH   6  12
TORSDOF 2
ENDMDL
MODEL       40
REMARK 921   NORMALIZED FREE ENERGY PREDICTED BY IDOCK:   -5.46 KCAL/MOL
REMARK 922        TOTAL FREE ENERGY PREDICTED BY IDOCK:   -7.08 KCAL/MOL
REMARK 923 INTER-LIGAND FREE ENERGY PREDICTED BY IDOCK:   -6.27 KCAL/MOL
REMARK 924 INTRA-LIGAND FREE ENERGY PREDICTED BY IDOCK:   -0.81 KCAL/MOL
REMARK 927      BINDING AFFINITY PREDICTED BY RF-SCORE:    0.00 PKD
ROOT
HETATM    1  C   UNL     1     -12.410  12.844  65.555  1.00  0.00    -0.461 C  
HETATM    2  O   UNL     1     -11.671  11.661  65.837  1.00  0.00    -0.348 OA 
HETATM    3  C   UNL     1     -11.041  12.593  64.969  1.00  0.00    -0.291 C  
HETATM    4  C   UNL     1     -10.140  13.672  65.550  1.00  0.00    -0.275 C  
HETATM    5  C   UNL     1      -9.508  13.226  66.881  1.00  0.00    -0.249 C  
HETATM    6  C   UNL     1     -10.507  13.016  68.051  1.00  0.00    -0.228 C  
HETATM    7  C   UNL     1     -11.886  13.700  67.890  1.00  0.00    -0.402 C  
HETATM    8  N   UNL     1     -11.085  14.871  65.817  1.00  0.00    -0.337 N  
HETATM    9  C   UNL     1     -12.257  14.071  66.444  1.00  0.00    -0.460 C  
HETATM   10  C   UNL     1     -11.529  15.503  64.484  1.00  0.00    -0.308 C  
HETATM   11  C   UNL     1     -10.514  16.012  66.643  1.00  0.00    -0.304 C  
ENDROOT
BRANCH   6  12
HETATM   12  O   UNL     1     -10.768  11.609  68.258  1.00  0.00    -0.194 OA 
BRANCH  12  13
HETATM   13  C   UNL     1      -9.706  10.814  68.606  1.00  0.00    -0.186 C  
HETATM   14  C   UNL     1      -9.922   9.358  68.076  1.00  0.00    -0.176 C  
HETATM   15  C   UNL     1     -10.163   8.369  69.211  1.00  0.00    -0.208 A  
HETATM   16  O   UNL     1     -11.095   9.258  67.252  1.00  0.00    -0.352 OA 
HETATM   17  C   UNL     1      -8.719   9.008  67.204  1.00  0.00    -0.116 A  
HETATM   18  O   UNL     1      -8.716  11.252  69.178  1.00  0.00    -0.030 OA 
HETATM   19  C   UNL     1     -10.879   7.180  69.151  1.00  0.00    -0.185 A  
HETATM   20  C   UNL     1      -7.521   8.411  67.568  1.00  0.00    -0.094 A  
HETATM   21  H   UNL     1     -11.226   8.374  66.931  1.00  0.00     0.000 HD 
HETATM   22  C   UNL     1      -6.614   8.272  66.478  1.00  0.00    -0.056 A  
HETATM   23  C   UNL     1     -10.913   6.479  70.390  1.00  0.00    -0.353 A  
HETATM   24  C   UNL     1     -10.210   7.140  71.368  1.00  0.00    -0.192 A  
HETATM   25  C   UNL     1      -7.135   8.770  65.307  1.00  0.00    -0.083 A  
HETATM   26  S   UNL     1      -9.525   8.593  70.795  1.00  0.00    -0.207 SA 
HETATM   27  S   UNL     1      -8.692   9.435  65.530  1.00  0.00    -0.175 SA 
ENDBRANCH  12  13
ENDBRANCH   6  12
TORSDOF 2
ENDMDL
MODEL       41
REMARK 921   NORMALIZED FREE ENERGY PREDICTED BY IDOCK:   -5.43 KCAL/MOL
REMARK 922        TOTAL FREE ENERGY PREDICTED BY IDOCK:   -7.05 KCAL/MOL
REMARK 923 INTER-LIGAND FREE ENERGY PREDICTED BY IDOCK:   -6.36 KCAL/MOL
REMARK 924 INTRA-LIGAND FREE ENERGY PREDICTED BY IDOCK:   -0.69 KCAL/MOL
REMARK 927      BINDING AFFINITY PREDICTED BY RF-SCORE:    0.00 PKD
ROOT
HETATM    1  C   UNL     1     -10.597  13.806  68.081  1.00  0.00    -0.253 C  
HETATM    2  O   UNL     1     -11.041  12.737  68.910  1.00  0.00    -0.252 OA 
HETATM    3  C   UNL     1     -11.876  13.050  67.803  1.00  0.00    -0.347 C  
HETATM    4  C   UNL     1     -11.656  12.345  66.473  1.00  0.00    -0.387 C  
HETATM    5  C   UNL     1     -11.030  10.953  66.667  1.00  0.00    -0.212 C  
HETATM    6  C   UNL     1      -9.588  10.950  67.243  1.00  0.00    -0.164 C  
HETATM    7  C   UNL     1      -8.809  12.281  67.114  1.00  0.00    -0.194 C  
HETATM    8  N   UNL     1     -10.654  13.247  65.711  1.00  0.00    -0.279 N  
HETATM    9  C   UNL     1      -9.687  13.523  66.893  1.00  0.00    -0.261 C  
HETATM   10  C   UNL     1     -11.343  14.555  65.274  1.00  0.00    -0.353 C  
HETATM   11  C   UNL     1     -10.043  12.664  64.447  1.00  0.00    -0.256 C  
ENDROOT
BRANCH   6  12
HETATM   12  O   UNL     1      -9.596  10.612  68.649  1.00  0.00    -0.164 OA 
BRANCH  12  13
HETATM   13  C   UNL     1      -9.013   9.427  69.016  1.00  0.00    -0.141 C  
HETATM   14  C   UNL     1     -10.093   8.440  69.571  1.00  0.00    -0.200 C  
HETATM   15  C   UNL     1      -9.934   8.203  71.068  1.00  0.00    -0.187 A  
HETATM   16  O   UNL     1     -11.421   8.967  69.426  1.00  0.00    -0.413 OA 
HETATM   17  C   UNL     1     -10.014   7.164  68.737  1.00  0.00    -0.163 A  
HETATM   18  O   UNL     1      -7.823   9.195  68.839  1.00  0.00    -0.091 OA 
HETATM   19  C   UNL     1     -10.928   7.857  71.974  1.00  0.00    -0.329 A  
HETATM   20  C   UNL     1      -9.250   6.026  68.952  1.00  0.00    -0.125 A  
HETATM   21  H   UNL     1     -12.077   8.368  69.762  1.00  0.00     0.000 HD 
HETATM   22  C   UNL     1      -9.415   5.043  67.935  1.00  0.00    -0.164 A  
HETATM   23  C   UNL     1     -10.448   7.703  73.306  1.00  0.00    -0.414 A  
HETATM   24  C   UNL     1      -9.094   7.920  73.388  1.00  0.00    -0.283 A  
HETATM   25  C   UNL     1     -10.295   5.452  66.961  1.00  0.00    -0.248 A  
HETATM   26  S   UNL     1      -8.415   8.314  71.874  1.00  0.00    -0.175 SA 
HETATM   27  S   UNL     1     -10.889   7.026  67.254  1.00  0.00    -0.309 SA 
ENDBRANCH  12  13
ENDBRANCH   6  12
TORSDOF 2
ENDMDL
MODEL       42
REMARK 921   NORMALIZED FREE ENERGY PREDICTED BY IDOCK:   -5.43 KCAL/MOL
REMARK 922        TOTAL FREE ENERGY PREDICTED BY IDOCK:   -7.05 KCAL/MOL
REMARK 923 INTER-LIGAND FREE ENERGY PREDICTED BY IDOCK:   -6.55 KCAL/MOL
REMARK 924 INTRA-LIGAND FREE ENERGY PREDICTED BY IDOCK:   -0.50 KCAL/MOL
REMARK 927      BINDING AFFINITY PREDICTED BY RF-SCORE:    0.00 PKD
ROOT
HETATM    1  C   UNL     1     -10.306  15.402  69.956  1.00  0.00    -0.272 C  
HETATM    2  O   UNL     1     -11.163  14.285  69.745  1.00  0.00    -0.243 OA 
HETATM    3  C   UNL     1     -11.566  15.500  69.128  1.00  0.00    -0.362 C  
HETATM    4  C   UNL     1     -11.105  15.814  67.713  1.00  0.00    -0.313 C  
HETATM    5  C   UNL     1     -10.834  14.531  66.908  1.00  0.00    -0.305 C  
HETATM    6  C   UNL     1      -9.648  13.668  67.418  1.00  0.00    -0.226 C  
HETATM    7  C   UNL     1      -8.631  14.394  68.332  1.00  0.00    -0.174 C  
HETATM    8  N   UNL     1      -9.775  16.587  67.894  1.00  0.00    -0.233 N  
HETATM    9  C   UNL     1      -9.159  15.678  68.992  1.00  0.00    -0.241 C  
HETATM   10  C   UNL     1     -10.051  17.992  68.464  1.00  0.00    -0.393 C  
HETATM   11  C   UNL     1      -8.944  16.808  66.641  1.00  0.00    -0.250 C  
ENDROOT
BRANCH   6  12
HETATM   12  O   UNL     1     -10.127  12.525  68.162  1.00  0.00    -0.213 OA 
BRANCH  12  13
HETATM   13  C   UNL     1     -10.601  11.457  67.444  1.00  0.00    -0.218 C  
HETATM   14  C   UNL     1      -9.435  10.471  67.104  1.00  0.00    -0.159 C  
HETATM   15  C   UNL     1      -9.111  10.463  65.615  1.00  0.00    -0.176 A  
HETATM   16  O   UNL     1      -8.207  10.858  67.741  1.00  0.00    -0.114 OA 
HETATM   17  C   UNL     1      -9.823   9.101  67.654  1.00  0.00    -0.172 A  
HETATM   18  O   UNL     1     -11.791  11.305  67.200  1.00  0.00    -0.524 OA 
HETATM   19  C   UNL     1      -7.890  10.165  65.022  1.00  0.00    -0.140 A  
HETATM   20  C   UNL     1     -10.516   8.074  67.029  1.00  0.00    -0.410 A  
HETATM   21  H   UNL     1      -7.498  10.259  67.535  1.00  0.00     0.000 HD 
HETATM   22  C   UNL     1     -10.723   6.947  67.875  1.00  0.00    -0.294 A  
HETATM   23  C   UNL     1      -7.920  10.243  63.601  1.00  0.00    -0.139 A  
HETATM   24  C   UNL     1      -9.166  10.584  63.135  1.00  0.00    -0.292 A  
HETATM   25  C   UNL     1     -10.190   7.138  69.128  1.00  0.00    -0.194 A  
HETATM   26  S   UNL     1     -10.284  10.815  64.403  1.00  0.00    -0.331 SA 
HETATM   27  S   UNL     1      -9.479   8.681  69.294  1.00  0.00    -0.159 SA 
ENDBRANCH  12  13
ENDBRANCH   6  12
TORSDOF 2
ENDMDL
MODEL       43
REMARK 921   NORMALIZED FREE ENERGY PREDICTED BY IDOCK:   -5.40 KCAL/MOL
REMARK 922        TOTAL FREE ENERGY PREDICTED BY IDOCK:   -7.01 KCAL/MOL
REMARK 923 INTER-LIGAND FREE ENERGY PREDICTED BY IDOCK:   -6.41 KCAL/MOL
REMARK 924 INTRA-LIGAND FREE ENERGY PREDICTED BY IDOCK:   -0.60 KCAL/MOL
REMARK 927      BINDING AFFINITY PREDICTED BY RF-SCORE:    0.00 PKD
ROOT
HETATM    1  C   UNL     1      -7.926   9.169  70.913  1.00  0.00    -0.157 C  
HETATM    2  O   UNL     1      -7.876  10.104  69.840  1.00  0.00    -0.167 OA 
HETATM    3  C   UNL     1      -7.566   8.758  69.504  1.00  0.00    -0.080 C  
HETATM    4  C   UNL     1      -8.675   7.821  69.052  1.00  0.00    -0.135 C  
HETATM    5  C   UNL     1      -9.833   8.590  68.392  1.00  0.00    -0.189 C  
HETATM    6  C   UNL     1     -10.618   9.542  69.334  1.00  0.00    -0.219 C  
HETATM    7  C   UNL     1     -10.464   9.266  70.850  1.00  0.00    -0.372 C  
HETATM    8  N   UNL     1      -9.187   7.161  70.357  1.00  0.00    -0.156 N  
HETATM    9  C   UNL     1      -9.225   8.441  71.233  1.00  0.00    -0.178 C  
HETATM   10  C   UNL     1      -8.134   6.177  70.903  1.00  0.00    -0.121 C  
HETATM   11  C   UNL     1     -10.478   6.364  70.251  1.00  0.00    -0.219 C  
ENDROOT
BRANCH   6  12
HETATM   12  O   UNL     1     -10.222  10.916  69.124  1.00  0.00    -0.213 OA 
BRANCH  12  13
HETATM   13  C   UNL     1     -11.180  11.787  68.673  1.00  0.00    -0.257 C  
HETATM   14  C   UNL     1     -10.603  13.240  68.601  1.00  0.00    -0.246 C  
HETATM   15  C   UNL     1     -11.228  14.154  69.648  1.00  0.00    -0.191 A  
HETATM   16  O   UNL     1      -9.195  13.268  68.889  1.00  0.00    -0.388 OA 
HETATM   17  C   UNL     1     -10.787  13.733  67.169  1.00  0.00    -0.283 A  
HETATM   18  O   UNL     1     -12.291  11.416  68.313  1.00  0.00    -0.506 OA 
HETATM   19  C   UNL     1     -10.655  15.276  70.234  1.00  0.00    -0.257 A  
HETATM   20  C   UNL     1     -11.857  14.418  66.613  1.00  0.00    -0.417 A  
HETATM   21  H   UNL     1      -8.844  14.150  68.846  1.00  0.00     0.000 HD 
HETATM   22  C   UNL     1     -11.686  14.684  65.223  1.00  0.00    -0.346 A  
HETATM   23  C   UNL     1     -11.508  15.917  71.176  1.00  0.00    -0.471 A  
HETATM   24  C   UNL     1     -12.721  15.282  71.281  1.00  0.00    -0.401 A  
HETATM   25  C   UNL     1     -10.495  14.191  64.747  1.00  0.00    -0.408 A  
HETATM   26  S   UNL     1     -12.822  13.921  70.258  1.00  0.00     0.061 SA 
HETATM   27  S   UNL     1      -9.606  13.381  65.958  1.00  0.00    -0.090 SA 
ENDBRANCH  12  13
ENDBRANCH   6  12
TORSDOF 2
ENDMDL
MODEL       44
REMARK 921   NORMALIZED FREE ENERGY PREDICTED BY IDOCK:   -5.36 KCAL/MOL
REMARK 922        TOTAL FREE ENERGY PREDICTED BY IDOCK:   -6.97 KCAL/MOL
REMARK 923 INTER-LIGAND FREE ENERGY PREDICTED BY IDOCK:   -6.06 KCAL/MOL
REMARK 924 INTRA-LIGAND FREE ENERGY PREDICTED BY IDOCK:   -0.91 KCAL/MOL
REMARK 927      BINDING AFFINITY PREDICTED BY RF-SCORE:    0.00 PKD
ROOT
HETATM    1  C   UNL     1      -8.087  10.942  69.306  1.00  0.00    -0.055 C  
HETATM    2  O   UNL     1      -7.535  12.096  68.681  1.00  0.00    -0.111 OA 
HETATM    3  C   UNL     1      -7.354  10.869  67.986  1.00  0.00    -0.088 C  
HETATM    4  C   UNL     1      -8.388  10.424  66.965  1.00  0.00    -0.127 C  
HETATM    5  C   UNL     1      -9.122  11.624  66.341  1.00  0.00    -0.209 C  
HETATM    6  C   UNL     1     -10.008  12.440  67.320  1.00  0.00    -0.206 C  
HETATM    7  C   UNL     1     -10.411  11.715  68.627  1.00  0.00    -0.229 C  
HETATM    8  N   UNL     1      -9.403   9.579  67.775  1.00  0.00    -0.128 N  
HETATM    9  C   UNL     1      -9.519  10.520  69.003  1.00  0.00    -0.201 C  
HETATM   10  C   UNL     1      -8.763   8.240  68.193  1.00  0.00    -0.136 C  
HETATM   11  C   UNL     1     -10.697   9.212  67.067  1.00  0.00    -0.118 C  
ENDROOT
BRANCH   6  12
HETATM   12  O   UNL     1      -9.348  13.664  67.715  1.00  0.00    -0.201 OA 
BRANCH  12  13
HETATM   13  C   UNL     1     -10.128  14.780  67.872  1.00  0.00    -0.221 C  
HETATM   14  C   UNL     1      -9.817  15.470  69.242  1.00  0.00    -0.270 C  
HETATM   15  C   UNL     1     -10.981  15.347  70.219  1.00  0.00    -0.315 A  
HETATM   16  O   UNL     1      -8.711  14.847  69.914  1.00  0.00    -0.436 OA 
HETATM   17  C   UNL     1      -9.417  16.913  68.944  1.00  0.00    -0.241 A  
HETATM   18  O   UNL     1     -10.885  15.183  66.998  1.00  0.00    -0.303 OA 
HETATM   19  C   UNL     1     -10.916  15.344  71.607  1.00  0.00    -0.122 A  
HETATM   20  C   UNL     1     -10.219  18.042  68.862  1.00  0.00    -0.320 A  
HETATM   21  H   UNL     1      -8.523  15.266  70.746  1.00  0.00     0.000 HD 
HETATM   22  C   UNL     1      -9.490  19.220  68.530  1.00  0.00    -0.447 A  
HETATM   23  C   UNL     1     -12.189  15.218  72.230  1.00  0.00    -0.466 A  
HETATM   24  C   UNL     1     -13.204  15.143  71.307  1.00  0.00    -0.464 A  
HETATM   25  C   UNL     1      -8.150  18.965  68.359  1.00  0.00    -0.341 A  
HETATM   26  S   UNL     1     -12.620  15.215  69.705  1.00  0.00    -0.036 SA 
HETATM   27  S   UNL     1      -7.780  17.311  68.561  1.00  0.00    -0.269 SA 
ENDBRANCH  12  13
ENDBRANCH   6  12
TORSDOF 2
ENDMDL
MODEL       45
REMARK 921   NORMALIZED FREE ENERGY PREDICTED BY IDOCK:   -5.29 KCAL/MOL
REMARK 922        TOTAL FREE ENERGY PREDICTED BY IDOCK:   -6.89 KCAL/MOL
REMARK 923 INTER-LIGAND FREE ENERGY PREDICTED BY IDOCK:   -6.75 KCAL/MOL
REMARK 924 INTRA-LIGAND FREE ENERGY PREDICTED BY IDOCK:   -0.14 KCAL/MOL
REMARK 927      BINDING AFFINITY PREDICTED BY RF-SCORE:    0.00 PKD
ROOT
HETATM    1  C   UNL     1     -10.246  14.722  67.749  1.00  0.00    -0.232 C  
HETATM    2  O   UNL     1     -10.916  13.903  68.702  1.00  0.00    -0.244 OA 
HETATM    3  C   UNL     1     -11.704  14.350  67.607  1.00  0.00    -0.391 C  
HETATM    4  C   UNL     1     -11.791  13.502  66.347  1.00  0.00    -0.394 C  
HETATM    5  C   UNL     1     -11.576  12.009  66.653  1.00  0.00    -0.389 C  
HETATM    6  C   UNL     1     -10.158  11.635  67.162  1.00  0.00    -0.204 C  
HETATM    7  C   UNL     1      -9.042  12.667  66.864  1.00  0.00    -0.218 C  
HETATM    8  N   UNL     1     -10.630  14.005  65.453  1.00  0.00    -0.322 N  
HETATM    9  C   UNL     1      -9.543  14.087  66.557  1.00  0.00    -0.293 C  
HETATM   10  C   UNL     1     -10.947  15.415  64.917  1.00  0.00    -0.437 C  
HETATM   11  C   UNL     1     -10.304  13.165  64.230  1.00  0.00    -0.339 C  
ENDROOT
BRANCH   6  12
HETATM   12  O   UNL     1     -10.160  11.434  68.594  1.00  0.00    -0.203 OA 
BRANCH  12  13
HETATM   13  C   UNL     1      -9.395  10.411  69.089  1.00  0.00    -0.199 C  
HETATM   14  C   UNL     1     -10.160   9.052  68.965  1.00  0.00    -0.195 C  
HETATM   15  C   UNL     1     -10.570   8.502  70.327  1.00  0.00    -0.226 A  
HETATM   16  O   UNL     1     -11.396   9.199  68.247  1.00  0.00    -0.379 OA 
HETATM   17  C   UNL     1      -9.275   8.102  68.163  1.00  0.00    -0.133 A  
HETATM   18  O   UNL     1      -8.248  10.578  69.486  1.00  0.00    -0.151 OA 
HETATM   19  C   UNL     1     -11.648   7.672  70.608  1.00  0.00    -0.251 A  
HETATM   20  C   UNL     1      -8.313   7.212  68.617  1.00  0.00    -0.125 A  
HETATM   21  H   UNL     1     -11.861   8.374  68.172  1.00  0.00     0.000 HD 
HETATM   22  C   UNL     1      -7.661   6.511  67.562  1.00  0.00    -0.105 A  
HETATM   23  C   UNL     1     -11.752   7.332  71.987  1.00  0.00    -0.329 A  
HETATM   24  C   UNL     1     -10.743   7.896  72.729  1.00  0.00    -0.371 A  
HETATM   25  C   UNL     1      -8.132   6.884  66.326  1.00  0.00    -0.112 A  
HETATM   26  S   UNL     1      -9.689   8.833  71.770  1.00  0.00    -0.301 SA 
HETATM   27  S   UNL     1      -9.327   8.099  66.436  1.00  0.00    -0.203 SA 
ENDBRANCH  12  13
ENDBRANCH   6  12
TORSDOF 2
ENDMDL
MODEL       46
REMARK 921   NORMALIZED FREE ENERGY PREDICTED BY IDOCK:   -5.28 KCAL/MOL
REMARK 922        TOTAL FREE ENERGY PREDICTED BY IDOCK:   -6.88 KCAL/MOL
REMARK 923 INTER-LIGAND FREE ENERGY PREDICTED BY IDOCK:   -5.92 KCAL/MOL
REMARK 924 INTRA-LIGAND FREE ENERGY PREDICTED BY IDOCK:   -0.95 KCAL/MOL
REMARK 927      BINDING AFFINITY PREDICTED BY RF-SCORE:    0.00 PKD
ROOT
HETATM    1  C   UNL     1     -11.682   7.797  71.549  1.00  0.00    -0.280 C  
HETATM    2  O   UNL     1     -11.229   9.041  71.024  1.00  0.00    -0.257 OA 
HETATM    3  C   UNL     1     -10.309   8.350  71.858  1.00  0.00    -0.283 C  
HETATM    4  C   UNL     1      -9.323   7.371  71.241  1.00  0.00    -0.153 C  
HETATM    5  C   UNL     1      -8.998   7.739  69.782  1.00  0.00    -0.146 C  
HETATM    6  C   UNL     1     -10.186   7.624  68.789  1.00  0.00    -0.199 C  
HETATM    7  C   UNL     1     -11.371   6.744  69.257  1.00  0.00    -0.224 C  
HETATM    8  N   UNL     1     -10.055   6.006  71.265  1.00  0.00    -0.188 N  
HETATM    9  C   UNL     1     -11.439   6.508  70.774  1.00  0.00    -0.360 C  
HETATM   10  C   UNL     1     -10.163   5.487  72.712  1.00  0.00    -0.186 C  
HETATM   11  C   UNL     1      -9.415   4.879  70.471  1.00  0.00    -0.166 C  
ENDROOT
BRANCH   6  12
HETATM   12  O   UNL     1     -10.735   8.928  68.490  1.00  0.00    -0.178 OA 
BRANCH  12  13
HETATM   13  C   UNL     1     -10.082   9.688  67.554  1.00  0.00    -0.197 C  
HETATM   14  C   UNL     1      -9.813  11.124  68.114  1.00  0.00    -0.180 C  
HETATM   15  C   UNL     1     -10.650  12.180  67.400  1.00  0.00    -0.226 A  
HETATM   16  O   UNL     1     -10.189  11.237  69.496  1.00  0.00    -0.437 OA 
HETATM   17  C   UNL     1      -8.310  11.373  68.026  1.00  0.00    -0.143 A  
HETATM   18  O   UNL     1      -9.711   9.234  66.479  1.00  0.00    -0.200 OA 
HETATM   19  C   UNL     1     -11.083  13.397  67.912  1.00  0.00    -0.289 A  
HETATM   20  C   UNL     1      -7.576  11.930  66.990  1.00  0.00    -0.134 A  
HETATM   21  H   UNL     1     -10.026  12.109  69.836  1.00  0.00     0.000 HD 
HETATM   22  C   UNL     1      -6.177  11.971  67.257  1.00  0.00    -0.149 A  
HETATM   23  C   UNL     1     -11.845  14.160  66.983  1.00  0.00    -0.458 A  
HETATM   24  C   UNL     1     -11.968  13.517  65.775  1.00  0.00    -0.403 A  
HETATM   25  C   UNL     1      -5.872  11.440  68.488  1.00  0.00    -0.042 A  
HETATM   26  S   UNL     1     -11.177  12.006  65.769  1.00  0.00    -0.321 SA 
HETATM   27  S   UNL     1      -7.259  10.861  69.298  1.00  0.00    -0.124 SA 
ENDBRANCH  12  13
ENDBRANCH   6  12
TORSDOF 2
ENDMDL
MODEL       47
REMARK 921   NORMALIZED FREE ENERGY PREDICTED BY IDOCK:   -5.26 KCAL/MOL
REMARK 922        TOTAL FREE ENERGY PREDICTED BY IDOCK:   -6.85 KCAL/MOL
REMARK 923 INTER-LIGAND FREE ENERGY PREDICTED BY IDOCK:   -6.25 KCAL/MOL
REMARK 924 INTRA-LIGAND FREE ENERGY PREDICTED BY IDOCK:   -0.60 KCAL/MOL
REMARK 927      BINDING AFFINITY PREDICTED BY RF-SCORE:    0.00 PKD
ROOT
HETATM    1  C   UNL     1     -10.339   9.240  67.394  1.00  0.00    -0.263 C  
HETATM    2  O   UNL     1     -10.186  10.138  68.488  1.00  0.00    -0.161 OA 
HETATM    3  C   UNL     1      -8.987   9.562  67.987  1.00  0.00    -0.123 C  
HETATM    4  C   UNL     1      -8.214  10.272  66.887  1.00  0.00    -0.123 C  
HETATM    5  C   UNL     1      -8.445  11.793  66.923  1.00  0.00    -0.174 C  
HETATM    6  C   UNL     1      -9.895  12.250  66.605  1.00  0.00    -0.220 C  
HETATM    7  C   UNL     1     -10.777  11.219  65.861  1.00  0.00    -0.291 C  
HETATM    8  N   UNL     1      -8.795   9.705  65.568  1.00  0.00    -0.160 N  
HETATM    9  C   UNL     1     -10.294   9.763  65.964  1.00  0.00    -0.114 C  
HETATM   10  C   UNL     1      -8.354   8.240  65.381  1.00  0.00    -0.162 C  
HETATM   11  C   UNL     1      -8.396  10.421  64.288  1.00  0.00    -0.138 C  
ENDROOT
BRANCH   6  12
HETATM   12  O   UNL     1     -10.602  12.599  67.817  1.00  0.00    -0.214 OA 
BRANCH  12  13
HETATM   13  C   UNL     1     -11.246  13.809  67.846  1.00  0.00    -0.274 C  
HETATM   14  C   UNL     1     -10.500  14.797  68.802  1.00  0.00    -0.250 C  
HETATM   15  C   UNL     1     -11.312  15.098  70.057  1.00  0.00    -0.277 A  
HETATM   16  O   UNL     1      -9.270  14.240  69.292  1.00  0.00    -0.394 OA 
HETATM   17  C   UNL     1     -10.148  16.039  67.988  1.00  0.00    -0.240 A  
HETATM   18  O   UNL     1     -12.216  14.055  67.141  1.00  0.00    -0.419 OA 
HETATM   19  C   UNL     1     -10.825  15.463  71.306  1.00  0.00    -0.102 A  
HETATM   20  C   UNL     1     -10.885  17.199  67.801  1.00  0.00    -0.270 A  
HETATM   21  H   UNL     1      -8.817  14.840  69.873  1.00  0.00     0.000 HD 
HETATM   22  C   UNL     1     -10.242  18.136  66.942  1.00  0.00    -0.380 A  
HETATM   23  C   UNL     1     -11.850  15.680  72.269  1.00  0.00    -0.578 A  
HETATM   24  C   UNL     1     -13.101  15.492  71.734  1.00  0.00    -0.466 A  
HETATM   25  C   UNL     1      -9.031  17.670  66.486  1.00  0.00    -0.262 A  
HETATM   26  S   UNL     1     -13.034  15.049  70.088  1.00  0.00     0.020 SA 
HETATM   27  S   UNL     1      -8.691  16.099  67.061  1.00  0.00    -0.221 SA 
ENDBRANCH  12  13
ENDBRANCH   6  12
TORSDOF 2
ENDMDL
MODEL       48
REMARK 921   NORMALIZED FREE ENERGY PREDICTED BY IDOCK:   -5.25 KCAL/MOL
REMARK 922        TOTAL FREE ENERGY PREDICTED BY IDOCK:   -6.85 KCAL/MOL
REMARK 923 INTER-LIGAND FREE ENERGY PREDICTED BY IDOCK:   -6.64 KCAL/MOL
REMARK 924 INTRA-LIGAND FREE ENERGY PREDICTED BY IDOCK:   -0.21 KCAL/MOL
REMARK 927      BINDING AFFINITY PREDICTED BY RF-SCORE:    0.00 PKD
ROOT
HETATM    1  C   UNL     1     -10.871   7.475  69.510  1.00  0.00    -0.175 C  
HETATM    2  O   UNL     1     -10.533   8.505  70.433  1.00  0.00    -0.198 OA 
HETATM    3  C   UNL     1      -9.535   7.517  70.214  1.00  0.00    -0.165 C  
HETATM    4  C   UNL     1      -8.499   7.723  69.119  1.00  0.00    -0.138 C  
HETATM    5  C   UNL     1      -8.254   9.218  68.846  1.00  0.00    -0.111 C  
HETATM    6  C   UNL     1      -9.465   9.990  68.255  1.00  0.00    -0.140 C  
HETATM    7  C   UNL     1     -10.563   9.119  67.597  1.00  0.00    -0.307 C  
HETATM    8  N   UNL     1      -9.125   7.077  67.858  1.00  0.00    -0.128 N  
HETATM    9  C   UNL     1     -10.560   7.644  68.028  1.00  0.00    -0.151 C  
HETATM   10  C   UNL     1      -9.143   5.543  68.002  1.00  0.00    -0.108 C  
HETATM   11  C   UNL     1      -8.430   7.357  66.536  1.00  0.00    -0.128 C  
ENDROOT
BRANCH   6  12
HETATM   12  O   UNL     1     -10.120  10.778  69.275  1.00  0.00    -0.218 OA 
BRANCH  12  13
HETATM   13  C   UNL     1     -11.169  11.570  68.884  1.00  0.00    -0.247 C  
HETATM   14  C   UNL     1     -10.659  13.004  68.520  1.00  0.00    -0.258 C  
HETATM   15  C   UNL     1     -11.126  14.048  69.527  1.00  0.00    -0.153 A  
HETATM   16  O   UNL     1      -9.225  13.084  68.552  1.00  0.00    -0.330 OA 
HETATM   17  C   UNL     1     -11.101  13.294  67.088  1.00  0.00    -0.286 A  
HETATM   18  O   UNL     1     -12.311  11.144  68.775  1.00  0.00    -0.539 OA 
HETATM   19  C   UNL     1     -10.498  15.245  69.849  1.00  0.00    -0.277 A  
HETATM   20  C   UNL     1     -12.271  13.887  66.638  1.00  0.00    -0.465 A  
HETATM   21  H   UNL     1      -8.915  13.955  68.331  1.00  0.00     0.000 HD 
HETATM   22  C   UNL     1     -12.349  13.960  65.218  1.00  0.00    -0.485 A  
HETATM   23  C   UNL     1     -11.198  16.003  70.830  1.00  0.00    -0.381 A  
HETATM   24  C   UNL     1     -12.355  15.377  71.228  1.00  0.00    -0.385 A  
HETATM   25  C   UNL     1     -11.241  13.417  64.612  1.00  0.00    -0.359 A  
HETATM   26  S   UNL     1     -12.585  13.887  70.429  1.00  0.00    -0.234 SA 
HETATM   27  S   UNL     1     -10.132  12.789  65.749  1.00  0.00    -0.273 SA 
ENDBRANCH  12  13
ENDBRANCH   6  12
TORSDOF 2
ENDMDL
MODEL       49
REMARK 921   NORMALIZED FREE ENERGY PREDICTED BY IDOCK:   -5.23 KCAL/MOL
REMARK 922        TOTAL FREE ENERGY PREDICTED BY IDOCK:   -6.83 KCAL/MOL
REMARK 923 INTER-LIGAND FREE ENERGY PREDICTED BY IDOCK:   -6.23 KCAL/MOL
REMARK 924 INTRA-LIGAND FREE ENERGY PREDICTED BY IDOCK:   -0.60 KCAL/MOL
REMARK 927      BINDING AFFINITY PREDICTED BY RF-SCORE:    0.00 PKD
ROOT
HETATM    1  C   UNL     1     -10.664  14.410  64.383  1.00  0.00    -0.034 C  
HETATM    2  O   UNL     1     -11.088  15.689  64.845  1.00  0.00    -0.411 OA 
HETATM    3  C   UNL     1     -12.117  14.728  64.648  1.00  0.00    -0.427 C  
HETATM    4  C   UNL     1     -12.533  13.825  65.799  1.00  0.00    -0.485 C  
HETATM    5  C   UNL     1     -12.275  14.490  67.163  1.00  0.00    -0.187 C  
HETATM    6  C   UNL     1     -10.781  14.737  67.507  1.00  0.00    -0.269 C  
HETATM    7  C   UNL     1      -9.758  13.900  66.702  1.00  0.00    -0.295 C  
HETATM    8  N   UNL     1     -11.625  12.577  65.667  1.00  0.00    -0.370 N  
HETATM    9  C   UNL     1     -10.294  13.322  65.382  1.00  0.00    -0.306 C  
HETATM   10  C   UNL     1     -12.040  11.746  64.438  1.00  0.00    -0.109 C  
HETATM   11  C   UNL     1     -11.631  11.608  66.838  1.00  0.00    -0.167 C  
ENDROOT
BRANCH   6  12
HETATM   12  O   UNL     1     -10.429  16.124  67.305  1.00  0.00    -0.300 OA 
BRANCH  12  13
HETATM   13  C   UNL     1      -9.551  16.688  68.194  1.00  0.00    -0.228 C  
HETATM   14  C   UNL     1      -8.140  16.850  67.536  1.00  0.00    -0.173 C  
HETATM   15  C   UNL     1      -7.112  15.911  68.155  1.00  0.00    -0.118 A  
HETATM   16  O   UNL     1      -8.159  16.499  66.143  1.00  0.00    -0.323 OA 
HETATM   17  C   UNL     1      -7.759  18.324  67.631  1.00  0.00    -0.228 A  
HETATM   18  O   UNL     1      -9.894  17.070  69.306  1.00  0.00    -0.222 OA 
HETATM   19  C   UNL     1      -5.976  15.390  67.548  1.00  0.00    -0.073 A  
HETATM   20  C   UNL     1      -7.069  18.984  68.636  1.00  0.00    -0.341 A  
HETATM   21  H   UNL     1      -7.303  16.596  65.743  1.00  0.00     0.000 HD 
HETATM   22  C   UNL     1      -6.928  20.381  68.392  1.00  0.00    -0.221 A  
HETATM   23  C   UNL     1      -5.216  14.545  68.405  1.00  0.00    -0.105 A  
HETATM   24  C   UNL     1      -5.778  14.447  69.654  1.00  0.00    -0.099 A  
HETATM   25  C   UNL     1      -7.519  20.759  67.209  1.00  0.00    -0.328 A  
HETATM   26  S   UNL     1      -7.212  15.361  69.785  1.00  0.00    -0.073 SA 
HETATM   27  S   UNL     1      -8.270  19.445  66.419  1.00  0.00    -0.333 SA 
ENDBRANCH  12  13
ENDBRANCH   6  12
TORSDOF 2
ENDMDL
MODEL       50
REMARK 921   NORMALIZED FREE ENERGY PREDICTED BY IDOCK:   -5.23 KCAL/MOL
REMARK 922        TOTAL FREE ENERGY PREDICTED BY IDOCK:   -6.83 KCAL/MOL
REMARK 923 INTER-LIGAND FREE ENERGY PREDICTED BY IDOCK:   -5.75 KCAL/MOL
REMARK 924 INTRA-LIGAND FREE ENERGY PREDICTED BY IDOCK:   -1.08 KCAL/MOL
REMARK 927      BINDING AFFINITY PREDICTED BY RF-SCORE:    0.00 PKD
ROOT
HETATM    1  C   UNL     1     -11.874   6.682  70.855  1.00  0.00    -0.377 C  
HETATM    2  O   UNL     1     -12.132   8.082  70.850  1.00  0.00    -0.263 OA 
HETATM    3  C   UNL     1     -12.232   7.438  72.113  1.00  0.00    -0.230 C  
HETATM    4  C   UNL     1     -11.007   7.348  73.011  1.00  0.00    -0.374 C  
HETATM    5  C   UNL     1     -10.029   8.507  72.751  1.00  0.00    -0.193 C  
HETATM    6  C   UNL     1      -9.365   8.511  71.347  1.00  0.00    -0.211 C  
HETATM    7  C   UNL     1      -9.393   7.164  70.585  1.00  0.00    -0.158 C  
HETATM    8  N   UNL     1     -10.326   6.014  72.614  1.00  0.00    -0.190 N  
HETATM    9  C   UNL     1     -10.457   6.168  71.075  1.00  0.00    -0.229 C  
HETATM   10  C   UNL     1     -11.172   4.821  73.100  1.00  0.00    -0.308 C  
HETATM   11  C   UNL     1      -8.929   5.778  73.163  1.00  0.00    -0.124 C  
ENDROOT
BRANCH   6  12
HETATM   12  O   UNL     1      -9.994   9.485  70.483  1.00  0.00    -0.245 OA 
BRANCH  12  13
HETATM   13  C   UNL     1      -9.234  10.018  69.474  1.00  0.00    -0.221 C  
HETATM   14  C   UNL     1      -9.938   9.803  68.094  1.00  0.00    -0.154 C  
HETATM   15  C   UNL     1      -9.186   8.807  67.219  1.00  0.00    -0.139 A  
HETATM   16  O   UNL     1     -11.249   9.234  68.246  1.00  0.00    -0.486 OA 
HETATM   17  C   UNL     1     -10.108  11.177  67.451  1.00  0.00    -0.185 A  
HETATM   18  O   UNL     1      -8.199  10.637  69.686  1.00  0.00    -0.092 OA 
HETATM   19  C   UNL     1      -9.716   7.992  66.227  1.00  0.00    -0.197 A  
HETATM   20  C   UNL     1      -9.247  11.857  66.603  1.00  0.00    -0.206 A  
HETATM   21  H   UNL     1     -11.676   9.103  67.408  1.00  0.00     0.000 HD 
HETATM   22  C   UNL     1      -9.733  13.142  66.228  1.00  0.00    -0.269 A  
HETATM   23  C   UNL     1      -8.740   7.176  65.587  1.00  0.00    -0.088 A  
HETATM   24  C   UNL     1      -7.482   7.394  66.093  1.00  0.00    -0.083 A  
HETATM   25  C   UNL     1     -10.951  13.420  66.801  1.00  0.00    -0.288 A  
HETATM   26  S   UNL     1      -7.484   8.566  67.332  1.00  0.00    -0.094 SA 
HETATM   27  S   UNL     1     -11.486  12.154  67.814  1.00  0.00    -0.343 SA 
ENDBRANCH  12  13
ENDBRANCH   6  12
TORSDOF 2
ENDMDL
MODEL       51
REMARK 921   NORMALIZED FREE ENERGY PREDICTED BY IDOCK:   -5.20 KCAL/MOL
REMARK 922        TOTAL FREE ENERGY PREDICTED BY IDOCK:   -6.79 KCAL/MOL
REMARK 923 INTER-LIGAND FREE ENERGY PREDICTED BY IDOCK:   -5.85 KCAL/MOL
REMARK 924 INTRA-LIGAND FREE ENERGY PREDICTED BY IDOCK:   -0.95 KCAL/MOL
REMARK 927      BINDING AFFINITY PREDICTED BY RF-SCORE:    0.00 PKD
ROOT
HETATM    1  C   UNL     1     -11.754  12.231  67.992  1.00  0.00    -0.356 C  
HETATM    2  O   UNL     1     -11.847  11.043  67.213  1.00  0.00    -0.468 OA 
HETATM    3  C   UNL     1     -11.881  12.264  66.486  1.00  0.00    -0.306 C  
HETATM    4  C   UNL     1     -10.583  12.872  65.977  1.00  0.00    -0.270 C  
HETATM    5  C   UNL     1      -9.511  11.795  65.731  1.00  0.00    -0.232 C  
HETATM    6  C   UNL     1      -9.011  11.057  67.003  1.00  0.00    -0.148 C  
HETATM    7  C   UNL     1      -9.279  11.775  68.348  1.00  0.00    -0.175 C  
HETATM    8  N   UNL     1     -10.109  13.803  67.121  1.00  0.00    -0.239 N  
HETATM    9  C   UNL     1     -10.391  12.836  68.302  1.00  0.00    -0.243 C  
HETATM   10  C   UNL     1     -11.029  15.036  67.216  1.00  0.00    -0.326 C  
HETATM   11  C   UNL     1      -8.697  14.352  67.006  1.00  0.00    -0.223 C  
ENDROOT
BRANCH   6  12
HETATM   12  O   UNL     1      -9.614   9.747  67.108  1.00  0.00    -0.159 OA 
BRANCH  12  13
HETATM   13  C   UNL     1      -8.920   8.786  67.796  1.00  0.00    -0.135 C  
HETATM   14  C   UNL     1      -9.903   7.900  68.632  1.00  0.00    -0.170 C  
HETATM   15  C   UNL     1      -9.742   8.128  70.130  1.00  0.00    -0.175 A  
HETATM   16  O   UNL     1     -11.276   8.226  68.360  1.00  0.00    -0.299 OA 
HETATM   17  C   UNL     1      -9.684   6.451  68.206  1.00  0.00    -0.127 A  
HETATM   18  O   UNL     1      -7.711   8.633  67.675  1.00  0.00    -0.100 OA 
HETATM   19  C   UNL     1     -10.710   7.963  71.114  1.00  0.00    -0.251 A  
HETATM   20  C   UNL     1      -8.813   5.509  68.731  1.00  0.00    -0.109 A  
HETATM   21  H   UNL     1     -11.873   7.689  68.867  1.00  0.00     0.000 HD 
HETATM   22  C   UNL     1      -8.864   4.260  68.047  1.00  0.00    -0.129 A  
HETATM   23  C   UNL     1     -10.236   8.254  72.424  1.00  0.00    -0.397 A  
HETATM   24  C   UNL     1      -8.912   8.621  72.418  1.00  0.00    -0.135 A  
HETATM   25  C   UNL     1      -9.766   4.277  67.011  1.00  0.00    -0.206 A  
HETATM   26  S   UNL     1      -8.254   8.621  70.844  1.00  0.00    -0.159 SA 
HETATM   27  S   UNL     1     -10.519   5.800  66.841  1.00  0.00    -0.309 SA 
ENDBRANCH  12  13
ENDBRANCH   6  12
TORSDOF 2
ENDMDL
MODEL       52
REMARK 921   NORMALIZED FREE ENERGY PREDICTED BY IDOCK:   -5.19 KCAL/MOL
REMARK 922        TOTAL FREE ENERGY PREDICTED BY IDOCK:   -6.78 KCAL/MOL
REMARK 923 INTER-LIGAND FREE ENERGY PREDICTED BY IDOCK:   -5.81 KCAL/MOL
REMARK 924 INTRA-LIGAND FREE ENERGY PREDICTED BY IDOCK:   -0.96 KCAL/MOL
REMARK 927      BINDING AFFINITY PREDICTED BY RF-SCORE:    0.00 PKD
ROOT
HETATM    1  C   UNL     1      -6.763  18.858  68.692  1.00  0.00    -0.270 C  
HETATM    2  O   UNL     1      -8.130  18.973  69.075  1.00  0.00    -0.300 OA 
HETATM    3  C   UNL     1      -7.582  20.091  68.388  1.00  0.00    -0.204 C  
HETATM    4  C   UNL     1      -7.674  20.160  66.871  1.00  0.00    -0.304 C  
HETATM    5  C   UNL     1      -8.892  19.382  66.342  1.00  0.00    -0.385 C  
HETATM    6  C   UNL     1      -8.843  17.846  66.564  1.00  0.00    -0.261 C  
HETATM    7  C   UNL     1      -7.442  17.250  66.845  1.00  0.00    -0.242 C  
HETATM    8  N   UNL     1      -6.380  19.475  66.367  1.00  0.00    -0.181 N  
HETATM    9  C   UNL     1      -6.397  18.264  67.338  1.00  0.00    -0.177 C  
HETATM   10  C   UNL     1      -5.159  20.369  66.658  1.00  0.00    -0.152 C  
HETATM   11  C   UNL     1      -6.314  19.161  64.881  1.00  0.00    -0.218 C  
ENDROOT
BRANCH   6  12
HETATM   12  O   UNL     1      -9.685  17.459  67.674  1.00  0.00    -0.260 OA 
BRANCH  12  13
HETATM   13  C   UNL     1     -10.232  16.202  67.643  1.00  0.00    -0.265 C  
HETATM   14  C   UNL     1      -9.653  15.329  68.805  1.00  0.00    -0.214 C  
HETATM   15  C   UNL     1      -8.752  14.214  68.286  1.00  0.00    -0.181 A  
HETATM   16  O   UNL     1      -8.811  16.097  69.680  1.00  0.00    -0.092 OA 
HETATM   17  C   UNL     1     -10.834  14.828  69.631  1.00  0.00    -0.226 A  
HETATM   18  O   UNL     1     -11.109  15.885  66.849  1.00  0.00    -0.228 OA 
HETATM   19  C   UNL     1      -7.696  13.607  68.953  1.00  0.00     0.005 A  
HETATM   20  C   UNL     1     -11.571  13.663  69.483  1.00  0.00    -0.361 A  
HETATM   21  H   UNL     1      -8.458  15.568  70.385  1.00  0.00     0.000 HD 
HETATM   22  C   UNL     1     -12.630  13.549  70.429  1.00  0.00    -0.267 A  
HETATM   23  C   UNL     1      -7.057  12.590  68.190  1.00  0.00    -0.103 A  
HETATM   24  C   UNL     1      -7.647  12.430  66.959  1.00  0.00    -0.044 A  
HETATM   25  C   UNL     1     -12.684  14.631  71.274  1.00  0.00    -0.332 A  
HETATM   26  S   UNL     1      -8.952  13.503  66.729  1.00  0.00    -0.120 SA 
HETATM   27  S   UNL     1     -11.489  15.793  70.906  1.00  0.00    -0.430 SA 
ENDBRANCH  12  13
ENDBRANCH   6  12
TORSDOF 2
ENDMDL
MODEL       53
REMARK 921   NORMALIZED FREE ENERGY PREDICTED BY IDOCK:   -5.16 KCAL/MOL
REMARK 922        TOTAL FREE ENERGY PREDICTED BY IDOCK:   -6.75 KCAL/MOL
REMARK 923 INTER-LIGAND FREE ENERGY PREDICTED BY IDOCK:   -6.17 KCAL/MOL
REMARK 924 INTRA-LIGAND FREE ENERGY PREDICTED BY IDOCK:   -0.58 KCAL/MOL
REMARK 927      BINDING AFFINITY PREDICTED BY RF-SCORE:    0.00 PKD
ROOT
HETATM    1  C   UNL     1     -10.033   6.371  69.674  1.00  0.00    -0.164 C  
HETATM    2  O   UNL     1     -10.823   6.988  68.663  1.00  0.00    -0.204 OA 
HETATM    3  C   UNL     1     -11.521   6.577  69.830  1.00  0.00    -0.403 C  
HETATM    4  C   UNL     1     -11.683   7.547  70.991  1.00  0.00    -0.292 C  
HETATM    5  C   UNL     1     -11.664   9.010  70.513  1.00  0.00    -0.160 C  
HETATM    6  C   UNL     1     -10.316   9.493  69.911  1.00  0.00    -0.236 C  
HETATM    7  C   UNL     1      -9.074   8.645  70.278  1.00  0.00    -0.172 C  
HETATM    8  N   UNL     1     -10.447   7.295  71.890  1.00  0.00    -0.199 N  
HETATM    9  C   UNL     1      -9.385   7.219  70.761  1.00  0.00    -0.160 C  
HETATM   10  C   UNL     1     -10.571   5.928  72.591  1.00  0.00    -0.221 C  
HETATM   11  C   UNL     1     -10.198   8.304  72.999  1.00  0.00    -0.090 C  
ENDROOT
BRANCH   6  12
HETATM   12  O   UNL     1     -10.379   9.526  68.467  1.00  0.00    -0.193 OA 
BRANCH  12  13
HETATM   13  C   UNL     1     -10.829  10.681  67.881  1.00  0.00    -0.277 C  
HETATM   14  C   UNL     1      -9.649  11.429  67.178  1.00  0.00    -0.179 C  
HETATM   15  C   UNL     1      -9.293  12.729  67.890  1.00  0.00    -0.208 A  
HETATM   16  O   UNL     1      -8.437  10.657  67.205  1.00  0.00    -0.126 OA 
HETATM   17  C   UNL     1     -10.038  11.618  65.714  1.00  0.00    -0.240 A  
HETATM   18  O   UNL     1     -12.013  10.995  67.869  1.00  0.00    -0.620 OA 
HETATM   19  C   UNL     1      -8.057  13.364  67.911  1.00  0.00    -0.162 A  
HETATM   20  C   UNL     1     -10.709  12.676  65.119  1.00  0.00    -0.321 A  
HETATM   21  H   UNL     1      -7.720  11.110  66.778  1.00  0.00     0.000 HD 
HETATM   22  C   UNL     1     -10.924  12.486  63.724  1.00  0.00    -0.496 A  
HETATM   23  C   UNL     1      -8.057  14.571  68.666  1.00  0.00    -0.150 A  
HETATM   24  C   UNL     1      -9.296  14.842  69.194  1.00  0.00    -0.101 A  
HETATM   25  C   UNL     1     -10.420  11.285  63.284  1.00  0.00    -0.305 A  
HETATM   26  S   UNL     1     -10.442  13.645  68.788  1.00  0.00    -0.155 SA 
HETATM   27  S   UNL     1      -9.725  10.378  64.553  1.00  0.00    -0.335 SA 
ENDBRANCH  12  13
ENDBRANCH   6  12
TORSDOF 2
ENDMDL
MODEL       54
REMARK 921   NORMALIZED FREE ENERGY PREDICTED BY IDOCK:   -5.15 KCAL/MOL
REMARK 922        TOTAL FREE ENERGY PREDICTED BY IDOCK:   -6.73 KCAL/MOL
REMARK 923 INTER-LIGAND FREE ENERGY PREDICTED BY IDOCK:   -6.27 KCAL/MOL
REMARK 924 INTRA-LIGAND FREE ENERGY PREDICTED BY IDOCK:   -0.46 KCAL/MOL
REMARK 927      BINDING AFFINITY PREDICTED BY RF-SCORE:    0.00 PKD
ROOT
HETATM    1  C   UNL     1     -12.341  13.482  66.447  1.00  0.00    -0.357 C  
HETATM    2  O   UNL     1     -12.281  12.060  66.443  1.00  0.00    -0.551 OA 
HETATM    3  C   UNL     1     -11.626  12.710  65.362  1.00  0.00    -0.363 C  
HETATM    4  C   UNL     1     -10.158  13.086  65.489  1.00  0.00    -0.259 C  
HETATM    5  C   UNL     1      -9.416  12.151  66.461  1.00  0.00    -0.235 C  
HETATM    6  C   UNL     1      -9.872  12.239  67.943  1.00  0.00    -0.201 C  
HETATM    7  C   UNL     1     -10.641  13.525  68.335  1.00  0.00    -0.258 C  
HETATM    8  N   UNL     1     -10.168  14.519  66.078  1.00  0.00    -0.300 N  
HETATM    9  C   UNL     1     -11.261  14.290  67.155  1.00  0.00    -0.322 C  
HETATM   10  C   UNL     1     -10.668  15.522  65.021  1.00  0.00    -0.441 C  
HETATM   11  C   UNL     1      -8.833  15.062  66.560  1.00  0.00    -0.251 C  
ENDROOT
BRANCH   6  12
HETATM   12  O   UNL     1     -10.728  11.127  68.285  1.00  0.00    -0.174 OA 
BRANCH  12  13
HETATM   13  C   UNL     1     -10.267   9.866  68.010  1.00  0.00    -0.182 C  
HETATM   14  C   UNL     1      -9.430   9.319  69.214  1.00  0.00    -0.160 C  
HETATM   15  C   UNL     1      -7.949   9.203  68.872  1.00  0.00    -0.099 A  
HETATM   16  O   UNL     1      -9.474  10.208  70.341  1.00  0.00    -0.358 OA 
HETATM   17  C   UNL     1     -10.063   8.000  69.647  1.00  0.00    -0.198 A  
HETATM   18  O   UNL     1     -10.565   9.265  66.985  1.00  0.00    -0.246 OA 
HETATM   19  C   UNL     1      -6.876   9.274  69.752  1.00  0.00    -0.053 A  
HETATM   20  C   UNL     1      -9.782   6.713  69.214  1.00  0.00    -0.151 A  
HETATM   21  H   UNL     1      -8.966   9.877  71.072  1.00  0.00     0.000 HD 
HETATM   22  C   UNL     1     -10.608   5.726  69.825  1.00  0.00    -0.388 A  
HETATM   23  C   UNL     1      -5.613   9.122  69.113  1.00  0.00    -0.036 A  
HETATM   24  C   UNL     1      -5.746   8.923  67.760  1.00  0.00    -0.039 A  
HETATM   25  C   UNL     1     -11.506   6.280  70.706  1.00  0.00    -0.316 A  
HETATM   26  S   UNL     1      -7.380   8.930  67.269  1.00  0.00    -0.080 SA 
HETATM   27  S   UNL     1     -11.378   7.981  70.767  1.00  0.00    -0.254 SA 
ENDBRANCH  12  13
ENDBRANCH   6  12
TORSDOF 2
ENDMDL
MODEL       55
REMARK 921   NORMALIZED FREE ENERGY PREDICTED BY IDOCK:   -5.13 KCAL/MOL
REMARK 922        TOTAL FREE ENERGY PREDICTED BY IDOCK:   -6.71 KCAL/MOL
REMARK 923 INTER-LIGAND FREE ENERGY PREDICTED BY IDOCK:   -6.54 KCAL/MOL
REMARK 924 INTRA-LIGAND FREE ENERGY PREDICTED BY IDOCK:   -0.17 KCAL/MOL
REMARK 927      BINDING AFFINITY PREDICTED BY RF-SCORE:    0.00 PKD
ROOT
HETATM    1  C   UNL     1      -7.675  17.611  67.800  1.00  0.00    -0.208 C  
HETATM    2  O   UNL     1      -8.008  16.779  68.907  1.00  0.00    -0.242 OA 
HETATM    3  C   UNL     1      -8.677  18.032  68.850  1.00  0.00    -0.110 C  
HETATM    4  C   UNL     1     -10.010  18.140  68.126  1.00  0.00    -0.359 C  
HETATM    5  C   UNL     1     -10.767  16.800  68.129  1.00  0.00    -0.361 C  
HETATM    6  C   UNL     1     -10.090  15.655  67.328  1.00  0.00    -0.255 C  
HETATM    7  C   UNL     1      -9.038  16.096  66.282  1.00  0.00    -0.373 C  
HETATM    8  N   UNL     1      -9.637  18.505  66.667  1.00  0.00    -0.309 N  
HETATM    9  C   UNL     1      -8.462  17.505  66.501  1.00  0.00    -0.268 C  
HETATM   10  C   UNL     1      -9.113  19.952  66.600  1.00  0.00    -0.376 C  
HETATM   11  C   UNL     1     -10.756  18.425  65.642  1.00  0.00    -0.038 C  
ENDROOT
BRANCH   6  12
HETATM   12  O   UNL     1      -9.423  14.730  68.217  1.00  0.00    -0.195 OA 
BRANCH  12  13
HETATM   13  C   UNL     1      -8.915  13.581  67.667  1.00  0.00    -0.200 C  
HETATM   14  C   UNL     1     -10.053  12.524  67.472  1.00  0.00    -0.207 C  
HETATM   15  C   UNL     1      -9.896  11.338  68.416  1.00  0.00    -0.199 A  
HETATM   16  O   UNL     1     -11.345  13.068  67.785  1.00  0.00    -0.260 OA 
HETATM   17  C   UNL     1     -10.065  12.135  65.997  1.00  0.00    -0.235 A  
HETATM   18  O   UNL     1      -7.745  13.478  67.320  1.00  0.00    -0.154 OA 
HETATM   19  C   UNL     1     -10.902  10.515  68.907  1.00  0.00    -0.275 A  
HETATM   20  C   UNL     1      -9.375  11.116  65.357  1.00  0.00    -0.243 A  
HETATM   21  H   UNL     1     -12.036  12.426  67.667  1.00  0.00     0.000 HD 
HETATM   22  C   UNL     1      -9.613  11.078  63.953  1.00  0.00    -0.309 A  
HETATM   23  C   UNL     1     -10.421   9.488  69.767  1.00  0.00    -0.253 A  
HETATM   24  C   UNL     1      -9.055   9.536  69.905  1.00  0.00    -0.216 A  
HETATM   25  C   UNL     1     -10.473  12.072  63.549  1.00  0.00    -0.464 A  
HETATM   26  S   UNL     1      -8.366  10.815  69.011  1.00  0.00    -0.103 SA 
HETATM   27  S   UNL     1     -10.960  13.066  64.849  1.00  0.00    -0.324 SA 
ENDBRANCH  12  13
ENDBRANCH   6  12
TORSDOF 2
ENDMDL
MODEL       56
REMARK 921   NORMALIZED FREE ENERGY PREDICTED BY IDOCK:   -5.13 KCAL/MOL
REMARK 922        TOTAL FREE ENERGY PREDICTED BY IDOCK:   -6.71 KCAL/MOL
REMARK 923 INTER-LIGAND FREE ENERGY PREDICTED BY IDOCK:   -6.52 KCAL/MOL
REMARK 924 INTRA-LIGAND FREE ENERGY PREDICTED BY IDOCK:   -0.19 KCAL/MOL
REMARK 927      BINDING AFFINITY PREDICTED BY RF-SCORE:    0.00 PKD
ROOT
HETATM    1  C   UNL     1     -10.368  12.212  65.196  1.00  0.00    -0.279 C  
HETATM    2  O   UNL     1     -11.229  13.279  65.581  1.00  0.00    -0.285 OA 
HETATM    3  C   UNL     1     -11.651  11.976  65.960  1.00  0.00    -0.305 C  
HETATM    4  C   UNL     1     -11.229  11.412  67.309  1.00  0.00    -0.304 C  
HETATM    5  C   UNL     1     -10.977  12.530  68.336  1.00  0.00    -0.277 C  
HETATM    6  C   UNL     1      -9.776  13.462  68.019  1.00  0.00    -0.222 C  
HETATM    7  C   UNL     1      -8.736  12.903  67.017  1.00  0.00    -0.195 C  
HETATM    8  N   UNL     1      -9.896  10.676  67.027  1.00  0.00    -0.180 N  
HETATM    9  C   UNL     1      -9.249  11.761  66.125  1.00  0.00    -0.210 C  
HETATM   10  C   UNL     1     -10.159   9.397  66.209  1.00  0.00    -0.258 C  
HETATM   11  C   UNL     1      -9.098  10.230  68.242  1.00  0.00    -0.139 C  
ENDROOT
BRANCH   6  12
HETATM   12  O   UNL     1     -10.232  14.723  67.478  1.00  0.00    -0.232 OA 
BRANCH  12  13
HETATM   13  C   UNL     1      -9.279  15.653  67.154  1.00  0.00    -0.212 C  
HETATM   14  C   UNL     1      -9.052  16.637  68.349  1.00  0.00    -0.226 C  
HETATM   15  C   UNL     1      -9.558  18.040  68.037  1.00  0.00    -0.295 A  
HETATM   16  O   UNL     1      -9.789  16.237  69.516  1.00  0.00    -0.234 OA 
HETATM   17  C   UNL     1      -7.569  16.586  68.705  1.00  0.00    -0.219 A  
HETATM   18  O   UNL     1      -8.663  15.624  66.095  1.00  0.00    -0.317 OA 
HETATM   19  C   UNL     1     -10.008  18.993  68.943  1.00  0.00    -0.460 A  
HETATM   20  C   UNL     1      -6.527  17.362  68.219  1.00  0.00    -0.172 A  
HETATM   21  H   UNL     1      -9.651  16.834  70.242  1.00  0.00     0.000 HD 
HETATM   22  C   UNL     1      -5.261  17.001  68.764  1.00  0.00    -0.129 A  
HETATM   23  C   UNL     1     -10.409  20.212  68.327  1.00  0.00    -0.426 A  
HETATM   24  C   UNL     1     -10.244  20.172  66.963  1.00  0.00    -0.419 A  
HETATM   25  C   UNL     1      -5.362  15.955  69.650  1.00  0.00    -0.116 A  
HETATM   26  S   UNL     1      -9.620  18.675  66.436  1.00  0.00    -0.301 SA 
HETATM   27  S   UNL     1      -6.965  15.388  69.793  1.00  0.00    -0.105 SA 
ENDBRANCH  12  13
ENDBRANCH   6  12
TORSDOF 2
ENDMDL
MODEL       57
REMARK 921   NORMALIZED FREE ENERGY PREDICTED BY IDOCK:   -5.09 KCAL/MOL
REMARK 922        TOTAL FREE ENERGY PREDICTED BY IDOCK:   -6.67 KCAL/MOL
REMARK 923 INTER-LIGAND FREE ENERGY PREDICTED BY IDOCK:   -5.70 KCAL/MOL
REMARK 924 INTRA-LIGAND FREE ENERGY PREDICTED BY IDOCK:   -0.97 KCAL/MOL
REMARK 927      BINDING AFFINITY PREDICTED BY RF-SCORE:    0.00 PKD
ROOT
HETATM    1  C   UNL     1     -10.413   5.425  72.121  1.00  0.00    -0.218 C  
HETATM    2  O   UNL     1     -11.128   6.652  72.231  1.00  0.00    -0.239 OA 
HETATM    3  C   UNL     1     -10.858   5.980  73.454  1.00  0.00    -0.231 C  
HETATM    4  C   UNL     1      -9.579   6.292  74.217  1.00  0.00    -0.228 C  
HETATM    5  C   UNL     1      -9.087   7.722  73.935  1.00  0.00    -0.298 C  
HETATM    6  C   UNL     1      -8.630   7.989  72.475  1.00  0.00    -0.169 C  
HETATM    7  C   UNL     1      -8.290   6.734  71.635  1.00  0.00    -0.111 C  
HETATM    8  N   UNL     1      -8.539   5.283  73.670  1.00  0.00    -0.111 N  
HETATM    9  C   UNL     1      -8.891   5.422  72.165  1.00  0.00    -0.130 C  
HETATM   10  C   UNL     1      -8.870   3.861  74.162  1.00  0.00    -0.091 C  
HETATM   11  C   UNL     1      -7.090   5.525  74.061  1.00  0.00    -0.082 C  
ENDROOT
BRANCH   6  12
HETATM   12  O   UNL     1      -9.646   8.711  71.742  1.00  0.00    -0.237 OA 
BRANCH  12  13
HETATM   13  C   UNL     1      -9.335   9.126  70.473  1.00  0.00    -0.240 C  
HETATM   14  C   UNL     1     -10.535   8.860  69.505  1.00  0.00    -0.226 C  
HETATM   15  C   UNL     1     -10.221   7.762  68.495  1.00  0.00    -0.204 A  
HETATM   16  O   UNL     1     -11.693   8.383  70.210  1.00  0.00    -0.469 OA 
HETATM   17  C   UNL     1     -10.907  10.194  68.864  1.00  0.00    -0.223 A  
HETATM   18  O   UNL     1      -8.283   9.694  70.205  1.00  0.00    -0.178 OA 
HETATM   19  C   UNL     1     -11.125   6.914  67.867  1.00  0.00    -0.200 A  
HETATM   20  C   UNL     1     -10.434  10.760  67.689  1.00  0.00    -0.252 A  
HETATM   21  H   UNL     1     -12.422   8.221  69.623  1.00  0.00     0.000 HD 
HETATM   22  C   UNL     1     -10.993  12.044  67.425  1.00  0.00    -0.311 A  
HETATM   23  C   UNL     1     -10.507   5.998  66.969  1.00  0.00    -0.334 A  
HETATM   24  C   UNL     1      -9.145   6.174  66.918  1.00  0.00    -0.127 A  
HETATM   25  C   UNL     1     -11.875  12.433  68.405  1.00  0.00    -0.309 A  
HETATM   26  S   UNL     1      -8.621   7.427  67.951  1.00  0.00    -0.124 SA 
HETATM   27  S   UNL     1     -11.999  11.275  69.653  1.00  0.00    -0.355 SA 
ENDBRANCH  12  13
ENDBRANCH   6  12
TORSDOF 2
ENDMDL
MODEL       58
REMARK 921   NORMALIZED FREE ENERGY PREDICTED BY IDOCK:   -5.09 KCAL/MOL
REMARK 922        TOTAL FREE ENERGY PREDICTED BY IDOCK:   -6.66 KCAL/MOL
REMARK 923 INTER-LIGAND FREE ENERGY PREDICTED BY IDOCK:   -5.65 KCAL/MOL
REMARK 924 INTRA-LIGAND FREE ENERGY PREDICTED BY IDOCK:   -1.02 KCAL/MOL
REMARK 927      BINDING AFFINITY PREDICTED BY RF-SCORE:    0.00 PKD
ROOT
HETATM    1  C   UNL     1     -11.290  11.849  64.592  1.00  0.00    -0.293 C  
HETATM    2  O   UNL     1      -9.910  11.715  64.270  1.00  0.00    -0.248 OA 
HETATM    3  C   UNL     1     -10.412  13.044  64.303  1.00  0.00    -0.402 C  
HETATM    4  C   UNL     1     -10.356  13.837  65.600  1.00  0.00    -0.311 C  
HETATM    5  C   UNL     1      -9.198  13.370  66.500  1.00  0.00    -0.182 C  
HETATM    6  C   UNL     1      -9.327  11.922  67.045  1.00  0.00    -0.188 C  
HETATM    7  C   UNL     1     -10.751  11.316  67.017  1.00  0.00    -0.305 C  
HETATM    8  N   UNL     1     -11.700  13.530  66.307  1.00  0.00    -0.349 N  
HETATM    9  C   UNL     1     -11.724  12.000  66.044  1.00  0.00    -0.241 C  
HETATM   10  C   UNL     1     -12.861  14.213  65.559  1.00  0.00    -0.376 C  
HETATM   11  C   UNL     1     -11.822  13.979  67.753  1.00  0.00    -0.384 C  
ENDROOT
BRANCH   6  12
HETATM   12  O   UNL     1      -8.479  11.015  66.304  1.00  0.00    -0.158 OA 
BRANCH  12  13
HETATM   13  C   UNL     1      -7.948   9.949  66.984  1.00  0.00    -0.109 C  
HETATM   14  C   UNL     1      -8.457   8.604  66.367  1.00  0.00    -0.112 C  
HETATM   15  C   UNL     1      -9.402   7.867  67.308  1.00  0.00    -0.148 A  
HETATM   16  O   UNL     1      -9.230   8.823  65.175  1.00  0.00    -0.419 OA 
HETATM   17  C   UNL     1      -7.228   7.791  65.972  1.00  0.00    -0.073 A  
HETATM   18  O   UNL     1      -7.131  10.084  67.886  1.00  0.00    -0.083 OA 
HETATM   19  C   UNL     1     -10.417   6.985  66.959  1.00  0.00    -0.386 A  
HETATM   20  C   UNL     1      -6.515   6.866  66.721  1.00  0.00    -0.047 A  
HETATM   21  H   UNL     1      -9.539   8.007  64.800  1.00  0.00     0.000 HD 
HETATM   22  C   UNL     1      -5.395   6.328  66.024  1.00  0.00    -0.013 A  
HETATM   23  C   UNL     1     -11.117   6.459  68.081  1.00  0.00    -0.358 A  
HETATM   24  C   UNL     1     -10.614   6.937  69.267  1.00  0.00    -0.226 A  
HETATM   25  C   UNL     1      -5.273   6.856  64.761  1.00  0.00    -0.027 A  
HETATM   26  S   UNL     1      -9.316   8.017  69.022  1.00  0.00    -0.147 SA 
HETATM   27  S   UNL     1      -6.478   8.021  64.433  1.00  0.00    -0.061 SA 
ENDBRANCH  12  13
ENDBRANCH   6  12
TORSDOF 2
ENDMDL
MODEL       59
REMARK 921   NORMALIZED FREE ENERGY PREDICTED BY IDOCK:   -5.00 KCAL/MOL
REMARK 922        TOTAL FREE ENERGY PREDICTED BY IDOCK:   -6.57 KCAL/MOL
REMARK 923 INTER-LIGAND FREE ENERGY PREDICTED BY IDOCK:   -5.51 KCAL/MOL
REMARK 924 INTRA-LIGAND FREE ENERGY PREDICTED BY IDOCK:   -1.06 KCAL/MOL
REMARK 927      BINDING AFFINITY PREDICTED BY RF-SCORE:    0.00 PKD
ROOT
HETATM    1  C   UNL     1      -9.247   7.696  68.879  1.00  0.00    -0.139 C  
HETATM    2  O   UNL     1     -10.320   8.156  68.064  1.00  0.00    -0.208 OA 
HETATM    3  C   UNL     1     -10.650   7.153  69.016  1.00  0.00    -0.210 C  
HETATM    4  C   UNL     1     -11.115   7.561  70.406  1.00  0.00    -0.261 C  
HETATM    5  C   UNL     1     -11.791   8.943  70.395  1.00  0.00     0.010 C  
HETATM    6  C   UNL     1     -10.860  10.133  70.036  1.00  0.00    -0.307 C  
HETATM    7  C   UNL     1      -9.343   9.870  70.191  1.00  0.00    -0.200 C  
HETATM    8  N   UNL     1      -9.817   7.642  71.247  1.00  0.00    -0.172 N  
HETATM    9  C   UNL     1      -8.943   8.386  70.203  1.00  0.00    -0.142 C  
HETATM   10  C   UNL     1      -9.256   6.228  71.495  1.00  0.00    -0.145 C  
HETATM   11  C   UNL     1      -9.938   8.282  72.620  1.00  0.00    -0.287 C  
ENDROOT
BRANCH   6  12
HETATM   12  O   UNL     1     -11.068  10.554  68.668  1.00  0.00    -0.236 OA 
BRANCH  12  13
HETATM   13  C   UNL     1     -10.533  11.759  68.291  1.00  0.00    -0.206 C  
HETATM   14  C   UNL     1      -9.811  11.623  66.909  1.00  0.00    -0.198 C  
HETATM   15  C   UNL     1      -8.299  11.761  67.042  1.00  0.00    -0.172 A  
HETATM   16  O   UNL     1     -10.007  10.323  66.330  1.00  0.00    -0.209 OA 
HETATM   17  C   UNL     1     -10.439  12.645  65.965  1.00  0.00    -0.268 A  
HETATM   18  O   UNL     1     -10.698  12.785  68.940  1.00  0.00    -0.230 OA 
HETATM   19  C   UNL     1      -7.329  11.208  66.214  1.00  0.00    -0.055 A  
HETATM   20  C   UNL     1     -10.066  13.959  65.728  1.00  0.00    -0.336 A  
HETATM   21  H   UNL     1      -9.569  10.240  65.492  1.00  0.00     0.000 HD 
HETATM   22  C   UNL     1     -10.916  14.620  64.796  1.00  0.00    -0.399 A  
HETATM   23  C   UNL     1      -6.000  11.533  66.609  1.00  0.00    -0.135 A  
HETATM   24  C   UNL     1      -5.981  12.339  67.721  1.00  0.00    -0.098 A  
HETATM   25  C   UNL     1     -11.923  13.800  64.345  1.00  0.00    -0.445 A  
HETATM   26  S   UNL     1      -7.552  12.691  68.285  1.00  0.00    -0.140 SA 
HETATM   27  S   UNL     1     -11.864  12.255  65.070  1.00  0.00    -0.325 SA 
ENDBRANCH  12  13
ENDBRANCH   6  12
TORSDOF 2
ENDMDL
MODEL       60
REMARK 921   NORMALIZED FREE ENERGY PREDICTED BY IDOCK:   -5.00 KCAL/MOL
REMARK 922        TOTAL FREE ENERGY PREDICTED BY IDOCK:   -6.56 KCAL/MOL
REMARK 923 INTER-LIGAND FREE ENERGY PREDICTED BY IDOCK:   -5.78 KCAL/MOL
REMARK 924 INTRA-LIGAND FREE ENERGY PREDICTED BY IDOCK:   -0.78 KCAL/MOL
REMARK 927      BINDING AFFINITY PREDICTED BY RF-SCORE:    0.00 PKD
ROOT
HETATM    1  C   UNL     1     -10.290  13.532  68.608  1.00  0.00    -0.214 C  
HETATM    2  O   UNL     1     -11.109  12.367  68.597  1.00  0.00    -0.228 OA 
HETATM    3  C   UNL     1     -11.792  13.606  68.461  1.00  0.00    -0.371 C  
HETATM    4  C   UNL     1     -12.042  14.179  67.074  1.00  0.00    -0.414 C  
HETATM    5  C   UNL     1     -12.124  13.070  66.010  1.00  0.00    -0.493 C  
HETATM    6  C   UNL     1     -10.807  12.283  65.771  1.00  0.00    -0.278 C  
HETATM    7  C   UNL     1      -9.511  12.977  66.254  1.00  0.00    -0.199 C  
HETATM    8  N   UNL     1     -10.804  15.063  66.785  1.00  0.00    -0.314 N  
HETATM    9  C   UNL     1      -9.723  14.079  67.305  1.00  0.00    -0.237 C  
HETATM   10  C   UNL     1     -10.837  16.327  67.667  1.00  0.00    -0.293 C  
HETATM   11  C   UNL     1     -10.646  15.563  65.358  1.00  0.00    -0.408 C  
ENDROOT
BRANCH   6  12
HETATM   12  O   UNL     1     -10.852  10.994  66.424  1.00  0.00    -0.257 OA 
BRANCH  12  13
HETATM   13  C   UNL     1      -9.736  10.203  66.338  1.00  0.00    -0.205 C  
HETATM   14  C   UNL     1      -9.526   9.412  67.672  1.00  0.00    -0.132 C  
HETATM   15  C   UNL     1      -8.297   9.896  68.433  1.00  0.00    -0.107 A  
HETATM   16  O   UNL     1     -10.618   9.608  68.584  1.00  0.00    -0.210 OA 
HETATM   17  C   UNL     1      -9.483   7.928  67.320  1.00  0.00    -0.149 A  
HETATM   18  O   UNL     1      -9.077  10.103  65.310  1.00  0.00    -0.167 OA 
HETATM   19  C   UNL     1      -8.083   9.841  69.805  1.00  0.00    -0.174 A  
HETATM   20  C   UNL     1      -8.391   7.139  66.993  1.00  0.00    -0.118 A  
HETATM   21  H   UNL     1     -10.491   9.128  69.394  1.00  0.00     0.000 HD 
HETATM   22  C   UNL     1      -8.746   5.793  66.690  1.00  0.00    -0.119 A  
HETATM   23  C   UNL     1      -6.823  10.373  70.200  1.00  0.00    -0.155 A  
HETATM   24  C   UNL     1      -6.093  10.811  69.122  1.00  0.00    -0.043 A  
HETATM   25  C   UNL     1     -10.101   5.584  66.785  1.00  0.00    -0.207 A  
HETATM   26  S   UNL     1      -6.927  10.587  67.650  1.00  0.00    -0.080 SA 
HETATM   27  S   UNL     1     -10.942   7.011  67.199  1.00  0.00    -0.209 SA 
ENDBRANCH  12  13
ENDBRANCH   6  12
TORSDOF 2
ENDMDL
MODEL       61
REMARK 921   NORMALIZED FREE ENERGY PREDICTED BY IDOCK:   -4.91 KCAL/MOL
REMARK 922        TOTAL FREE ENERGY PREDICTED BY IDOCK:   -6.46 KCAL/MOL
REMARK 923 INTER-LIGAND FREE ENERGY PREDICTED BY IDOCK:   -5.99 KCAL/MOL
REMARK 924 INTRA-LIGAND FREE ENERGY PREDICTED BY IDOCK:   -0.48 KCAL/MOL
REMARK 927      BINDING AFFINITY PREDICTED BY RF-SCORE:    0.00 PKD
ROOT
HETATM    1  C   UNL     1      -9.059   5.767  65.960  1.00  0.00    -0.153 C  
HETATM    2  O   UNL     1     -10.246   6.227  66.597  1.00  0.00    -0.188 OA 
HETATM    3  C   UNL     1     -10.170   4.827  66.365  1.00  0.00    -0.275 C  
HETATM    4  C   UNL     1      -9.574   3.919  67.430  1.00  0.00    -0.172 C  
HETATM    5  C   UNL     1      -9.741   4.514  68.839  1.00  0.00    -0.224 C  
HETATM    6  C   UNL     1      -8.957   5.828  69.101  1.00  0.00    -0.118 C  
HETATM    7  C   UNL     1      -7.786   6.118  68.131  1.00  0.00    -0.103 C  
HETATM    8  N   UNL     1      -8.065   3.850  67.088  1.00  0.00    -0.095 N  
HETATM    9  C   UNL     1      -7.852   5.360  66.796  1.00  0.00    -0.101 C  
HETATM   10  C   UNL     1      -7.849   3.027  65.803  1.00  0.00    -0.085 C  
HETATM   11  C   UNL     1      -7.161   3.221  68.135  1.00  0.00    -0.050 C  
ENDROOT
BRANCH   6  12
HETATM   12  O   UNL     1      -9.837   6.974  69.037  1.00  0.00    -0.151 OA 
BRANCH  12  13
HETATM   13  C   UNL     1     -10.772   7.108  70.030  1.00  0.00    -0.248 C  
HETATM   14  C   UNL     1     -10.280   8.135  71.104  1.00  0.00    -0.195 C  
HETATM   15  C   UNL     1      -9.955   7.460  72.431  1.00  0.00    -0.180 A  
HETATM   16  O   UNL     1      -9.053   8.771  70.710  1.00  0.00    -0.157 OA 
HETATM   17  C   UNL     1     -11.345   9.223  71.214  1.00  0.00    -0.353 A  
HETATM   18  O   UNL     1     -11.858   6.544  69.993  1.00  0.00    -0.404 OA 
HETATM   19  C   UNL     1      -9.048   7.890  73.392  1.00  0.00    -0.347 A  
HETATM   20  C   UNL     1     -12.448   9.283  72.052  1.00  0.00    -0.451 A  
HETATM   21  H   UNL     1      -8.754   9.395  71.362  1.00  0.00     0.000 HD 
HETATM   22  C   UNL     1     -13.242  10.448  71.846  1.00  0.00    -0.535 A  
HETATM   23  C   UNL     1      -8.983   7.033  74.528  1.00  0.00    -0.223 A  
HETATM   24  C   UNL     1      -9.852   5.975  74.419  1.00  0.00    -0.264 A  
HETATM   25  C   UNL     1     -12.733  11.249  70.852  1.00  0.00    -0.318 A  
HETATM   26  S   UNL     1     -10.729   6.013  72.956  1.00  0.00    -0.264 SA 
HETATM   27  S   UNL     1     -11.328  10.582  70.147  1.00  0.00    -0.333 SA 
ENDBRANCH  12  13
ENDBRANCH   6  12
TORSDOF 2
ENDMDL
MODEL       62
REMARK 921   NORMALIZED FREE ENERGY PREDICTED BY IDOCK:   -4.90 KCAL/MOL
REMARK 922        TOTAL FREE ENERGY PREDICTED BY IDOCK:   -6.45 KCAL/MOL
REMARK 923 INTER-LIGAND FREE ENERGY PREDICTED BY IDOCK:   -6.47 KCAL/MOL
REMARK 924 INTRA-LIGAND FREE ENERGY PREDICTED BY IDOCK:    0.01 KCAL/MOL
REMARK 927      BINDING AFFINITY PREDICTED BY RF-SCORE:    0.00 PKD
ROOT
HETATM    1  C   UNL     1      -9.852  18.453  68.715  1.00  0.00    -0.361 C  
HETATM    2  O   UNL     1     -11.113  17.860  68.422  1.00  0.00    -0.023 OA 
HETATM    3  C   UNL     1     -10.678  18.868  67.519  1.00  0.00    -0.434 C  
HETATM    4  C   UNL     1      -9.857  18.482  66.298  1.00  0.00    -0.337 C  
HETATM    5  C   UNL     1     -10.162  17.044  65.843  1.00  0.00    -0.311 C  
HETATM    6  C   UNL     1      -9.745  15.931  66.842  1.00  0.00    -0.230 C  
HETATM    7  C   UNL     1      -8.697  16.339  67.906  1.00  0.00    -0.175 C  
HETATM    8  N   UNL     1      -8.385  18.559  66.773  1.00  0.00    -0.261 N  
HETATM    9  C   UNL     1      -8.575  17.853  68.143  1.00  0.00    -0.264 C  
HETATM   10  C   UNL     1      -7.973  20.028  66.988  1.00  0.00    -0.314 C  
HETATM   11  C   UNL     1      -7.340  17.972  65.839  1.00  0.00    -0.213 C  
ENDROOT
BRANCH   6  12
HETATM   12  O   UNL     1     -10.892  15.431  67.566  1.00  0.00    -0.292 OA 
BRANCH  12  13
HETATM   13  C   UNL     1     -11.208  14.106  67.413  1.00  0.00    -0.318 C  
HETATM   14  C   UNL     1     -10.381  13.232  68.413  1.00  0.00    -0.251 C  
HETATM   15  C   UNL     1      -9.347  12.371  67.698  1.00  0.00    -0.188 A  
HETATM   16  O   UNL     1      -9.615  14.041  69.320  1.00  0.00    -0.405 OA 
HETATM   17  C   UNL     1     -11.377  12.429  69.246  1.00  0.00    -0.254 A  
HETATM   18  O   UNL     1     -12.081  13.722  66.645  1.00  0.00    -0.411 OA 
HETATM   19  C   UNL     1      -8.145  11.901  68.211  1.00  0.00    -0.154 A  
HETATM   20  C   UNL     1     -11.905  11.170  69.000  1.00  0.00    -0.418 A  
HETATM   21  H   UNL     1      -9.113  13.511  69.928  1.00  0.00     0.000 HD 
HETATM   22  C   UNL     1     -12.839  10.754  69.993  1.00  0.00    -0.075 A  
HETATM   23  C   UNL     1      -7.405  11.114  67.283  1.00  0.00    -0.118 A  
HETATM   24  C   UNL     1      -8.064  10.986  66.085  1.00  0.00    -0.141 A  
HETATM   25  C   UNL     1     -13.009  11.705  70.971  1.00  0.00    -0.135 A  
HETATM   26  S   UNL     1      -9.555  11.815  66.080  1.00  0.00    -0.234 SA 
HETATM   27  S   UNL     1     -12.077  13.104  70.673  1.00  0.00    -0.151 SA 
ENDBRANCH  12  13
ENDBRANCH   6  12
TORSDOF 2
ENDMDL
MODEL       63
REMARK 921   NORMALIZED FREE ENERGY PREDICTED BY IDOCK:   -4.89 KCAL/MOL
REMARK 922        TOTAL FREE ENERGY PREDICTED BY IDOCK:   -6.44 KCAL/MOL
REMARK 923 INTER-LIGAND FREE ENERGY PREDICTED BY IDOCK:   -5.38 KCAL/MOL
REMARK 924 INTRA-LIGAND FREE ENERGY PREDICTED BY IDOCK:   -1.06 KCAL/MOL
REMARK 927      BINDING AFFINITY PREDICTED BY RF-SCORE:    0.00 PKD
ROOT
HETATM    1  C   UNL     1      -9.689   4.033  69.813  1.00  0.00    -0.184 C  
HETATM    2  O   UNL     1     -10.345   4.701  70.886  1.00  0.00    -0.177 OA 
HETATM    3  C   UNL     1      -9.579   3.558  71.243  1.00  0.00    -0.172 C  
HETATM    4  C   UNL     1      -8.114   3.723  71.619  1.00  0.00    -0.066 C  
HETATM    5  C   UNL     1      -7.832   5.120  72.200  1.00  0.00    -0.108 C  
HETATM    6  C   UNL     1      -8.014   6.299  71.206  1.00  0.00    -0.116 C  
HETATM    7  C   UNL     1      -7.994   5.923  69.705  1.00  0.00    -0.101 C  
HETATM    8  N   UNL     1      -7.345   3.567  70.284  1.00  0.00    -0.041 N  
HETATM    9  C   UNL     1      -8.279   4.442  69.407  1.00  0.00    -0.063 C  
HETATM   10  C   UNL     1      -7.395   2.102  69.811  1.00  0.00    -0.043 C  
HETATM   11  C   UNL     1      -5.872   3.942  70.302  1.00  0.00    -0.017 C  
ENDROOT
BRANCH   6  12
HETATM   12  O   UNL     1      -9.266   6.982  71.442  1.00  0.00    -0.151 OA 
BRANCH  12  13
HETATM   13  C   UNL     1      -9.353   8.294  71.055  1.00  0.00    -0.162 C  
HETATM   14  C   UNL     1     -10.494   8.475  70.000  1.00  0.00    -0.223 C  
HETATM   15  C   UNL     1      -9.945   8.807  68.617  1.00  0.00    -0.182 A  
HETATM   16  O   UNL     1     -11.242   7.263  69.811  1.00  0.00    -0.396 OA 
HETATM   17  C   UNL     1     -11.456   9.526  70.545  1.00  0.00    -0.276 A  
HETATM   18  O   UNL     1      -8.665   9.175  71.556  1.00  0.00    -0.334 OA 
HETATM   19  C   UNL     1     -10.535   8.531  67.390  1.00  0.00    -0.351 A  
HETATM   20  C   UNL     1     -11.439  10.901  70.366  1.00  0.00    -0.367 A  
HETATM   21  H   UNL     1     -11.935   7.372  69.171  1.00  0.00     0.000 HD 
HETATM   22  C   UNL     1     -12.490  11.567  71.062  1.00  0.00    -0.458 A  
HETATM   23  C   UNL     1      -9.763   8.979  66.281  1.00  0.00    -0.345 A  
HETATM   24  C   UNL     1      -8.606   9.602  66.682  1.00  0.00    -0.130 A  
HETATM   25  C   UNL     1     -13.281  10.688  71.762  1.00  0.00    -0.421 A  
HETATM   26  S   UNL     1      -8.453   9.635  68.381  1.00  0.00    -0.119 SA 
HETATM   27  S   UNL     1     -12.739   9.076  71.611  1.00  0.00    -0.379 SA 
ENDBRANCH  12  13
ENDBRANCH   6  12
TORSDOF 2
ENDMDL
MODEL       64
REMARK 921   NORMALIZED FREE ENERGY PREDICTED BY IDOCK:   -4.85 KCAL/MOL
REMARK 922        TOTAL FREE ENERGY PREDICTED BY IDOCK:   -6.40 KCAL/MOL
REMARK 923 INTER-LIGAND FREE ENERGY PREDICTED BY IDOCK:   -5.51 KCAL/MOL
REMARK 924 INTRA-LIGAND FREE ENERGY PREDICTED BY IDOCK:   -0.90 KCAL/MOL
REMARK 927      BINDING AFFINITY PREDICTED BY RF-SCORE:    0.00 PKD
ROOT
HETATM    1  C   UNL     1      -8.010  18.980  68.687  1.00  0.00    -0.352 C  
HETATM    2  O   UNL     1      -9.251  18.283  68.683  1.00  0.00    -0.313 OA 
HETATM    3  C   UNL     1      -8.871  18.877  67.449  1.00  0.00    -0.273 C  
HETATM    4  C   UNL     1      -8.057  18.073  66.447  1.00  0.00    -0.260 C  
HETATM    5  C   UNL     1      -8.314  16.562  66.591  1.00  0.00    -0.297 C  
HETATM    6  C   UNL     1      -7.837  15.934  67.928  1.00  0.00    -0.138 C  
HETATM    7  C   UNL     1      -6.787  16.752  68.720  1.00  0.00    -0.188 C  
HETATM    8  N   UNL     1      -6.581  18.370  66.810  1.00  0.00    -0.183 N  
HETATM    9  C   UNL     1      -6.720  18.243  68.351  1.00  0.00    -0.226 C  
HETATM   10  C   UNL     1      -6.223  19.820  66.430  1.00  0.00    -0.172 C  
HETATM   11  C   UNL     1      -5.530  17.499  66.142  1.00  0.00    -0.183 C  
ENDROOT
BRANCH   6  12
HETATM   12  O   UNL     1      -8.952  15.720  68.823  1.00  0.00    -0.187 OA 
BRANCH  12  13
HETATM   13  C   UNL     1      -9.789  14.670  68.549  1.00  0.00    -0.228 C  
HETATM   14  C   UNL     1     -11.272  15.164  68.476  1.00  0.00    -0.293 C  
HETATM   15  C   UNL     1     -12.104  14.644  69.642  1.00  0.00    -0.311 A  
HETATM   16  O   UNL     1     -11.363  16.595  68.575  1.00  0.00    -0.317 OA 
HETATM   17  C   UNL     1     -11.818  14.765  67.108  1.00  0.00    -0.286 A  
HETATM   18  O   UNL     1      -9.376  13.540  68.320  1.00  0.00    -0.204 OA 
HETATM   19  C   UNL     1     -13.228  15.237  70.203  1.00  0.00     0.078 A  
HETATM   20  C   UNL     1     -12.469  13.600  66.733  1.00  0.00    -0.241 A  
HETATM   21  H   UNL     1     -12.263  16.895  68.531  1.00  0.00     0.000 HD 
HETATM   22  C   UNL     1     -12.806  13.568  65.349  1.00  0.00    -0.420 A  
HETATM   23  C   UNL     1     -13.781  14.490  71.282  1.00  0.00    -0.407 A  
HETATM   24  C   UNL     1     -13.077  13.333  71.513  1.00  0.00    -0.328 A  
HETATM   25  C   UNL     1     -12.399  14.706  64.695  1.00  0.00    -0.375 A  
HETATM   26  S   UNL     1     -11.760  13.158  70.444  1.00  0.00     0.086 SA 
HETATM   27  S   UNL     1     -11.584  15.788  65.735  1.00  0.00     0.513 SA 
ENDBRANCH  12  13
ENDBRANCH   6  12
TORSDOF 2
ENDMDL
MODEL       65
REMARK 921   NORMALIZED FREE ENERGY PREDICTED BY IDOCK:   -4.84 KCAL/MOL
REMARK 922        TOTAL FREE ENERGY PREDICTED BY IDOCK:   -6.39 KCAL/MOL
REMARK 923 INTER-LIGAND FREE ENERGY PREDICTED BY IDOCK:   -5.64 KCAL/MOL
REMARK 924 INTRA-LIGAND FREE ENERGY PREDICTED BY IDOCK:   -0.75 KCAL/MOL
REMARK 927      BINDING AFFINITY PREDICTED BY RF-SCORE:    0.00 PKD
ROOT
HETATM    1  C   UNL     1      -9.177  13.637  66.761  1.00  0.00    -0.241 C  
HETATM    2  O   UNL     1      -9.150  13.232  68.125  1.00  0.00    -0.198 OA 
HETATM    3  C   UNL     1      -9.706  14.515  67.871  1.00  0.00    -0.218 C  
HETATM    4  C   UNL     1     -11.199  14.650  67.613  1.00  0.00    -0.321 C  
HETATM    5  C   UNL     1     -11.996  13.527  68.300  1.00  0.00    -0.377 C  
HETATM    6  C   UNL     1     -11.731  12.098  67.754  1.00  0.00    -0.320 C  
HETATM    7  C   UNL     1     -11.095  12.023  66.344  1.00  0.00    -0.365 C  
HETATM    8  N   UNL     1     -11.348  14.508  66.078  1.00  0.00    -0.338 N  
HETATM    9  C   UNL     1     -10.382  13.307  65.890  1.00  0.00    -0.292 C  
HETATM   10  C   UNL     1     -10.783  15.756  65.373  1.00  0.00    -0.404 C  
HETATM   11  C   UNL     1     -12.762  14.340  65.547  1.00  0.00    -0.380 C  
ENDROOT
BRANCH   6  12
HETATM   12  O   UNL     1     -10.857  11.362  68.639  1.00  0.00    -0.185 OA 
BRANCH  12  13
HETATM   13  C   UNL     1     -10.449  10.118  68.233  1.00  0.00    -0.211 C  
HETATM   14  C   UNL     1      -8.950   9.886  68.618  1.00  0.00    -0.128 C  
HETATM   15  C   UNL     1      -8.047   9.840  67.391  1.00  0.00    -0.114 A  
HETATM   16  O   UNL     1      -8.431  10.965  69.411  1.00  0.00    -0.363 OA 
HETATM   17  C   UNL     1      -8.890   8.621  69.471  1.00  0.00    -0.144 A  
HETATM   18  O   UNL     1     -11.212   9.309  67.719  1.00  0.00     0.007 OA 
HETATM   19  C   UNL     1      -6.699  10.172  67.327  1.00  0.00    -0.073 A  
HETATM   20  C   UNL     1      -8.711   7.306  69.070  1.00  0.00    -0.132 A  
HETATM   21  H   UNL     1      -7.521  10.825  69.645  1.00  0.00     0.000 HD 
HETATM   22  C   UNL     1      -8.743   6.383  70.155  1.00  0.00    -0.139 A  
HETATM   23  C   UNL     1      -6.142  10.014  66.027  1.00  0.00    -0.077 A  
HETATM   24  C   UNL     1      -7.070   9.551  65.126  1.00  0.00    -0.104 A  
HETATM   25  C   UNL     1      -8.951   7.012  71.360  1.00  0.00    -0.139 A  
HETATM   26  S   UNL     1      -8.600   9.319  65.845  1.00  0.00    -0.156 SA 
HETATM   27  S   UNL     1      -9.144   8.698  71.178  1.00  0.00    -0.230 SA 
ENDBRANCH  12  13
ENDBRANCH   6  12
TORSDOF 2
ENDMDL
MODEL       66
REMARK 921   NORMALIZED FREE ENERGY PREDICTED BY IDOCK:   -4.83 KCAL/MOL
REMARK 922        TOTAL FREE ENERGY PREDICTED BY IDOCK:   -6.37 KCAL/MOL
REMARK 923 INTER-LIGAND FREE ENERGY PREDICTED BY IDOCK:   -5.90 KCAL/MOL
REMARK 924 INTRA-LIGAND FREE ENERGY PREDICTED BY IDOCK:   -0.48 KCAL/MOL
REMARK 927      BINDING AFFINITY PREDICTED BY RF-SCORE:    0.00 PKD
ROOT
HETATM    1  C   UNL     1      -8.332  11.311  66.955  1.00  0.00    -0.153 C  
HETATM    2  O   UNL     1      -8.036  10.787  68.245  1.00  0.00    -0.111 OA 
HETATM    3  C   UNL     1      -8.482  12.136  68.213  1.00  0.00    -0.176 C  
HETATM    4  C   UNL     1      -9.968  12.439  68.331  1.00  0.00    -0.210 C  
HETATM    5  C   UNL     1     -10.709  11.344  69.118  1.00  0.00    -0.229 C  
HETATM    6  C   UNL     1     -10.747   9.950  68.436  1.00  0.00    -0.232 C  
HETATM    7  C   UNL     1     -10.469   9.937  66.913  1.00  0.00    -0.284 C  
HETATM    8  N   UNL     1     -10.485  12.448  66.870  1.00  0.00    -0.223 N  
HETATM    9  C   UNL     1      -9.737  11.180  66.381  1.00  0.00    -0.204 C  
HETATM   10  C   UNL     1      -9.958  13.692  66.129  1.00  0.00    -0.306 C  
HETATM   11  C   UNL     1     -11.993  12.468  66.686  1.00  0.00    -0.281 C  
ENDROOT
BRANCH   6  12
HETATM   12  O   UNL     1      -9.784   9.056  69.037  1.00  0.00    -0.161 OA 
BRANCH  12  13
HETATM   13  C   UNL     1      -9.917   8.791  70.376  1.00  0.00    -0.189 C  
HETATM   14  C   UNL     1     -10.772   7.499  70.592  1.00  0.00    -0.230 C  
HETATM   15  C   UNL     1     -12.131   7.811  71.208  1.00  0.00    -0.306 A  
HETATM   16  O   UNL     1     -11.079   6.849  69.347  1.00  0.00    -0.352 OA 
HETATM   17  C   UNL     1      -9.932   6.530  71.419  1.00  0.00    -0.183 A  
HETATM   18  O   UNL     1      -9.357   9.458  71.237  1.00  0.00    -0.246 OA 
HETATM   19  C   UNL     1     -13.304   7.080  71.069  1.00  0.00    -0.079 A  
HETATM   20  C   UNL     1      -9.864   6.392  72.797  1.00  0.00    -0.179 A  
HETATM   21  H   UNL     1     -11.598   6.065  69.478  1.00  0.00     0.000 HD 
HETATM   22  C   UNL     1      -8.935   5.394  73.211  1.00  0.00    -0.120 A  
HETATM   23  C   UNL     1     -14.403   7.639  71.781  1.00  0.00    -0.586 A  
HETATM   24  C   UNL     1     -14.045   8.777  72.461  1.00  0.00    -0.349 A  
HETATM   25  C   UNL     1      -8.309   4.797  72.143  1.00  0.00    -0.119 A  
HETATM   26  S   UNL     1     -12.400   9.169  72.233  1.00  0.00    -0.254 SA 
HETATM   27  S   UNL     1      -8.812   5.461  70.653  1.00  0.00    -0.133 SA 
ENDBRANCH  12  13
ENDBRANCH   6  12
TORSDOF 2
ENDMDL
MODEL       67
REMARK 921   NORMALIZED FREE ENERGY PREDICTED BY IDOCK:   -4.80 KCAL/MOL
REMARK 922        TOTAL FREE ENERGY PREDICTED BY IDOCK:   -6.35 KCAL/MOL
REMARK 923 INTER-LIGAND FREE ENERGY PREDICTED BY IDOCK:   -5.48 KCAL/MOL
REMARK 924 INTRA-LIGAND FREE ENERGY PREDICTED BY IDOCK:   -0.86 KCAL/MOL
REMARK 927      BINDING AFFINITY PREDICTED BY RF-SCORE:    0.00 PKD
ROOT
HETATM    1  C   UNL     1     -10.607   6.231  68.532  1.00  0.00    -0.262 C  
HETATM    2  O   UNL     1     -11.366   7.335  69.015  1.00  0.00     0.065 OA 
HETATM    3  C   UNL     1     -11.285   6.211  69.882  1.00  0.00    -0.414 C  
HETATM    4  C   UNL     1     -10.163   6.130  70.905  1.00  0.00    -0.201 C  
HETATM    5  C   UNL     1      -9.672   7.529  71.319  1.00  0.00    -0.173 C  
HETATM    6  C   UNL     1      -8.986   8.350  70.194  1.00  0.00    -0.142 C  
HETATM    7  C   UNL     1      -8.472   7.533  68.983  1.00  0.00    -0.133 C  
HETATM    8  N   UNL     1      -9.016   5.390  70.173  1.00  0.00    -0.132 N  
HETATM    9  C   UNL     1      -9.114   6.146  68.822  1.00  0.00    -0.126 C  
HETATM   10  C   UNL     1      -9.383   3.906  69.977  1.00  0.00    -0.176 C  
HETATM   11  C   UNL     1      -7.661   5.390  70.862  1.00  0.00    -0.090 C  
ENDROOT
BRANCH   6  12
HETATM   12  O   UNL     1      -9.885   9.350  69.664  1.00  0.00    -0.174 OA 
BRANCH  12  13
HETATM   13  C   UNL     1      -9.328  10.419  69.012  1.00  0.00    -0.194 C  
HETATM   14  C   UNL     1     -10.290  10.932  67.890  1.00  0.00    -0.187 C  
HETATM   15  C   UNL     1      -9.739  10.658  66.496  1.00  0.00    -0.194 A  
HETATM   16  O   UNL     1     -11.555  10.251  67.920  1.00  0.00    -0.672 OA 
HETATM   17  C   UNL     1     -10.559  12.410  68.162  1.00  0.00    -0.216 A  
HETATM   18  O   UNL     1      -8.261  10.914  69.352  1.00  0.00    -0.091 OA 
HETATM   19  C   UNL     1     -10.465  10.476  65.326  1.00  0.00    -0.232 A  
HETATM   20  C   UNL     1      -9.868  13.522  67.706  1.00  0.00    -0.233 A  
HETATM   21  H   UNL     1     -12.140  10.563  67.239  1.00  0.00     0.000 HD 
HETATM   22  C   UNL     1     -10.396  14.749  68.200  1.00  0.00    -0.239 A  
HETATM   23  C   UNL     1      -9.646  10.242  64.185  1.00  0.00    -0.376 A  
HETATM   24  C   UNL     1      -8.310  10.265  64.503  1.00  0.00    -0.168 A  
HETATM   25  C   UNL     1     -11.475  14.548  69.028  1.00  0.00    -0.290 A  
HETATM   26  S   UNL     1      -8.051  10.557  66.164  1.00  0.00    -0.149 SA 
HETATM   27  S   UNL     1     -11.824  12.890  69.237  1.00  0.00    -0.284 SA 
ENDBRANCH  12  13
ENDBRANCH   6  12
TORSDOF 2
ENDMDL
MODEL       68
REMARK 921   NORMALIZED FREE ENERGY PREDICTED BY IDOCK:   -4.80 KCAL/MOL
REMARK 922        TOTAL FREE ENERGY PREDICTED BY IDOCK:   -6.34 KCAL/MOL
REMARK 923 INTER-LIGAND FREE ENERGY PREDICTED BY IDOCK:   -5.76 KCAL/MOL
REMARK 924 INTRA-LIGAND FREE ENERGY PREDICTED BY IDOCK:   -0.59 KCAL/MOL
REMARK 927      BINDING AFFINITY PREDICTED BY RF-SCORE:    0.00 PKD
ROOT
HETATM    1  C   UNL     1     -11.266   8.847  70.438  1.00  0.00    -0.230 C  
HETATM    2  O   UNL     1     -10.957  10.222  70.644  1.00  0.00    -0.308 OA 
HETATM    3  C   UNL     1     -10.347   9.308  71.546  1.00  0.00    -0.294 C  
HETATM    4  C   UNL     1      -8.982   8.724  71.217  1.00  0.00    -0.231 C  
HETATM    5  C   UNL     1      -8.162   9.671  70.322  1.00  0.00    -0.217 C  
HETATM    6  C   UNL     1      -8.736   9.897  68.897  1.00  0.00    -0.140 C  
HETATM    7  C   UNL     1      -9.746   8.834  68.402  1.00  0.00    -0.175 C  
HETATM    8  N   UNL     1      -9.288   7.426  70.430  1.00  0.00    -0.162 N  
HETATM    9  C   UNL     1     -10.402   8.000  69.514  1.00  0.00    -0.221 C  
HETATM   10  C   UNL     1      -9.877   6.360  71.374  1.00  0.00    -0.176 C  
HETATM   11  C   UNL     1      -8.110   6.758  69.740  1.00  0.00    -0.126 C  
ENDROOT
BRANCH   6  12
HETATM   12  O   UNL     1      -9.406  11.175  68.810  1.00  0.00    -0.181 OA 
BRANCH  12  13
HETATM   13  C   UNL     1      -9.032  12.016  67.794  1.00  0.00    -0.176 C  
HETATM   14  C   UNL     1      -9.706  13.417  67.973  1.00  0.00    -0.222 C  
HETATM   15  C   UNL     1     -10.755  13.686  66.900  1.00  0.00    -0.275 A  
HETATM   16  O   UNL     1     -10.425  13.508  69.214  1.00  0.00    -0.434 OA 
HETATM   17  C   UNL     1      -8.590  14.457  68.013  1.00  0.00    -0.166 A  
HETATM   18  O   UNL     1      -8.218  11.693  66.938  1.00  0.00    -0.160 OA 
HETATM   19  C   UNL     1     -11.872  14.505  67.005  1.00  0.00    -0.408 A  
HETATM   20  C   UNL     1      -8.018  15.165  66.967  1.00  0.00    -0.223 A  
HETATM   21  H   UNL     1     -10.834  14.358  69.323  1.00  0.00     0.000 HD 
HETATM   22  C   UNL     1      -6.969  16.032  67.388  1.00  0.00    -0.223 A  
HETATM   23  C   UNL     1     -12.653  14.547  65.815  1.00  0.00    -0.196 A  
HETATM   24  C   UNL     1     -12.109  13.771  64.820  1.00  0.00    -0.410 A  
HETATM   25  C   UNL     1      -6.758  15.965  68.745  1.00  0.00    -0.125 A  
HETATM   26  S   UNL     1     -10.675  12.996  65.324  1.00  0.00    -0.309 SA 
HETATM   27  S   UNL     1      -7.793  14.835  69.499  1.00  0.00     0.033 SA 
ENDBRANCH  12  13
ENDBRANCH   6  12
TORSDOF 2
ENDMDL
MODEL       69
REMARK 921   NORMALIZED FREE ENERGY PREDICTED BY IDOCK:   -4.78 KCAL/MOL
REMARK 922        TOTAL FREE ENERGY PREDICTED BY IDOCK:   -6.32 KCAL/MOL
REMARK 923 INTER-LIGAND FREE ENERGY PREDICTED BY IDOCK:   -5.79 KCAL/MOL
REMARK 924 INTRA-LIGAND FREE ENERGY PREDICTED BY IDOCK:   -0.52 KCAL/MOL
REMARK 927      BINDING AFFINITY PREDICTED BY RF-SCORE:    0.00 PKD
ROOT
HETATM    1  C   UNL     1      -9.807  16.690  66.247  1.00  0.00    -0.310 C  
HETATM    2  O   UNL     1      -8.807  15.737  65.902  1.00  0.00    -0.302 OA 
HETATM    3  C   UNL     1      -8.452  16.669  66.915  1.00  0.00    -0.215 C  
HETATM    4  C   UNL     1      -8.717  16.333  68.374  1.00  0.00    -0.205 C  
HETATM    5  C   UNL     1      -8.712  14.813  68.614  1.00  0.00    -0.178 C  
HETATM    6  C   UNL     1      -9.858  14.029  67.919  1.00  0.00    -0.233 C  
HETATM    7  C   UNL     1     -11.081  14.871  67.482  1.00  0.00    -0.319 C  
HETATM    8  N   UNL     1     -10.138  16.883  68.652  1.00  0.00    -0.273 N  
HETATM    9  C   UNL     1     -10.812  16.378  67.348  1.00  0.00    -0.219 C  
HETATM   10  C   UNL     1     -10.116  18.423  68.674  1.00  0.00    -0.377 C  
HETATM   11  C   UNL     1     -10.782  16.463  69.963  1.00  0.00    -0.258 C  
ENDROOT
BRANCH   6  12
HETATM   12  O   UNL     1      -9.376  13.357  66.733  1.00  0.00    -0.246 OA 
BRANCH  12  13
HETATM   13  C   UNL     1      -8.645  12.211  66.909  1.00  0.00    -0.191 C  
HETATM   14  C   UNL     1      -9.577  10.956  66.846  1.00  0.00    -0.178 C  
HETATM   15  C   UNL     1      -9.709  10.275  68.203  1.00  0.00    -0.143 A  
HETATM   16  O   UNL     1     -10.923  11.310  66.485  1.00  0.00    -0.282 OA 
HETATM   17  C   UNL     1      -9.036  10.041  65.751  1.00  0.00    -0.157 A  
HETATM   18  O   UNL     1      -7.425  12.219  67.015  1.00  0.00    -0.140 OA 
HETATM   19  C   UNL     1     -10.780   9.519  68.663  1.00  0.00    -0.218 A  
HETATM   20  C   UNL     1      -8.109   9.015  65.851  1.00  0.00    -0.108 A  
HETATM   21  H   UNL     1     -11.489  10.548  66.447  1.00  0.00     0.000 HD 
HETATM   22  C   UNL     1      -7.822   8.399  64.598  1.00  0.00    -0.127 A  
HETATM   23  C   UNL     1     -10.588   9.013  69.980  1.00  0.00    -0.246 A  
HETATM   24  C   UNL     1      -9.368   9.381  70.495  1.00  0.00    -0.262 A  
HETATM   25  C   UNL     1      -8.530   8.972  63.569  1.00  0.00    -0.169 A  
HETATM   26  S   UNL     1      -8.471  10.333  69.400  1.00  0.00    -0.135 SA 
HETATM   27  S   UNL     1      -9.505  10.267  64.104  1.00  0.00    -0.304 SA 
ENDBRANCH  12  13
ENDBRANCH   6  12
TORSDOF 2
ENDMDL
MODEL       70
REMARK 921   NORMALIZED FREE ENERGY PREDICTED BY IDOCK:   -4.74 KCAL/MOL
REMARK 922        TOTAL FREE ENERGY PREDICTED BY IDOCK:   -6.28 KCAL/MOL
REMARK 923 INTER-LIGAND FREE ENERGY PREDICTED BY IDOCK:   -5.37 KCAL/MOL
REMARK 924 INTRA-LIGAND FREE ENERGY PREDICTED BY IDOCK:   -0.91 KCAL/MOL
REMARK 927      BINDING AFFINITY PREDICTED BY RF-SCORE:    0.00 PKD
ROOT
HETATM    1  C   UNL     1     -10.178   9.874  65.624  1.00  0.00    -0.159 C  
HETATM    2  O   UNL     1     -10.289  11.215  66.092  1.00  0.00    -0.237 OA 
HETATM    3  C   UNL     1     -10.996  10.236  66.842  1.00  0.00    -0.070 C  
HETATM    4  C   UNL     1     -10.312   9.549  68.015  1.00  0.00    -0.214 C  
HETATM    5  C   UNL     1      -9.228  10.443  68.641  1.00  0.00    -0.164 C  
HETATM    6  C   UNL     1      -8.009  10.745  67.727  1.00  0.00    -0.110 C  
HETATM    7  C   UNL     1      -7.807   9.778  66.534  1.00  0.00    -0.109 C  
HETATM    8  N   UNL     1      -9.640   8.296  67.400  1.00  0.00    -0.153 N  
HETATM    9  C   UNL     1      -9.057   8.978  66.134  1.00  0.00    -0.199 C  
HETATM   10  C   UNL     1     -10.711   7.263  66.999  1.00  0.00    -0.336 C  
HETATM   11  C   UNL     1      -8.660   7.548  68.289  1.00  0.00    -0.124 C  
ENDROOT
BRANCH   6  12
HETATM   12  O   UNL     1      -8.102  12.075  67.167  1.00  0.00    -0.165 OA 
BRANCH  12  13
HETATM   13  C   UNL     1      -8.099  13.130  68.043  1.00  0.00    -0.157 C  
HETATM   14  C   UNL     1      -9.051  14.262  67.532  1.00  0.00    -0.193 C  
HETATM   15  C   UNL     1      -8.279  15.500  67.092  1.00  0.00    -0.215 A  
HETATM   16  O   UNL     1      -9.783  13.856  66.365  1.00  0.00    -0.282 OA 
HETATM   17  C   UNL     1     -10.067  14.534  68.638  1.00  0.00    -0.244 A  
HETATM   18  O   UNL     1      -7.483  13.105  69.101  1.00  0.00     0.027 OA 
HETATM   19  C   UNL     1      -8.669  16.441  66.147  1.00  0.00    -0.347 A  
HETATM   20  C   UNL     1      -9.994  15.438  69.687  1.00  0.00    -0.270 A  
HETATM   21  H   UNL     1     -10.361  14.543  66.054  1.00  0.00     0.000 HD 
HETATM   22  C   UNL     1     -11.129  15.387  70.547  1.00  0.00    -0.361 A  
HETATM   23  C   UNL     1      -7.720  17.487  65.969  1.00  0.00    -0.237 A  
HETATM   24  C   UNL     1      -6.631  17.333  66.792  1.00  0.00    -0.212 A  
HETATM   25  C   UNL     1     -12.041  14.442  70.140  1.00  0.00    -0.335 A  
HETATM   26  S   UNL     1      -6.753  15.935  67.761  1.00  0.00    -0.173 SA 
HETATM   27  S   UNL     1     -11.514  13.597  68.753  1.00  0.00    -0.334 SA 
ENDBRANCH  12  13
ENDBRANCH   6  12
TORSDOF 2
ENDMDL
MODEL       71
REMARK 921   NORMALIZED FREE ENERGY PREDICTED BY IDOCK:   -4.70 KCAL/MOL
REMARK 922        TOTAL FREE ENERGY PREDICTED BY IDOCK:   -6.23 KCAL/MOL
REMARK 923 INTER-LIGAND FREE ENERGY PREDICTED BY IDOCK:   -5.25 KCAL/MOL
REMARK 924 INTRA-LIGAND FREE ENERGY PREDICTED BY IDOCK:   -0.98 KCAL/MOL
REMARK 927      BINDING AFFINITY PREDICTED BY RF-SCORE:    0.00 PKD
ROOT
HETATM    1  C   UNL     1     -10.530   6.317  69.655  1.00  0.00    -0.238 C  
HETATM    2  O   UNL     1     -10.185   7.695  69.567  1.00  0.00    -0.198 OA 
HETATM    3  C   UNL     1      -9.095   6.791  69.688  1.00  0.00    -0.143 C  
HETATM    4  C   UNL     1      -8.445   6.225  68.435  1.00  0.00    -0.115 C  
HETATM    5  C   UNL     1      -8.595   7.180  67.238  1.00  0.00    -0.121 C  
HETATM    6  C   UNL     1     -10.051   7.396  66.742  1.00  0.00    -0.235 C  
HETATM    7  C   UNL     1     -11.076   6.319  67.174  1.00  0.00    -0.389 C  
HETATM    8  N   UNL     1      -9.228   4.921  68.141  1.00  0.00    -0.118 N  
HETATM    9  C   UNL     1     -10.655   5.478  68.390  1.00  0.00    -0.140 C  
HETATM   10  C   UNL     1      -8.888   3.849  69.195  1.00  0.00    -0.101 C  
HETATM   11  C   UNL     1      -8.973   4.266  66.794  1.00  0.00    -0.122 C  
ENDROOT
BRANCH   6  12
HETATM   12  O   UNL     1     -10.569   8.665  67.203  1.00  0.00    -0.294 OA 
BRANCH  12  13
HETATM   13  C   UNL     1     -10.005   9.802  66.685  1.00  0.00    -0.229 C  
HETATM   14  C   UNL     1      -9.831  10.880  67.806  1.00  0.00    -0.175 C  
HETATM   15  C   UNL     1     -10.768  12.066  67.607  1.00  0.00    -0.217 A  
HETATM   16  O   UNL     1     -10.172  10.361  69.102  1.00  0.00    -0.198 OA 
HETATM   17  C   UNL     1      -8.355  11.265  67.842  1.00  0.00    -0.131 A  
HETATM   18  O   UNL     1      -9.633   9.882  65.521  1.00  0.00    -0.234 OA 
HETATM   19  C   UNL     1     -11.277  12.908  68.588  1.00  0.00    -0.321 A  
HETATM   20  C   UNL     1      -7.697  12.269  67.147  1.00  0.00    -0.134 A  
HETATM   21  H   UNL     1     -10.067  11.015  69.783  1.00  0.00     0.000 HD 
HETATM   22  C   UNL     1      -6.298  12.307  67.414  1.00  0.00    -0.152 A  
HETATM   23  C   UNL     1     -12.123  13.929  68.070  1.00  0.00    -0.318 A  
HETATM   24  C   UNL     1     -12.233  13.855  66.702  1.00  0.00    -0.424 A  
HETATM   25  C   UNL     1      -5.916  11.329  68.301  1.00  0.00    -0.045 A  
HETATM   26  S   UNL     1     -11.329  12.561  66.056  1.00  0.00    -0.363 SA 
HETATM   27  S   UNL     1      -7.229  10.348  68.779  1.00  0.00    -0.091 SA 
ENDBRANCH  12  13
ENDBRANCH   6  12
TORSDOF 2
ENDMDL
MODEL       72
REMARK 921   NORMALIZED FREE ENERGY PREDICTED BY IDOCK:   -4.69 KCAL/MOL
REMARK 922        TOTAL FREE ENERGY PREDICTED BY IDOCK:   -6.22 KCAL/MOL
REMARK 923 INTER-LIGAND FREE ENERGY PREDICTED BY IDOCK:   -5.15 KCAL/MOL
REMARK 924 INTRA-LIGAND FREE ENERGY PREDICTED BY IDOCK:   -1.07 KCAL/MOL
REMARK 927      BINDING AFFINITY PREDICTED BY RF-SCORE:    0.00 PKD
ROOT
HETATM    1  C   UNL     1     -10.643   9.199  66.567  1.00  0.00    -0.026 C  
HETATM    2  O   UNL     1      -9.490   8.392  66.786  1.00  0.00    -0.167 OA 
HETATM    3  C   UNL     1      -9.398   9.328  65.720  1.00  0.00    -0.244 C  
HETATM    4  C   UNL     1      -8.859  10.724  65.990  1.00  0.00    -0.180 C  
HETATM    5  C   UNL     1      -7.889  10.736  67.185  1.00  0.00    -0.124 C  
HETATM    6  C   UNL     1      -8.527  10.395  68.559  1.00  0.00    -0.129 C  
HETATM    7  C   UNL     1     -10.065  10.545  68.643  1.00  0.00    -0.190 C  
HETATM    8  N   UNL     1     -10.110  11.566  66.349  1.00  0.00    -0.210 N  
HETATM    9  C   UNL     1     -10.789  10.533  67.287  1.00  0.00    -0.279 C  
HETATM   10  C   UNL     1     -10.975  11.790  65.094  1.00  0.00    -0.294 C  
HETATM   11  C   UNL     1      -9.854  12.949  66.923  1.00  0.00    -0.235 C  
ENDROOT
BRANCH   6  12
HETATM   12  O   UNL     1      -8.224   9.035  68.944  1.00  0.00    -0.116 OA 
BRANCH  12  13
HETATM   13  C   UNL     1      -8.427   8.690  70.256  1.00  0.00    -0.132 C  
HETATM   14  C   UNL     1      -9.196   7.331  70.346  1.00  0.00    -0.158 C  
HETATM   15  C   UNL     1     -10.613   7.512  70.880  1.00  0.00    -0.220 A  
HETATM   16  O   UNL     1      -9.370   6.729  69.053  1.00  0.00    -0.136 OA 
HETATM   17  C   UNL     1      -8.344   6.380  71.183  1.00  0.00    -0.123 A  
HETATM   18  O   UNL     1      -7.977   9.347  71.186  1.00  0.00    -0.322 OA 
HETATM   19  C   UNL     1     -11.717   6.709  70.623  1.00  0.00    -0.452 A  
HETATM   20  C   UNL     1      -8.358   6.172  72.554  1.00  0.00    -0.115 A  
HETATM   21  H   UNL     1      -9.838   5.904  69.108  1.00  0.00     0.000 HD 
HETATM   22  C   UNL     1      -7.388   5.222  72.983  1.00  0.00    -0.091 A  
HETATM   23  C   UNL     1     -12.899   7.149  71.282  1.00  0.00    -0.399 A  
HETATM   24  C   UNL     1     -12.673   8.272  72.041  1.00  0.00    -0.342 A  
HETATM   25  C   UNL     1      -6.650   4.729  71.933  1.00  0.00    -0.031 A  
HETATM   26  S   UNL     1     -11.050   8.790  71.949  1.00  0.00    -0.371 SA 
HETATM   27  S   UNL     1      -7.099   5.436  70.446  1.00  0.00    -0.063 SA 
ENDBRANCH  12  13
ENDBRANCH   6  12
TORSDOF 2
ENDMDL
MODEL       73
REMARK 921   NORMALIZED FREE ENERGY PREDICTED BY IDOCK:   -4.61 KCAL/MOL
REMARK 922        TOTAL FREE ENERGY PREDICTED BY IDOCK:   -6.13 KCAL/MOL
REMARK 923 INTER-LIGAND FREE ENERGY PREDICTED BY IDOCK:   -5.46 KCAL/MOL
REMARK 924 INTRA-LIGAND FREE ENERGY PREDICTED BY IDOCK:   -0.67 KCAL/MOL
REMARK 927      BINDING AFFINITY PREDICTED BY RF-SCORE:    0.00 PKD
ROOT
HETATM    1  C   UNL     1      -9.474  13.704  67.011  1.00  0.00    -0.252 C  
HETATM    2  O   UNL     1      -9.509  13.140  68.318  1.00  0.00    -0.217 OA 
HETATM    3  C   UNL     1     -10.617  13.959  67.966  1.00  0.00    -0.248 C  
HETATM    4  C   UNL     1     -11.842  13.331  67.320  1.00  0.00    -0.372 C  
HETATM    5  C   UNL     1     -12.003  11.855  67.728  1.00  0.00    -0.149 C  
HETATM    6  C   UNL     1     -10.884  10.903  67.225  1.00  0.00    -0.287 C  
HETATM    7  C   UNL     1     -10.039  11.426  66.038  1.00  0.00    -0.275 C  
HETATM    8  N   UNL     1     -11.565  13.405  65.797  1.00  0.00    -0.322 N  
HETATM    9  C   UNL     1     -10.082  12.949  65.836  1.00  0.00    -0.289 C  
HETATM   10  C   UNL     1     -11.656  14.865  65.313  1.00  0.00    -0.300 C  
HETATM   11  C   UNL     1     -12.502  12.615  64.899  1.00  0.00    -0.494 C  
ENDROOT
BRANCH   6  12
HETATM   12  O   UNL     1      -9.955  10.595  68.288  1.00  0.00    -0.151 OA 
BRANCH  12  13
HETATM   13  C   UNL     1     -10.064   9.366  68.886  1.00  0.00    -0.190 C  
HETATM   14  C   UNL     1      -8.848   8.462  68.496  1.00  0.00    -0.136 C  
HETATM   15  C   UNL     1      -9.263   7.307  67.592  1.00  0.00    -0.126 A  
HETATM   16  O   UNL     1      -7.869   9.186  67.733  1.00  0.00    -0.099 OA 
HETATM   17  C   UNL     1      -8.179   8.015  69.792  1.00  0.00    -0.120 A  
HETATM   18  O   UNL     1     -10.964   9.094  69.672  1.00  0.00    -0.226 OA 
HETATM   19  C   UNL     1      -8.476   6.648  66.656  1.00  0.00    -0.120 A  
HETATM   20  C   UNL     1      -8.428   6.887  70.560  1.00  0.00    -0.137 A  
HETATM   21  H   UNL     1      -7.131   8.638  67.496  1.00  0.00     0.000 HD 
HETATM   22  C   UNL     1      -7.620   6.821  71.732  1.00  0.00    -0.095 A  
HETATM   23  C   UNL     1      -9.165   5.604  65.976  1.00  0.00    -0.164 A  
HETATM   24  C   UNL     1     -10.460   5.476  66.416  1.00  0.00    -0.236 A  
HETATM   25  C   UNL     1      -6.777   7.901  71.839  1.00  0.00    -0.059 A  
HETATM   26  S   UNL     1     -10.839   6.612  67.631  1.00  0.00    -0.317 SA 
HETATM   27  S   UNL     1      -6.985   9.006  70.554  1.00  0.00    -0.080 SA 
ENDBRANCH  12  13
ENDBRANCH   6  12
TORSDOF 2
ENDMDL
MODEL       74
REMARK 921   NORMALIZED FREE ENERGY PREDICTED BY IDOCK:   -4.53 KCAL/MOL
REMARK 922        TOTAL FREE ENERGY PREDICTED BY IDOCK:   -6.04 KCAL/MOL
REMARK 923 INTER-LIGAND FREE ENERGY PREDICTED BY IDOCK:   -5.57 KCAL/MOL
REMARK 924 INTRA-LIGAND FREE ENERGY PREDICTED BY IDOCK:   -0.47 KCAL/MOL
REMARK 927      BINDING AFFINITY PREDICTED BY RF-SCORE:    0.00 PKD
ROOT
HETATM    1  C   UNL     1      -9.095   8.580  72.194  1.00  0.00    -0.249 C  
HETATM    2  O   UNL     1      -8.453   8.745  70.934  1.00  0.00    -0.140 OA 
HETATM    3  C   UNL     1      -8.679   7.403  71.343  1.00  0.00    -0.125 C  
HETATM    4  C   UNL     1      -9.970   6.703  70.948  1.00  0.00    -0.187 C  
HETATM    5  C   UNL     1     -10.547   7.275  69.641  1.00  0.00    -0.246 C  
HETATM    6  C   UNL     1     -11.023   8.751  69.717  1.00  0.00    -0.140 C  
HETATM    7  C   UNL     1     -11.293   9.299  71.140  1.00  0.00    -0.412 C  
HETATM    8  N   UNL     1     -10.952   7.006  72.107  1.00  0.00    -0.228 N  
HETATM    9  C   UNL     1     -10.615   8.512  72.273  1.00  0.00    -0.338 C  
HETATM   10  C   UNL     1     -10.537   6.229  73.371  1.00  0.00    -0.273 C  
HETATM   11  C   UNL     1     -12.411   6.653  71.869  1.00  0.00    -0.287 C  
ENDROOT
BRANCH   6  12
HETATM   12  O   UNL     1     -10.054   9.637  69.113  1.00  0.00    -0.173 OA 
BRANCH  12  13
HETATM   13  C   UNL     1     -10.165   9.870  67.766  1.00  0.00    -0.197 C  
HETATM   14  C   UNL     1      -9.187  11.011  67.331  1.00  0.00    -0.151 C  
HETATM   15  C   UNL     1      -9.933  12.277  66.925  1.00  0.00    -0.213 A  
HETATM   16  O   UNL     1      -8.334  11.424  68.411  1.00  0.00    -0.141 OA 
HETATM   17  C   UNL     1      -8.292  10.449  66.230  1.00  0.00    -0.146 A  
HETATM   18  O   UNL     1     -10.883   9.196  67.038  1.00  0.00    -0.182 OA 
HETATM   19  C   UNL     1      -9.468  13.585  66.991  1.00  0.00    -0.251 A  
HETATM   20  C   UNL     1      -8.486  10.457  64.857  1.00  0.00    -0.179 A  
HETATM   21  H   UNL     1      -7.741  12.117  68.147  1.00  0.00     0.000 HD 
HETATM   22  C   UNL     1      -7.442   9.802  64.143  1.00  0.00    -0.135 A  
HETATM   23  C   UNL     1     -10.413  14.543  66.527  1.00  0.00    -0.285 A  
HETATM   24  C   UNL     1     -11.577  13.948  66.103  1.00  0.00    -0.359 A  
HETATM   25  C   UNL     1      -6.477   9.302  64.984  1.00  0.00    -0.070 A  
HETATM   26  S   UNL     1     -11.527  12.251  66.271  1.00  0.00    -0.381 SA 
HETATM   27  S   UNL     1      -6.847   9.588  66.626  1.00  0.00    -0.084 SA 
ENDBRANCH  12  13
ENDBRANCH   6  12
TORSDOF 2
ENDMDL
MODEL       75
REMARK 921   NORMALIZED FREE ENERGY PREDICTED BY IDOCK:   -4.51 KCAL/MOL
REMARK 922        TOTAL FREE ENERGY PREDICTED BY IDOCK:   -6.02 KCAL/MOL
REMARK 923 INTER-LIGAND FREE ENERGY PREDICTED BY IDOCK:   -5.59 KCAL/MOL
REMARK 924 INTRA-LIGAND FREE ENERGY PREDICTED BY IDOCK:   -0.43 KCAL/MOL
REMARK 927      BINDING AFFINITY PREDICTED BY RF-SCORE:    0.00 PKD
ROOT
HETATM    1  C   UNL     1     -11.526  14.102  68.418  1.00  0.00    -0.302 C  
HETATM    2  O   UNL     1     -11.910  12.864  67.827  1.00  0.00    -0.349 OA 
HETATM    3  C   UNL     1     -12.146  14.026  67.042  1.00  0.00    -0.420 C  
HETATM    4  C   UNL     1     -11.074  14.514  66.080  1.00  0.00    -0.334 C  
HETATM    5  C   UNL     1     -10.179  13.359  65.596  1.00  0.00    -0.300 C  
HETATM    6  C   UNL     1      -9.307  12.692  66.694  1.00  0.00    -0.236 C  
HETATM    7  C   UNL     1      -9.089  13.527  67.980  1.00  0.00    -0.201 C  
HETATM    8  N   UNL     1     -10.218  15.500  66.913  1.00  0.00    -0.273 N  
HETATM    9  C   UNL     1     -10.119  14.646  68.204  1.00  0.00    -0.224 C  
HETATM   10  C   UNL     1     -11.014  16.790  67.191  1.00  0.00    -0.001 C  
HETATM   11  C   UNL     1      -8.908  15.953  66.289  1.00  0.00    -0.351 C  
ENDROOT
BRANCH   6  12
HETATM   12  O   UNL     1      -9.880  11.433  67.113  1.00  0.00    -0.188 OA 
BRANCH  12  13
HETATM   13  C   UNL     1      -9.015  10.409  67.399  1.00  0.00    -0.135 C  
HETATM   14  C   UNL     1      -9.370   9.145  66.546  1.00  0.00    -0.190 C  
HETATM   15  C   UNL     1      -9.924   8.015  67.406  1.00  0.00    -0.207 A  
HETATM   16  O   UNL     1     -10.410   9.420  65.594  1.00  0.00    -0.250 OA 
HETATM   17  C   UNL     1      -8.120   8.761  65.760  1.00  0.00    -0.109 A  
HETATM   18  O   UNL     1      -8.065  10.542  68.160  1.00  0.00    -0.108 OA 
HETATM   19  C   UNL     1     -10.796   7.008  67.010  1.00  0.00    -0.413 A  
HETATM   20  C   UNL     1      -7.093   7.900  66.119  1.00  0.00    -0.062 A  
HETATM   21  H   UNL     1     -10.626   8.653  65.076  1.00  0.00     0.000 HD 
HETATM   22  C   UNL     1      -6.068   7.814  65.134  1.00  0.00    -0.038 A  
HETATM   23  C   UNL     1     -11.118   6.099  68.057  1.00  0.00    -0.316 A  
HETATM   24  C   UNL     1     -10.474   6.420  69.228  1.00  0.00    -0.231 A  
HETATM   25  C   UNL     1      -6.329   8.615  64.047  1.00  0.00    -0.072 A  
HETATM   26  S   UNL     1      -9.499   7.810  69.063  1.00  0.00    -0.150 SA 
HETATM   27  S   UNL     1      -7.782   9.492  64.232  1.00  0.00    -0.132 SA 
ENDBRANCH  12  13
ENDBRANCH   6  12
TORSDOF 2
ENDMDL
MODEL       76
REMARK 921   NORMALIZED FREE ENERGY PREDICTED BY IDOCK:   -4.47 KCAL/MOL
REMARK 922        TOTAL FREE ENERGY PREDICTED BY IDOCK:   -5.97 KCAL/MOL
REMARK 923 INTER-LIGAND FREE ENERGY PREDICTED BY IDOCK:   -5.06 KCAL/MOL
REMARK 924 INTRA-LIGAND FREE ENERGY PREDICTED BY IDOCK:   -0.92 KCAL/MOL
REMARK 927      BINDING AFFINITY PREDICTED BY RF-SCORE:    0.00 PKD
ROOT
HETATM    1  C   UNL     1     -10.145  14.060  65.778  1.00  0.00    -0.327 C  
HETATM    2  O   UNL     1      -9.529  12.832  66.156  1.00  0.00    -0.238 OA 
HETATM    3  C   UNL     1      -9.153  13.973  66.915  1.00  0.00    -0.248 C  
HETATM    4  C   UNL     1      -9.933  14.332  68.170  1.00  0.00    -0.230 C  
HETATM    5  C   UNL     1     -10.576  13.090  68.812  1.00  0.00    -0.218 C  
HETATM    6  C   UNL     1     -11.683  12.405  67.964  1.00  0.00    -0.356 C  
HETATM    7  C   UNL     1     -12.312  13.275  66.849  1.00  0.00    -0.220 C  
HETATM    8  N   UNL     1     -11.053  15.283  67.679  1.00  0.00    -0.316 N  
HETATM    9  C   UNL     1     -11.462  14.481  66.415  1.00  0.00    -0.360 C  
HETATM   10  C   UNL     1     -10.453  16.643  67.271  1.00  0.00    -0.313 C  
HETATM   11  C   UNL     1     -12.155  15.604  68.675  1.00  0.00    -0.046 C  
ENDROOT
BRANCH   6  12
HETATM   12  O   UNL     1     -11.174  11.215  67.320  1.00  0.00    -0.296 OA 
BRANCH  12  13
HETATM   13  C   UNL     1     -10.774  10.182  68.127  1.00  0.00    -0.244 C  
HETATM   14  C   UNL     1      -9.466   9.531  67.566  1.00  0.00    -0.130 C  
HETATM   15  C   UNL     1      -9.713   8.124  67.033  1.00  0.00    -0.212 A  
HETATM   16  O   UNL     1      -8.948  10.259  66.441  1.00  0.00    -0.145 OA 
HETATM   17  C   UNL     1      -8.417   9.591  68.673  1.00  0.00    -0.119 A  
HETATM   18  O   UNL     1     -11.347   9.902  69.172  1.00  0.00    -0.158 OA 
HETATM   19  C   UNL     1      -9.000   7.465  66.039  1.00  0.00    -0.156 A  
HETATM   20  C   UNL     1      -8.137   8.660  69.662  1.00  0.00    -0.112 A  
HETATM   21  H   UNL     1      -8.154   9.864  66.101  1.00  0.00     0.000 HD 
HETATM   22  C   UNL     1      -7.102   9.081  70.546  1.00  0.00    -0.073 A  
HETATM   23  C   UNL     1      -9.482   6.152  65.777  1.00  0.00     0.105 A  
HETATM   24  C   UNL     1     -10.545   5.828  66.585  1.00  0.00    -0.280 A  
HETATM   25  C   UNL     1      -6.618  10.325  70.218  1.00  0.00    -0.142 A  
HETATM   26  S   UNL     1     -10.957   7.101  67.643  1.00  0.00    -0.093 SA 
HETATM   27  S   UNL     1      -7.432  10.996  68.876  1.00  0.00    -0.129 SA 
ENDBRANCH  12  13
ENDBRANCH   6  12
TORSDOF 2
ENDMDL
MODEL       77
REMARK 921   NORMALIZED FREE ENERGY PREDICTED BY IDOCK:   -4.44 KCAL/MOL
REMARK 922        TOTAL FREE ENERGY PREDICTED BY IDOCK:   -5.94 KCAL/MOL
REMARK 923 INTER-LIGAND FREE ENERGY PREDICTED BY IDOCK:   -5.57 KCAL/MOL
REMARK 924 INTRA-LIGAND FREE ENERGY PREDICTED BY IDOCK:   -0.37 KCAL/MOL
REMARK 927      BINDING AFFINITY PREDICTED BY RF-SCORE:    0.00 PKD
ROOT
HETATM    1  C   UNL     1     -11.027  15.125  66.555  1.00  0.00    -0.318 C  
HETATM    2  O   UNL     1      -9.772  14.694  66.041  1.00  0.00    -0.295 OA 
HETATM    3  C   UNL     1      -9.739  15.302  67.326  1.00  0.00    -0.212 C  
HETATM    4  C   UNL     1      -9.883  14.438  68.570  1.00  0.00    -0.233 C  
HETATM    5  C   UNL     1      -9.385  13.003  68.324  1.00  0.00    -0.199 C  
HETATM    6  C   UNL     1     -10.214  12.182  67.299  1.00  0.00    -0.202 C  
HETATM    7  C   UNL     1     -11.644  12.704  67.017  1.00  0.00    -0.431 C  
HETATM    8  N   UNL     1     -11.406  14.403  68.851  1.00  0.00    -0.258 N  
HETATM    9  C   UNL     1     -11.878  14.177  67.390  1.00  0.00    -0.413 C  
HETATM   10  C   UNL     1     -11.885  15.778  69.354  1.00  0.00    -0.349 C  
HETATM   11  C   UNL     1     -11.880  13.398  69.888  1.00  0.00    -0.315 C  
ENDROOT
BRANCH   6  12
HETATM   12  O   UNL     1      -9.539  12.120  66.022  1.00  0.00    -0.238 OA 
BRANCH  12  13
HETATM   13  C   UNL     1      -9.485  10.903  65.394  1.00  0.00    -0.214 C  
HETATM   14  C   UNL     1      -8.169  10.151  65.780  1.00  0.00    -0.144 C  
HETATM   15  C   UNL     1      -7.207  10.042  64.602  1.00  0.00    -0.140 A  
HETATM   16  O   UNL     1      -7.428  10.856  66.789  1.00  0.00    -0.120 OA 
HETATM   17  C   UNL     1      -8.571   8.801  66.368  1.00  0.00    -0.128 A  
HETATM   18  O   UNL     1     -10.403  10.478  64.703  1.00  0.00    -0.344 OA 
HETATM   19  C   UNL     1      -5.823   9.942  64.654  1.00  0.00    -0.098 A  
HETATM   20  C   UNL     1      -8.758   7.588  65.722  1.00  0.00    -0.142 A  
HETATM   21  H   UNL     1      -6.628  10.400  67.023  1.00  0.00     0.000 HD 
HETATM   22  C   UNL     1      -9.168   6.546  66.602  1.00  0.00    -0.172 A  
HETATM   23  C   UNL     1      -5.216   9.850  63.369  1.00  0.00    -0.087 A  
HETATM   24  C   UNL     1      -6.150   9.867  62.362  1.00  0.00    -0.105 A  
HETATM   25  C   UNL     1      -9.292   6.985  67.899  1.00  0.00    -0.123 A  
HETATM   26  S   UNL     1      -7.740  10.002  62.964  1.00  0.00    -0.146 SA 
HETATM   27  S   UNL     1      -8.953   8.652  68.046  1.00  0.00    -0.141 SA 
ENDBRANCH  12  13
ENDBRANCH   6  12
TORSDOF 2
ENDMDL
MODEL       78
REMARK 921   NORMALIZED FREE ENERGY PREDICTED BY IDOCK:   -4.41 KCAL/MOL
REMARK 922        TOTAL FREE ENERGY PREDICTED BY IDOCK:   -5.91 KCAL/MOL
REMARK 923 INTER-LIGAND FREE ENERGY PREDICTED BY IDOCK:   -5.26 KCAL/MOL
REMARK 924 INTRA-LIGAND FREE ENERGY PREDICTED BY IDOCK:   -0.65 KCAL/MOL
REMARK 927      BINDING AFFINITY PREDICTED BY RF-SCORE:    0.00 PKD
ROOT
HETATM    1  C   UNL     1      -8.741  10.967  65.403  1.00  0.00    -0.155 C  
HETATM    2  O   UNL     1      -9.975  10.451  65.892  1.00  0.00    -0.228 OA 
HETATM    3  C   UNL     1      -9.503   9.881  64.679  1.00  0.00    -0.278 C  
HETATM    4  C   UNL     1      -8.608   8.651  64.724  1.00  0.00    -0.111 C  
HETATM    5  C   UNL     1      -8.867   7.809  65.986  1.00  0.00    -0.189 C  
HETATM    6  C   UNL     1      -8.492   8.495  67.328  1.00  0.00    -0.123 C  
HETATM    7  C   UNL     1      -7.512   9.689  67.223  1.00  0.00    -0.088 C  
HETATM    8  N   UNL     1      -7.167   9.215  64.781  1.00  0.00    -0.096 N  
HETATM    9  C   UNL     1      -7.425  10.331  65.829  1.00  0.00    -0.144 C  
HETATM   10  C   UNL     1      -6.788   9.841  63.425  1.00  0.00    -0.119 C  
HETATM   11  C   UNL     1      -6.062   8.220  65.097  1.00  0.00    -0.045 C  
ENDROOT
BRANCH   6  12
HETATM   12  O   UNL     1      -9.672   8.988  68.001  1.00  0.00    -0.148 OA 
BRANCH  12  13
HETATM   13  C   UNL     1     -10.194   8.218  69.008  1.00  0.00    -0.217 C  
HETATM   14  C   UNL     1      -9.857   8.844  70.401  1.00  0.00    -0.189 C  
HETATM   15  C   UNL     1      -8.863   7.993  71.183  1.00  0.00    -0.140 A  
HETATM   16  O   UNL     1      -9.214  10.123  70.269  1.00  0.00    -0.366 OA 
HETATM   17  C   UNL     1     -11.178   9.069  71.131  1.00  0.00    -0.305 A  
HETATM   18  O   UNL     1     -10.889   7.233  68.790  1.00  0.00    -0.180 OA 
HETATM   19  C   UNL     1      -7.960   8.427  72.146  1.00  0.00    -0.181 A  
HETATM   20  C   UNL     1     -11.862   8.213  71.982  1.00  0.00    -0.392 A  
HETATM   21  H   UNL     1      -9.009  10.503  71.115  1.00  0.00     0.000 HD 
HETATM   22  C   UNL     1     -13.090   8.760  72.453  1.00  0.00    -0.444 A  
HETATM   23  C   UNL     1      -7.173   7.375  72.694  1.00  0.00    -0.075 A  
HETATM   24  C   UNL     1      -7.499   6.157  72.150  1.00  0.00    -0.095 A  
HETATM   25  C   UNL     1     -13.321  10.018  71.949  1.00  0.00    -0.415 A  
HETATM   26  S   UNL     1      -8.738   6.287  70.984  1.00  0.00    -0.136 SA 
HETATM   27  S   UNL     1     -12.084  10.519  70.885  1.00  0.00    -0.399 SA 
ENDBRANCH  12  13
ENDBRANCH   6  12
TORSDOF 2
ENDMDL
MODEL       79
REMARK 921   NORMALIZED FREE ENERGY PREDICTED BY IDOCK:   -4.39 KCAL/MOL
REMARK 922        TOTAL FREE ENERGY PREDICTED BY IDOCK:   -5.88 KCAL/MOL
REMARK 923 INTER-LIGAND FREE ENERGY PREDICTED BY IDOCK:   -4.83 KCAL/MOL
REMARK 924 INTRA-LIGAND FREE ENERGY PREDICTED BY IDOCK:   -1.06 KCAL/MOL
REMARK 927      BINDING AFFINITY PREDICTED BY RF-SCORE:    0.00 PKD
ROOT
HETATM    1  C   UNL     1     -11.371   6.695  71.447  1.00  0.00    -0.289 C  
HETATM    2  O   UNL     1     -11.429   8.116  71.511  1.00  0.00    -0.252 OA 
HETATM    3  C   UNL     1     -11.633   7.431  72.740  1.00  0.00    -0.209 C  
HETATM    4  C   UNL     1     -10.443   7.125  73.636  1.00  0.00    -0.370 C  
HETATM    5  C   UNL     1      -9.307   8.145  73.439  1.00  0.00    -0.267 C  
HETATM    6  C   UNL     1      -8.634   8.123  72.039  1.00  0.00    -0.162 C  
HETATM    7  C   UNL     1      -8.844   6.832  71.211  1.00  0.00    -0.136 C  
HETATM    8  N   UNL     1      -9.953   5.729  73.176  1.00  0.00    -0.172 N  
HETATM    9  C   UNL     1     -10.044   5.975  71.647  1.00  0.00    -0.190 C  
HETATM   10  C   UNL     1     -10.964   4.646  73.599  1.00  0.00    -0.316 C  
HETATM   11  C   UNL     1      -8.609   5.270  73.718  1.00  0.00    -0.113 C  
ENDROOT
BRANCH   6  12
HETATM   12  O   UNL     1      -9.109   9.218  71.223  1.00  0.00    -0.264 OA 
BRANCH  12  13
HETATM   13  C   UNL     1      -8.249   9.725  70.284  1.00  0.00    -0.148 C  
HETATM   14  C   UNL     1      -8.875   9.608  68.855  1.00  0.00    -0.136 C  
HETATM   15  C   UNL     1      -8.141   8.587  67.992  1.00  0.00    -0.115 A  
HETATM   16  O   UNL     1     -10.230   9.133  68.904  1.00  0.00    -0.195 OA 
HETATM   17  C   UNL     1      -8.903  11.010  68.253  1.00  0.00    -0.144 A  
HETATM   18  O   UNL     1      -7.188  10.258  70.583  1.00  0.00    -0.306 OA 
HETATM   19  C   UNL     1      -8.663   7.846  66.939  1.00  0.00    -0.136 A  
HETATM   20  C   UNL     1      -7.941  11.651  67.487  1.00  0.00    -0.141 A  
HETATM   21  H   UNL     1     -10.611   9.062  68.036  1.00  0.00     0.000 HD 
HETATM   22  C   UNL     1      -8.308  12.981  67.130  1.00  0.00    -0.153 A  
HETATM   23  C   UNL     1      -7.709   6.981  66.333  1.00  0.00    -0.104 A  
HETATM   24  C   UNL     1      -6.473   7.089  66.924  1.00  0.00    -0.054 A  
HETATM   25  C   UNL     1      -9.538  13.329  67.636  1.00  0.00    -0.213 A  
HETATM   26  S   UNL     1      -6.472   8.217  68.203  1.00  0.00    -0.057 SA 
HETATM   27  S   UNL     1     -10.228  12.075  68.566  1.00  0.00    -0.186 SA 
ENDBRANCH  12  13
ENDBRANCH   6  12
TORSDOF 2
ENDMDL
MODEL       80
REMARK 921   NORMALIZED FREE ENERGY PREDICTED BY IDOCK:   -4.37 KCAL/MOL
REMARK 922        TOTAL FREE ENERGY PREDICTED BY IDOCK:   -5.87 KCAL/MOL
REMARK 923 INTER-LIGAND FREE ENERGY PREDICTED BY IDOCK:   -4.98 KCAL/MOL
REMARK 924 INTRA-LIGAND FREE ENERGY PREDICTED BY IDOCK:   -0.88 KCAL/MOL
REMARK 927      BINDING AFFINITY PREDICTED BY RF-SCORE:    0.00 PKD
ROOT
HETATM    1  C   UNL     1     -10.119   8.432  67.500  1.00  0.00    -0.218 C  
HETATM    2  O   UNL     1      -9.974   7.052  67.821  1.00  0.00    -0.140 OA 
HETATM    3  C   UNL     1      -9.174   7.525  66.746  1.00  0.00    -0.156 C  
HETATM    4  C   UNL     1      -7.778   8.062  67.027  1.00  0.00    -0.100 C  
HETATM    5  C   UNL     1      -7.171   7.426  68.290  1.00  0.00    -0.090 C  
HETATM    6  C   UNL     1      -7.893   7.775  69.619  1.00  0.00    -0.107 C  
HETATM    7  C   UNL     1      -8.797   9.032  69.585  1.00  0.00    -0.145 C  
HETATM    8  N   UNL     1      -7.981   9.577  67.273  1.00  0.00    -0.106 N  
HETATM    9  C   UNL     1      -9.237   9.471  68.179  1.00  0.00    -0.129 C  
HETATM   10  C   UNL     1      -8.341  10.286  65.952  1.00  0.00    -0.145 C  
HETATM   11  C   UNL     1      -6.792  10.338  67.836  1.00  0.00    -0.074 C  
ENDROOT
BRANCH   6  12
HETATM   12  O   UNL     1      -8.729   6.679  70.054  1.00  0.00    -0.139 OA 
BRANCH  12  13
HETATM   13  C   UNL     1      -9.226   6.731  71.331  1.00  0.00    -0.153 C  
HETATM   14  C   UNL     1     -10.640   6.065  71.391  1.00  0.00    -0.246 C  
HETATM   15  C   UNL     1     -11.742   7.087  71.645  1.00  0.00    -0.297 A  
HETATM   16  O   UNL     1     -10.994   5.452  70.141  1.00  0.00    -0.240 OA 
HETATM   17  C   UNL     1     -10.578   4.959  72.441  1.00  0.00    -0.200 A  
HETATM   18  O   UNL     1      -8.578   7.174  72.272  1.00  0.00    -0.116 OA 
HETATM   19  C   UNL     1     -13.074   7.001  71.259  1.00  0.00    -0.329 A  
HETATM   20  C   UNL     1     -10.848   5.028  73.799  1.00  0.00    -0.366 A  
HETATM   21  H   UNL     1     -11.853   5.048  70.177  1.00  0.00     0.000 HD 
HETATM   22  C   UNL     1     -10.648   3.788  74.471  1.00  0.00    -0.199 A  
HETATM   23  C   UNL     1     -13.849   8.126  71.657  1.00  0.00    -0.434 A  
HETATM   24  C   UNL     1     -13.099   9.044  72.351  1.00  0.00    -0.423 A  
HETATM   25  C   UNL     1     -10.224   2.800  73.615  1.00  0.00    -0.118 A  
HETATM   26  S   UNL     1     -11.473   8.551  72.512  1.00  0.00    -0.192 SA 
HETATM   27  S   UNL     1     -10.032   3.375  72.018  1.00  0.00    -0.117 SA 
ENDBRANCH  12  13
ENDBRANCH   6  12
TORSDOF 2
ENDMDL
MODEL       81
REMARK 921   NORMALIZED FREE ENERGY PREDICTED BY IDOCK:   -4.37 KCAL/MOL
REMARK 922        TOTAL FREE ENERGY PREDICTED BY IDOCK:   -5.86 KCAL/MOL
REMARK 923 INTER-LIGAND FREE ENERGY PREDICTED BY IDOCK:   -5.33 KCAL/MOL
REMARK 924 INTRA-LIGAND FREE ENERGY PREDICTED BY IDOCK:   -0.53 KCAL/MOL
REMARK 927      BINDING AFFINITY PREDICTED BY RF-SCORE:    0.00 PKD
ROOT
HETATM    1  C   UNL     1      -9.289  10.889  65.827  1.00  0.00    -0.203 C  
HETATM    2  O   UNL     1     -10.405  10.167  66.339  1.00  0.00    -0.229 OA 
HETATM    3  C   UNL     1      -9.785   9.613  65.186  1.00  0.00    -0.217 C  
HETATM    4  C   UNL     1      -8.657   8.605  65.350  1.00  0.00    -0.181 C  
HETATM    5  C   UNL     1      -8.777   7.832  66.675  1.00  0.00    -0.151 C  
HETATM    6  C   UNL     1      -8.596   8.686  67.959  1.00  0.00    -0.137 C  
HETATM    7  C   UNL     1      -7.882  10.046  67.768  1.00  0.00    -0.094 C  
HETATM    8  N   UNL     1      -7.366   9.461  65.381  1.00  0.00    -0.094 N  
HETATM    9  C   UNL     1      -7.884  10.578  66.326  1.00  0.00    -0.141 C  
HETATM   10  C   UNL     1      -7.081  10.042  63.982  1.00  0.00    -0.126 C  
HETATM   11  C   UNL     1      -6.090   8.748  65.797  1.00  0.00    -0.052 C  
ENDROOT
BRANCH   6  12
HETATM   12  O   UNL     1      -9.875   8.975  68.569  1.00  0.00    -0.160 OA 
BRANCH  12  13
HETATM   13  C   UNL     1      -9.952   8.905  69.936  1.00  0.00    -0.188 C  
HETATM   14  C   UNL     1     -10.803   7.666  70.370  1.00  0.00    -0.244 C  
HETATM   15  C   UNL     1     -12.133   8.076  70.991  1.00  0.00    -0.217 A  
HETATM   16  O   UNL     1     -11.164   6.848  69.245  1.00  0.00    -0.443 OA 
HETATM   17  C   UNL     1      -9.932   6.817  71.292  1.00  0.00    -0.176 A  
HETATM   18  O   UNL     1      -9.354   9.682  70.670  1.00  0.00    -0.239 OA 
HETATM   19  C   UNL     1     -13.314   7.344  71.007  1.00  0.00    -0.144 A  
HETATM   20  C   UNL     1      -9.806   6.875  72.671  1.00  0.00    -0.184 A  
HETATM   21  H   UNL     1     -11.681   6.095  69.508  1.00  0.00     0.000 HD 
HETATM   22  C   UNL     1      -8.864   5.938  73.185  1.00  0.00    -0.121 A  
HETATM   23  C   UNL     1     -14.380   8.010  71.676  1.00  0.00    -0.581 A  
HETATM   24  C   UNL     1     -13.988   9.230  72.171  1.00  0.00    -0.355 A  
HETATM   25  C   UNL     1      -8.287   5.188  72.188  1.00  0.00    -0.125 A  
HETATM   26  S   UNL     1     -12.353   9.569  71.822  1.00  0.00    -0.391 SA 
HETATM   27  S   UNL     1      -8.850   5.638  70.640  1.00  0.00    -0.140 SA 
ENDBRANCH  12  13
ENDBRANCH   6  12
TORSDOF 2
ENDMDL
MODEL       82
REMARK 921   NORMALIZED FREE ENERGY PREDICTED BY IDOCK:   -4.36 KCAL/MOL
REMARK 922        TOTAL FREE ENERGY PREDICTED BY IDOCK:   -5.85 KCAL/MOL
REMARK 923 INTER-LIGAND FREE ENERGY PREDICTED BY IDOCK:   -5.55 KCAL/MOL
REMARK 924 INTRA-LIGAND FREE ENERGY PREDICTED BY IDOCK:   -0.30 KCAL/MOL
REMARK 927      BINDING AFFINITY PREDICTED BY RF-SCORE:    0.00 PKD
ROOT
HETATM    1  C   UNL     1      -9.468   5.353  70.242  1.00  0.00    -0.163 C  
HETATM    2  O   UNL     1      -9.831   5.880  68.970  1.00  0.00    -0.139 OA 
HETATM    3  C   UNL     1     -10.905   5.626  69.864  1.00  0.00    -0.300 C  
HETATM    4  C   UNL     1     -11.377   6.724  70.805  1.00  0.00    -0.325 C  
HETATM    5  C   UNL     1     -11.098   8.123  70.227  1.00  0.00    -0.221 C  
HETATM    6  C   UNL     1      -9.597   8.489  70.076  1.00  0.00    -0.169 C  
HETATM    7  C   UNL     1      -8.610   7.647  70.920  1.00  0.00    -0.129 C  
HETATM    8  N   UNL     1     -10.532   6.532  72.089  1.00  0.00    -0.203 N  
HETATM    9  C   UNL     1      -9.162   6.295  71.399  1.00  0.00    -0.149 C  
HETATM   10  C   UNL     1     -10.978   5.257  72.831  1.00  0.00    -0.287 C  
HETATM   11  C   UNL     1     -10.598   7.649  73.117  1.00  0.00    -0.379 C  
ENDROOT
BRANCH   6  12
HETATM   12  O   UNL     1      -9.172   8.364  68.699  1.00  0.00    -0.143 OA 
BRANCH  12  13
HETATM   13  C   UNL     1      -9.933   8.987  67.744  1.00  0.00    -0.187 C  
HETATM   14  C   UNL     1      -9.195  10.256  67.205  1.00  0.00    -0.145 C  
HETATM   15  C   UNL     1      -9.890  11.544  67.631  1.00  0.00    -0.181 A  
HETATM   16  O   UNL     1      -7.866  10.367  67.739  1.00  0.00    -0.100 OA 
HETATM   17  C   UNL     1      -9.068  10.101  65.692  1.00  0.00    -0.179 A  
HETATM   18  O   UNL     1     -10.997   8.527  67.347  1.00  0.00    -0.109 OA 
HETATM   19  C   UNL     1      -9.309  12.793  67.810  1.00  0.00    -0.199 A  
HETATM   20  C   UNL     1      -9.940  10.513  64.696  1.00  0.00    -0.415 A  
HETATM   21  H   UNL     1      -7.418  11.138  67.412  1.00  0.00     0.000 HD 
HETATM   22  C   UNL     1      -9.499  10.161  63.388  1.00  0.00    -0.308 A  
HETATM   23  C   UNL     1     -10.239  13.795  68.208  1.00  0.00    -0.245 A  
HETATM   24  C   UNL     1     -11.514  13.296  68.311  1.00  0.00    -0.316 A  
HETATM   25  C   UNL     1      -8.304   9.482  63.412  1.00  0.00    -0.179 A  
HETATM   26  S   UNL     1     -11.583  11.632  67.938  1.00  0.00    -0.272 SA 
HETATM   27  S   UNL     1      -7.738   9.239  65.005  1.00  0.00    -0.113 SA 
ENDBRANCH  12  13
ENDBRANCH   6  12
TORSDOF 2
ENDMDL
MODEL       83
REMARK 921   NORMALIZED FREE ENERGY PREDICTED BY IDOCK:   -4.36 KCAL/MOL
REMARK 922        TOTAL FREE ENERGY PREDICTED BY IDOCK:   -5.85 KCAL/MOL
REMARK 923 INTER-LIGAND FREE ENERGY PREDICTED BY IDOCK:   -4.96 KCAL/MOL
REMARK 924 INTRA-LIGAND FREE ENERGY PREDICTED BY IDOCK:   -0.89 KCAL/MOL
REMARK 927      BINDING AFFINITY PREDICTED BY RF-SCORE:    0.00 PKD
ROOT
HETATM    1  C   UNL     1      -6.278  17.424  66.622  1.00  0.00    -0.204 C  
HETATM    2  O   UNL     1      -6.843  16.118  66.666  1.00  0.00    -0.236 OA 
HETATM    3  C   UNL     1      -6.735  16.788  67.915  1.00  0.00    -0.141 C  
HETATM    4  C   UNL     1      -7.888  17.647  68.410  1.00  0.00    -0.268 C  
HETATM    5  C   UNL     1      -9.237  17.163  67.849  1.00  0.00    -0.241 C  
HETATM    6  C   UNL     1      -9.403  17.306  66.311  1.00  0.00    -0.223 C  
HETATM    7  C   UNL     1      -8.441  18.302  65.620  1.00  0.00     0.619 C  
HETATM    8  N   UNL     1      -7.591  19.063  67.857  1.00  0.00    -0.258 N  
HETATM    9  C   UNL     1      -7.175  18.639  66.423  1.00  0.00    -0.241 C  
HETATM   10  C   UNL     1      -6.387  19.679  68.596  1.00  0.00    -0.269 C  
HETATM   11  C   UNL     1      -8.710  20.084  67.972  1.00  0.00    -0.216 C  
ENDROOT
BRANCH   6  12
HETATM   12  O   UNL     1      -9.219  16.032  65.653  1.00  0.00    -0.379 OA 
BRANCH  12  13
HETATM   13  C   UNL     1     -10.250  15.130  65.722  1.00  0.00    -0.341 C  
HETATM   14  C   UNL     1      -9.739  13.765  66.290  1.00  0.00    -0.284 C  
HETATM   15  C   UNL     1      -9.748  12.668  65.231  1.00  0.00    -0.026 A  
HETATM   16  O   UNL     1      -8.370  13.844  66.719  1.00  0.00    -0.419 OA 
HETATM   17  C   UNL     1     -10.585  13.437  67.517  1.00  0.00    -0.250 A  
HETATM   18  O   UNL     1     -11.405  15.428  65.444  1.00  0.00    -0.294 OA 
HETATM   19  C   UNL     1      -8.930  11.547  65.176  1.00  0.00     0.101 A  
HETATM   20  C   UNL     1     -11.770  12.721  67.595  1.00  0.00    -0.422 A  
HETATM   21  H   UNL     1      -8.060  13.015  67.063  1.00  0.00     0.000 HD 
HETATM   22  C   UNL     1     -12.291  12.648  68.919  1.00  0.00     0.201 A  
HETATM   23  C   UNL     1      -9.196  10.710  64.055  1.00  0.00    -0.269 A  
HETATM   24  C   UNL     1     -10.222  11.200  63.284  1.00  0.00    -0.350 A  
HETATM   25  C   UNL     1     -11.499  13.315  69.822  1.00  0.00    -0.158 A  
HETATM   26  S   UNL     1     -10.848  12.660  63.905  1.00  0.00    -0.424 SA 
HETATM   27  S   UNL     1     -10.155  14.055  69.072  1.00  0.00     0.029 SA 
ENDBRANCH  12  13
ENDBRANCH   6  12
TORSDOF 2
ENDMDL
MODEL       84
REMARK 921   NORMALIZED FREE ENERGY PREDICTED BY IDOCK:   -4.32 KCAL/MOL
REMARK 922        TOTAL FREE ENERGY PREDICTED BY IDOCK:   -5.80 KCAL/MOL
REMARK 923 INTER-LIGAND FREE ENERGY PREDICTED BY IDOCK:   -5.22 KCAL/MOL
REMARK 924 INTRA-LIGAND FREE ENERGY PREDICTED BY IDOCK:   -0.58 KCAL/MOL
REMARK 927      BINDING AFFINITY PREDICTED BY RF-SCORE:    0.00 PKD
ROOT
HETATM    1  C   UNL     1     -11.939  12.692  66.040  1.00  0.00    -0.417 C  
HETATM    2  O   UNL     1     -11.120  11.642  65.534  1.00  0.00    -0.292 OA 
HETATM    3  C   UNL     1     -10.563  12.949  65.471  1.00  0.00    -0.279 C  
HETATM    4  C   UNL     1      -9.728  13.467  66.632  1.00  0.00    -0.280 C  
HETATM    5  C   UNL     1      -9.051  12.318  67.400  1.00  0.00    -0.184 C  
HETATM    6  C   UNL     1     -10.020  11.357  68.141  1.00  0.00    -0.189 C  
HETATM    7  C   UNL     1     -11.443  11.907  68.405  1.00  0.00    -0.357 C  
HETATM    8  N   UNL     1     -10.745  14.168  67.566  1.00  0.00    -0.267 N  
HETATM    9  C   UNL     1     -11.855  13.085  67.509  1.00  0.00    -0.355 C  
HETATM   10  C   UNL     1     -11.246  15.474  66.919  1.00  0.00    -0.159 C  
HETATM   11  C   UNL     1     -10.240  14.561  68.944  1.00  0.00    -0.229 C  
ENDROOT
BRANCH   6  12
HETATM   12  O   UNL     1     -10.185  10.124  67.404  1.00  0.00    -0.193 OA 
BRANCH  12  13
HETATM   13  C   UNL     1     -10.091   8.951  68.107  1.00  0.00    -0.189 C  
HETATM   14  C   UNL     1      -8.807   8.164  67.680  1.00  0.00    -0.136 C  
HETATM   15  C   UNL     1      -9.147   6.891  66.915  1.00  0.00    -0.139 A  
HETATM   16  O   UNL     1      -7.992   8.926  66.775  1.00  0.00    -0.105 OA 
HETATM   17  C   UNL     1      -7.983   7.919  68.941  1.00  0.00    -0.123 A  
HETATM   18  O   UNL     1     -10.882   8.647  68.991  1.00  0.00    -0.153 OA 
HETATM   19  C   UNL     1      -8.363   6.246  65.966  1.00  0.00    -0.138 A  
HETATM   20  C   UNL     1      -8.025   6.844  69.816  1.00  0.00    -0.124 A  
HETATM   21  H   UNL     1      -7.213   8.449  66.515  1.00  0.00     0.000 HD 
HETATM   22  C   UNL     1      -7.123   6.980  70.911  1.00  0.00    -0.070 A  
HETATM   23  C   UNL     1      -8.969   5.071  65.439  1.00  0.00    -0.152 A  
HETATM   24  C   UNL     1     -10.197   4.832  66.006  1.00  0.00    -0.278 A  
HETATM   25  C   UNL     1      -6.416   8.158  70.852  1.00  0.00    -0.037 A  
HETATM   26  S   UNL     1     -10.615   6.022  67.155  1.00  0.00    -0.332 SA 
HETATM   27  S   UNL     1      -6.865   9.109  69.507  1.00  0.00    -0.049 SA 
ENDBRANCH  12  13
ENDBRANCH   6  12
TORSDOF 2
ENDMDL
MODEL       85
REMARK 921   NORMALIZED FREE ENERGY PREDICTED BY IDOCK:   -4.31 KCAL/MOL
REMARK 922        TOTAL FREE ENERGY PREDICTED BY IDOCK:   -5.80 KCAL/MOL
REMARK 923 INTER-LIGAND FREE ENERGY PREDICTED BY IDOCK:   -5.54 KCAL/MOL
REMARK 924 INTRA-LIGAND FREE ENERGY PREDICTED BY IDOCK:   -0.26 KCAL/MOL
REMARK 927      BINDING AFFINITY PREDICTED BY RF-SCORE:    0.00 PKD
ROOT
HETATM    1  C   UNL     1      -9.218  15.371  68.689  1.00  0.00    -0.199 C  
HETATM    2  O   UNL     1      -9.809  14.179  69.197  1.00  0.00    -0.092 OA 
HETATM    3  C   UNL     1     -10.685  15.287  69.041  1.00  0.00    -0.244 C  
HETATM    4  C   UNL     1     -11.433  15.475  67.730  1.00  0.00    -0.243 C  
HETATM    5  C   UNL     1     -11.664  14.134  67.012  1.00  0.00    -0.430 C  
HETATM    6  C   UNL     1     -10.378  13.419  66.516  1.00  0.00    -0.284 C  
HETATM    7  C   UNL     1      -9.120  14.312  66.382  1.00  0.00    -0.171 C  
HETATM    8  N   UNL     1     -10.497  16.356  66.865  1.00  0.00    -0.303 N  
HETATM    9  C   UNL     1      -9.169  15.620  67.188  1.00  0.00    -0.212 C  
HETATM   10  C   UNL     1     -10.455  17.792  67.423  1.00  0.00    -0.364 C  
HETATM   11  C   UNL     1     -10.864  16.496  65.397  1.00  0.00    -0.206 C  
ENDROOT
BRANCH   6  12
HETATM   12  O   UNL     1     -10.018  12.333  67.401  1.00  0.00    -0.198 OA 
BRANCH  12  13
HETATM   13  C   UNL     1      -9.164  11.378  66.914  1.00  0.00    -0.176 C  
HETATM   14  C   UNL     1      -9.970  10.232  66.218  1.00  0.00    -0.235 C  
HETATM   15  C   UNL     1      -9.900   8.928  67.004  1.00  0.00    -0.214 A  
HETATM   16  O   UNL     1     -11.373  10.536  66.145  1.00  0.00     0.204 OA 
HETATM   17  C   UNL     1      -9.452  10.114  64.788  1.00  0.00    -0.295 A  
HETATM   18  O   UNL     1      -7.946  11.495  66.970  1.00  0.00    -0.148 OA 
HETATM   19  C   UNL     1     -10.841   7.905  67.021  1.00  0.00    -0.148 A  
HETATM   20  C   UNL     1      -8.424   9.326  64.294  1.00  0.00    -0.202 A  
HETATM   21  H   UNL     1     -11.863   9.840  65.723  1.00  0.00     0.000 HD 
HETATM   22  C   UNL     1      -8.203   9.508  62.898  1.00  0.00    -0.158 A  
HETATM   23  C   UNL     1     -10.471   6.814  67.857  1.00  0.00    -0.265 A  
HETATM   24  C   UNL     1      -9.249   7.017  68.451  1.00  0.00    -0.129 A  
HETATM   25  C   UNL     1      -9.062  10.434  62.357  1.00  0.00    -0.286 A  
HETATM   26  S   UNL     1      -8.562   8.514  68.007  1.00  0.00    -0.135 SA 
HETATM   27  S   UNL     1     -10.102  11.108  63.532  1.00  0.00    -0.410 SA 
ENDBRANCH  12  13
ENDBRANCH   6  12
TORSDOF 2
ENDMDL
MODEL       86
REMARK 921   NORMALIZED FREE ENERGY PREDICTED BY IDOCK:   -4.30 KCAL/MOL
REMARK 922        TOTAL FREE ENERGY PREDICTED BY IDOCK:   -5.78 KCAL/MOL
REMARK 923 INTER-LIGAND FREE ENERGY PREDICTED BY IDOCK:   -5.11 KCAL/MOL
REMARK 924 INTRA-LIGAND FREE ENERGY PREDICTED BY IDOCK:   -0.67 KCAL/MOL
REMARK 927      BINDING AFFINITY PREDICTED BY RF-SCORE:    0.00 PKD
ROOT
HETATM    1  C   UNL     1      -5.183  11.863  67.941  1.00  0.00    -0.055 C  
HETATM    2  O   UNL     1      -5.687  12.741  66.940  1.00  0.00    -0.280 OA 
HETATM    3  C   UNL     1      -5.552  11.379  66.558  1.00  0.00    -0.142 C  
HETATM    4  C   UNL     1      -6.719  10.423  66.755  1.00  0.00    -0.086 C  
HETATM    5  C   UNL     1      -8.069  11.161  66.714  1.00  0.00    -0.155 C  
HETATM    6  C   UNL     1      -8.311  12.164  67.875  1.00  0.00    -0.161 C  
HETATM    7  C   UNL     1      -7.426  11.967  69.130  1.00  0.00     0.066 C  
HETATM    8  N   UNL     1      -6.510   9.833  68.172  1.00  0.00    -0.056 N  
HETATM    9  C   UNL     1      -6.140  11.158  68.892  1.00  0.00    -0.045 C  
HETATM   10  C   UNL     1      -5.303   8.876  68.175  1.00  0.00    -0.035 C  
HETATM   11  C   UNL     1      -7.667   9.037  68.752  1.00  0.00    -0.095 C  
ENDROOT
BRANCH   6  12
HETATM   12  O   UNL     1      -8.100  13.524  67.432  1.00  0.00    -0.172 OA 
BRANCH  12  13
HETATM   13  C   UNL     1      -9.212  14.297  67.217  1.00  0.00    -0.214 C  
HETATM   14  C   UNL     1      -9.339  15.387  68.333  1.00  0.00    -0.193 C  
HETATM   15  C   UNL     1     -10.528  15.127  69.250  1.00  0.00    -0.260 A  
HETATM   16  O   UNL     1      -8.200  15.389  69.208  1.00  0.00    -0.221 OA 
HETATM   17  C   UNL     1      -9.386  16.745  67.639  1.00  0.00    -0.228 A  
HETATM   18  O   UNL     1      -9.925  14.165  66.231  1.00  0.00    -0.283 OA 
HETATM   19  C   UNL     1     -10.665  15.512  70.578  1.00  0.00    -0.309 A  
HETATM   20  C   UNL     1     -10.487  17.459  67.191  1.00  0.00    -0.305 A  
HETATM   21  H   UNL     1      -8.277  16.050  69.886  1.00  0.00     0.000 HD 
HETATM   22  C   UNL     1     -10.135  18.686  66.557  1.00  0.00    -0.426 A  
HETATM   23  C   UNL     1     -11.907  15.118  71.153  1.00  0.00    -0.393 A  
HETATM   24  C   UNL     1     -12.700  14.454  70.250  1.00  0.00    -0.263 A  
HETATM   25  C   UNL     1      -8.775  18.880  66.529  1.00  0.00    -0.316 A  
HETATM   26  S   UNL     1     -11.947  14.301  68.727  1.00  0.00    -0.276 SA 
HETATM   27  S   UNL     1      -7.926  17.574  67.229  1.00  0.00    -0.210 SA 
ENDBRANCH  12  13
ENDBRANCH   6  12
TORSDOF 2
ENDMDL
MODEL       87
REMARK 921   NORMALIZED FREE ENERGY PREDICTED BY IDOCK:   -4.23 KCAL/MOL
REMARK 922        TOTAL FREE ENERGY PREDICTED BY IDOCK:   -5.71 KCAL/MOL
REMARK 923 INTER-LIGAND FREE ENERGY PREDICTED BY IDOCK:   -5.09 KCAL/MOL
REMARK 924 INTRA-LIGAND FREE ENERGY PREDICTED BY IDOCK:   -0.62 KCAL/MOL
REMARK 927      BINDING AFFINITY PREDICTED BY RF-SCORE:    0.00 PKD
ROOT
HETATM    1  C   UNL     1      -7.218  17.108  66.244  1.00  0.00    -0.273 C  
HETATM    2  O   UNL     1      -6.709  15.899  66.799  1.00  0.00    -0.249 OA 
HETATM    3  C   UNL     1      -6.883  16.974  67.712  1.00  0.00    -0.148 C  
HETATM    4  C   UNL     1      -8.203  17.128  68.451  1.00  0.00    -0.253 C  
HETATM    5  C   UNL     1      -8.915  15.774  68.626  1.00  0.00    -0.204 C  
HETATM    6  C   UNL     1      -9.391  15.102  67.310  1.00  0.00    -0.203 C  
HETATM    7  C   UNL     1      -9.517  16.038  66.083  1.00  0.00    -0.371 C  
HETATM    8  N   UNL     1      -9.063  18.035  67.537  1.00  0.00    -0.252 N  
HETATM    9  C   UNL     1      -8.721  17.349  66.187  1.00  0.00    -0.147 C  
HETATM   10  C   UNL     1      -8.515  19.475  67.551  1.00  0.00    -0.302 C  
HETATM   11  C   UNL     1     -10.536  18.153  67.891  1.00  0.00    -0.371 C  
ENDROOT
BRANCH   6  12
HETATM   12  O   UNL     1      -8.495  14.035  66.923  1.00  0.00    -0.179 OA 
BRANCH  12  13
HETATM   13  C   UNL     1      -8.634  12.830  67.561  1.00  0.00    -0.187 C  
HETATM   14  C   UNL     1      -7.377  11.934  67.310  1.00  0.00    -0.146 C  
HETATM   15  C   UNL     1      -7.699  10.735  66.424  1.00  0.00    -0.145 A  
HETATM   16  O   UNL     1      -6.350  12.644  66.599  1.00  0.00    -0.412 OA 
HETATM   17  C   UNL     1      -6.810  11.552  68.674  1.00  0.00    -0.077 A  
HETATM   18  O   UNL     1      -9.591  12.574  68.282  1.00  0.00    -0.213 OA 
HETATM   19  C   UNL     1      -6.829  10.053  65.584  1.00  0.00    -0.114 A  
HETATM   20  C   UNL     1      -7.103  10.452  69.465  1.00  0.00    -0.113 A  
HETATM   21  H   UNL     1      -5.586  12.100  66.446  1.00  0.00     0.000 HD 
HETATM   22  C   UNL     1      -6.394  10.448  70.700  1.00  0.00    -0.064 A  
HETATM   23  C   UNL     1      -7.444   8.970  64.895  1.00  0.00    -0.105 A  
HETATM   24  C   UNL     1      -8.769   8.836  65.233  1.00  0.00    -0.182 A  
HETATM   25  C   UNL     1      -5.579  11.547  70.830  1.00  0.00    -0.111 A  
HETATM   26  S   UNL     1      -9.263  10.014  66.365  1.00  0.00    -0.161 SA 
HETATM   27  S   UNL     1      -5.698  12.595  69.487  1.00  0.00    -0.106 SA 
ENDBRANCH  12  13
ENDBRANCH   6  12
TORSDOF 2
ENDMDL
MODEL       88
REMARK 921   NORMALIZED FREE ENERGY PREDICTED BY IDOCK:   -4.20 KCAL/MOL
REMARK 922        TOTAL FREE ENERGY PREDICTED BY IDOCK:   -5.67 KCAL/MOL
REMARK 923 INTER-LIGAND FREE ENERGY PREDICTED BY IDOCK:   -5.17 KCAL/MOL
REMARK 924 INTRA-LIGAND FREE ENERGY PREDICTED BY IDOCK:   -0.51 KCAL/MOL
REMARK 927      BINDING AFFINITY PREDICTED BY RF-SCORE:    0.00 PKD
ROOT
HETATM    1  C   UNL     1      -9.750   8.303  71.836  1.00  0.00    -0.232 C  
HETATM    2  O   UNL     1      -8.885   9.385  71.507  1.00  0.00    -0.268 OA 
HETATM    3  C   UNL     1      -8.345   8.082  71.327  1.00  0.00    -0.117 C  
HETATM    4  C   UNL     1      -8.498   7.383  69.985  1.00  0.00    -0.138 C  
HETATM    5  C   UNL     1      -8.616   8.394  68.830  1.00  0.00    -0.135 C  
HETATM    6  C   UNL     1      -9.895   9.275  68.850  1.00  0.00    -0.165 C  
HETATM    7  C   UNL     1     -11.068   8.740  69.707  1.00  0.00    -0.080 C  
HETATM    8  N   UNL     1      -9.825   6.593  70.102  1.00  0.00    -0.167 N  
HETATM    9  C   UNL     1     -10.668   7.709  70.775  1.00  0.00    -0.226 C  
HETATM   10  C   UNL     1      -9.652   5.405  71.068  1.00  0.00    -0.172 C  
HETATM   11  C   UNL     1     -10.376   6.000  68.816  1.00  0.00    -0.214 C  
ENDROOT
BRANCH   6  12
HETATM   12  O   UNL     1      -9.598  10.602  69.342  1.00  0.00    -0.187 OA 
BRANCH  12  13
HETATM   13  C   UNL     1      -9.031  11.489  68.463  1.00  0.00    -0.146 C  
HETATM   14  C   UNL     1     -10.143  12.268  67.685  1.00  0.00    -0.200 C  
HETATM   15  C   UNL     1     -10.187  11.879  66.212  1.00  0.00    -0.216 A  
HETATM   16  O   UNL     1     -11.456  11.960  68.182  1.00  0.00    -0.271 OA 
HETATM   17  C   UNL     1      -9.903  13.757  67.918  1.00  0.00    -0.232 A  
HETATM   18  O   UNL     1      -7.821  11.665  68.395  1.00  0.00    -0.124 OA 
HETATM   19  C   UNL     1     -11.286  11.925  65.364  1.00  0.00    -0.334 A  
HETATM   20  C   UNL     1      -9.138  14.644  67.177  1.00  0.00    -0.236 A  
HETATM   21  H   UNL     1     -12.131  12.433  67.710  1.00  0.00     0.000 HD 
HETATM   22  C   UNL     1      -9.123  15.960  67.724  1.00  0.00    -0.196 A  
HETATM   23  C   UNL     1     -10.993  11.498  64.038  1.00  0.00    -0.454 A  
HETATM   24  C   UNL     1      -9.673  11.146  63.896  1.00  0.00    -0.286 A  
HETATM   25  C   UNL     1      -9.872  16.048  68.873  1.00  0.00    -0.232 A  
HETATM   26  S   UNL     1      -8.802  11.324  65.352  1.00  0.00     0.030 SA 
HETATM   27  S   UNL     1     -10.555  14.546  69.310  1.00  0.00    -0.167 SA 
ENDBRANCH  12  13
ENDBRANCH   6  12
TORSDOF 2
ENDMDL
MODEL       89
REMARK 921   NORMALIZED FREE ENERGY PREDICTED BY IDOCK:   -4.19 KCAL/MOL
REMARK 922        TOTAL FREE ENERGY PREDICTED BY IDOCK:   -5.67 KCAL/MOL
REMARK 923 INTER-LIGAND FREE ENERGY PREDICTED BY IDOCK:   -5.46 KCAL/MOL
REMARK 924 INTRA-LIGAND FREE ENERGY PREDICTED BY IDOCK:   -0.20 KCAL/MOL
REMARK 927      BINDING AFFINITY PREDICTED BY RF-SCORE:    0.00 PKD
ROOT
HETATM    1  C   UNL     1      -9.636  13.597  66.225  1.00  0.00    -0.239 C  
HETATM    2  O   UNL     1      -8.841  12.518  66.708  1.00  0.00    -0.208 OA 
HETATM    3  C   UNL     1      -8.858  13.686  67.517  1.00  0.00    -0.205 C  
HETATM    4  C   UNL     1      -9.900  13.825  68.616  1.00  0.00    -0.157 C  
HETATM    5  C   UNL     1     -10.357  12.452  69.140  1.00  0.00     0.132 C  
HETATM    6  C   UNL     1     -11.126  11.575  68.114  1.00  0.00    -0.246 C  
HETATM    7  C   UNL     1     -11.730  12.327  66.904  1.00  0.00    -0.404 C  
HETATM    8  N   UNL     1     -11.099  14.529  67.934  1.00  0.00    -0.269 N  
HETATM    9  C   UNL     1     -11.102  13.702  66.621  1.00  0.00    -0.306 C  
HETATM   10  C   UNL     1     -10.750  15.999  67.632  1.00  0.00    -0.320 C  
HETATM   11  C   UNL     1     -12.399  14.570  68.721  1.00  0.00    -0.029 C  
ENDROOT
BRANCH   6  12
HETATM   12  O   UNL     1     -10.268  10.545  67.573  1.00  0.00    -0.187 OA 
BRANCH  12  13
HETATM   13  C   UNL     1      -9.492   9.840  68.456  1.00  0.00    -0.145 C  
HETATM   14  C   UNL     1     -10.049   8.388  68.628  1.00  0.00    -0.193 C  
HETATM   15  C   UNL     1     -10.640   8.164  70.015  1.00  0.00    -0.239 A  
HETATM   16  O   UNL     1     -11.134   8.122  67.724  1.00  0.00    -0.484 OA 
HETATM   17  C   UNL     1      -8.918   7.423  68.282  1.00  0.00    -0.130 A  
HETATM   18  O   UNL     1      -8.471  10.302  68.950  1.00  0.00    -0.120 OA 
HETATM   19  C   UNL     1     -11.643   7.269  70.367  1.00  0.00    -0.253 A  
HETATM   20  C   UNL     1      -7.959   6.866  69.115  1.00  0.00    -0.119 A  
HETATM   21  H   UNL     1     -11.472   7.240  67.828  1.00  0.00     0.000 HD 
HETATM   22  C   UNL     1      -7.038   6.029  68.423  1.00  0.00    -0.082 A  
HETATM   23  C   UNL     1     -11.966   7.301  71.753  1.00  0.00    -0.342 A  
HETATM   24  C   UNL     1     -11.193   8.210  72.436  1.00  0.00    -0.386 A  
HETATM   25  C   UNL     1      -7.307   5.968  67.077  1.00  0.00    -0.076 A  
HETATM   26  S   UNL     1     -10.098   9.019  71.409  1.00  0.00    -0.326 SA 
HETATM   27  S   UNL     1      -8.640   6.944  66.645  1.00  0.00    -0.129 SA 
ENDBRANCH  12  13
ENDBRANCH   6  12
TORSDOF 2
ENDMDL
MODEL       90
REMARK 921   NORMALIZED FREE ENERGY PREDICTED BY IDOCK:   -4.19 KCAL/MOL
REMARK 922        TOTAL FREE ENERGY PREDICTED BY IDOCK:   -5.66 KCAL/MOL
REMARK 923 INTER-LIGAND FREE ENERGY PREDICTED BY IDOCK:   -5.10 KCAL/MOL
REMARK 924 INTRA-LIGAND FREE ENERGY PREDICTED BY IDOCK:   -0.56 KCAL/MOL
REMARK 927      BINDING AFFINITY PREDICTED BY RF-SCORE:    0.00 PKD
ROOT
HETATM    1  C   UNL     1     -10.781   8.107  72.582  1.00  0.00    -0.351 C  
HETATM    2  O   UNL     1      -9.851   8.766  71.728  1.00  0.00    -0.270 OA 
HETATM    3  C   UNL     1      -9.288   8.036  72.810  1.00  0.00    -0.263 C  
HETATM    4  C   UNL     1      -8.912   6.575  72.615  1.00  0.00    -0.131 C  
HETATM    5  C   UNL     1      -8.569   6.269  71.146  1.00  0.00    -0.125 C  
HETATM    6  C   UNL     1      -9.751   6.403  70.149  1.00  0.00    -0.166 C  
HETATM    7  C   UNL     1     -11.167   6.363  70.774  1.00  0.00    -0.386 C  
HETATM    8  N   UNL     1     -10.183   5.785  73.011  1.00  0.00    -0.180 N  
HETATM    9  C   UNL     1     -11.217   6.680  72.278  1.00  0.00    -0.267 C  
HETATM   10  C   UNL     1     -10.403   5.862  74.534  1.00  0.00    -0.220 C  
HETATM   11  C   UNL     1     -10.194   4.303  72.670  1.00  0.00    -0.171 C  
ENDROOT
BRANCH   6  12
HETATM   12  O   UNL     1      -9.663   7.642  69.409  1.00  0.00    -0.163 OA 
BRANCH  12  13
HETATM   13  C   UNL     1      -8.941   7.632  68.244  1.00  0.00    -0.127 C  
HETATM   14  C   UNL     1      -9.882   7.355  67.025  1.00  0.00    -0.209 C  
HETATM   15  C   UNL     1      -9.624   5.987  66.404  1.00  0.00    -0.137 A  
HETATM   16  O   UNL     1     -11.264   7.321  67.415  1.00  0.00    -0.565 OA 
HETATM   17  C   UNL     1      -9.712   8.513  66.046  1.00  0.00    -0.125 A  
HETATM   18  O   UNL     1      -7.744   7.890  68.208  1.00  0.00    -0.115 OA 
HETATM   19  C   UNL     1     -10.529   5.195  65.709  1.00  0.00    -0.088 A  
HETATM   20  C   UNL     1      -8.823   8.640  64.989  1.00  0.00    -0.114 A  
HETATM   21  H   UNL     1     -11.836   7.153  66.675  1.00  0.00     0.000 HD 
HETATM   22  C   UNL     1      -8.935   9.889  64.313  1.00  0.00    -0.278 A  
HETATM   23  C   UNL     1      -9.969   3.969  65.250  1.00  0.00    -0.193 A  
HETATM   24  C   UNL     1      -8.643   3.855  65.591  1.00  0.00    -0.111 A  
HETATM   25  C   UNL     1      -9.901  10.692  64.871  1.00  0.00    -0.302 A  
HETATM   26  S   UNL     1      -8.086   5.212  66.463  1.00  0.00    -0.108 SA 
HETATM   27  S   UNL     1     -10.641   9.959  66.223  1.00  0.00     0.068 SA 
ENDBRANCH  12  13
ENDBRANCH   6  12
TORSDOF 2
ENDMDL
MODEL       91
REMARK 921   NORMALIZED FREE ENERGY PREDICTED BY IDOCK:   -4.17 KCAL/MOL
REMARK 922        TOTAL FREE ENERGY PREDICTED BY IDOCK:   -5.63 KCAL/MOL
REMARK 923 INTER-LIGAND FREE ENERGY PREDICTED BY IDOCK:   -4.60 KCAL/MOL
REMARK 924 INTRA-LIGAND FREE ENERGY PREDICTED BY IDOCK:   -1.03 KCAL/MOL
REMARK 927      BINDING AFFINITY PREDICTED BY RF-SCORE:    0.00 PKD
ROOT
HETATM    1  C   UNL     1      -8.405   6.357  66.883  1.00  0.00    -0.110 C  
HETATM    2  O   UNL     1      -9.493   6.884  66.131  1.00  0.00    -0.118 OA 
HETATM    3  C   UNL     1      -9.719   5.624  66.748  1.00  0.00    -0.154 C  
HETATM    4  C   UNL     1     -10.304   5.567  68.151  1.00  0.00    -0.176 C  
HETATM    5  C   UNL     1     -11.174   6.801  68.452  1.00  0.00    -0.146 C  
HETATM    6  C   UNL     1     -10.411   8.152  68.506  1.00  0.00    -0.198 C  
HETATM    7  C   UNL     1      -8.880   8.053  68.715  1.00  0.00    -0.138 C  
HETATM    8  N   UNL     1      -9.073   5.577  69.091  1.00  0.00    -0.107 N  
HETATM    9  C   UNL     1      -8.268   6.687  68.363  1.00  0.00    -0.115 C  
HETATM   10  C   UNL     1      -8.324   4.234  68.999  1.00  0.00    -0.078 C  
HETATM   11  C   UNL     1      -9.352   5.791  70.570  1.00  0.00    -0.162 C  
ENDROOT
BRANCH   6  12
HETATM   12  O   UNL     1     -10.612   8.906  67.289  1.00  0.00    -0.283 OA 
BRANCH  12  13
HETATM   13  C   UNL     1     -10.176  10.205  67.271  1.00  0.00    -0.222 C  
HETATM   14  C   UNL     1      -9.386  10.496  65.953  1.00  0.00    -0.181 C  
HETATM   15  C   UNL     1      -7.900  10.712  66.215  1.00  0.00    -0.150 A  
HETATM   16  O   UNL     1      -9.435   9.383  65.045  1.00  0.00    -0.398 OA 
HETATM   17  C   UNL     1     -10.065  11.677  65.265  1.00  0.00    -0.264 A  
HETATM   18  O   UNL     1     -10.464  11.008  68.151  1.00  0.00    -0.175 OA 
HETATM   19  C   UNL     1      -6.849  10.475  65.338  1.00  0.00    -0.078 A  
HETATM   20  C   UNL     1      -9.807  13.033  65.402  1.00  0.00    -0.127 A  
HETATM   21  H   UNL     1      -8.955   9.558  64.245  1.00  0.00     0.000 HD 
HETATM   22  C   UNL     1     -10.674  13.847  64.618  1.00  0.00    -0.422 A  
HETATM   23  C   UNL     1      -5.574  10.788  65.890  1.00  0.00    -0.141 A  
HETATM   24  C   UNL     1      -5.677  11.271  67.172  1.00  0.00    -0.077 A  
HETATM   25  C   UNL     1     -11.579  13.097  63.905  1.00  0.00    -0.433 A  
HETATM   26  S   UNL     1      -7.297  11.338  67.703  1.00  0.00    -0.106 SA 
HETATM   27  S   UNL     1     -11.408  11.426  64.208  1.00  0.00    -0.044 SA 
ENDBRANCH  12  13
ENDBRANCH   6  12
TORSDOF 2
ENDMDL
MODEL       92
REMARK 921   NORMALIZED FREE ENERGY PREDICTED BY IDOCK:   -4.17 KCAL/MOL
REMARK 922        TOTAL FREE ENERGY PREDICTED BY IDOCK:   -5.63 KCAL/MOL
REMARK 923 INTER-LIGAND FREE ENERGY PREDICTED BY IDOCK:   -4.93 KCAL/MOL
REMARK 924 INTRA-LIGAND FREE ENERGY PREDICTED BY IDOCK:   -0.70 KCAL/MOL
REMARK 927      BINDING AFFINITY PREDICTED BY RF-SCORE:    0.00 PKD
ROOT
HETATM    1  C   UNL     1     -10.733  12.243  69.253  1.00  0.00     0.039 C  
HETATM    2  O   UNL     1     -11.268  11.029  69.770  1.00  0.00    -0.258 OA 
HETATM    3  C   UNL     1     -11.932  11.565  68.633  1.00  0.00    -0.246 C  
HETATM    4  C   UNL     1     -11.492  11.146  67.239  1.00  0.00    -0.136 C  
HETATM    5  C   UNL     1     -10.864   9.741  67.241  1.00  0.00    -0.247 C  
HETATM    6  C   UNL     1      -9.528   9.615  68.022  1.00  0.00    -0.132 C  
HETATM    7  C   UNL     1      -8.776  10.942  68.288  1.00  0.00    -0.140 C  
HETATM    8  N   UNL     1     -10.411  12.181  66.840  1.00  0.00    -0.222 N  
HETATM    9  C   UNL     1      -9.645  12.206  68.189  1.00  0.00    -0.208 C  
HETATM   10  C   UNL     1     -11.062  13.552  66.575  1.00  0.00    -0.300 C  
HETATM   11  C   UNL     1      -9.598  11.865  65.595  1.00  0.00    -0.204 C  
ENDROOT
BRANCH   6  12
HETATM   12  O   UNL     1      -9.740   8.997  69.311  1.00  0.00    -0.163 OA 
BRANCH  12  13
HETATM   13  C   UNL     1      -9.145   7.782  69.535  1.00  0.00    -0.146 C  
HETATM   14  C   UNL     1     -10.228   6.697  69.852  1.00  0.00    -0.187 C  
HETATM   15  C   UNL     1     -10.165   6.236  71.303  1.00  0.00    -0.200 A  
HETATM   16  O   UNL     1     -11.560   7.211  69.693  1.00  0.00    -0.517 OA 
HETATM   17  C   UNL     1     -10.049   5.568  68.841  1.00  0.00    -0.198 A  
HETATM   18  O   UNL     1      -7.940   7.607  69.412  1.00  0.00    -0.120 OA 
HETATM   19  C   UNL     1     -11.207   5.732  72.071  1.00  0.00    -0.307 A  
HETATM   20  C   UNL     1      -9.265   4.428  68.936  1.00  0.00    -0.199 A  
HETATM   21  H   UNL     1     -12.217   6.553  69.885  1.00  0.00     0.000 HD 
HETATM   22  C   UNL     1      -9.327   3.611  67.770  1.00  0.00    -0.242 A  
HETATM   23  C   UNL     1     -10.815   5.384  73.395  1.00  0.00    -0.347 A  
HETATM   24  C   UNL     1      -9.478   5.616  73.608  1.00  0.00    -0.138 A  
HETATM   25  C   UNL     1     -10.151   4.146  66.809  1.00  0.00     0.005 A  
HETATM   26  S   UNL     1      -8.710   6.254  72.225  1.00  0.00    -0.131 SA 
HETATM   27  S   UNL     1     -10.815   5.642  67.295  1.00  0.00     0.011 SA 
ENDBRANCH  12  13
ENDBRANCH   6  12
TORSDOF 2
ENDMDL
MODEL       93
REMARK 921   NORMALIZED FREE ENERGY PREDICTED BY IDOCK:   -4.16 KCAL/MOL
REMARK 922        TOTAL FREE ENERGY PREDICTED BY IDOCK:   -5.63 KCAL/MOL
REMARK 923 INTER-LIGAND FREE ENERGY PREDICTED BY IDOCK:   -5.10 KCAL/MOL
REMARK 924 INTRA-LIGAND FREE ENERGY PREDICTED BY IDOCK:   -0.53 KCAL/MOL
REMARK 927      BINDING AFFINITY PREDICTED BY RF-SCORE:    0.00 PKD
ROOT
HETATM    1  C   UNL     1      -7.735   8.298  71.006  1.00  0.00    -0.090 C  
HETATM    2  O   UNL     1      -7.460   8.690  69.665  1.00  0.00    -0.065 OA 
HETATM    3  C   UNL     1      -7.567   7.291  69.892  1.00  0.00    -0.094 C  
HETATM    4  C   UNL     1      -8.918   6.607  69.749  1.00  0.00    -0.143 C  
HETATM    5  C   UNL     1      -9.829   7.353  68.759  1.00  0.00    -0.164 C  
HETATM    6  C   UNL     1     -10.265   8.776  69.204  1.00  0.00    -0.207 C  
HETATM    7  C   UNL     1     -10.136   9.077  70.717  1.00  0.00    -0.303 C  
HETATM    8  N   UNL     1      -9.546   6.677  71.163  1.00  0.00    -0.170 N  
HETATM    9  C   UNL     1      -9.175   8.150  71.479  1.00  0.00    -0.161 C  
HETATM   10  C   UNL     1      -8.802   5.727  72.122  1.00  0.00    -0.137 C  
HETATM   11  C   UNL     1     -11.015   6.302  71.272  1.00  0.00    -0.275 C  
ENDROOT
BRANCH   6  12
HETATM   12  O   UNL     1      -9.497   9.789  68.516  1.00  0.00    -0.142 OA 
BRANCH  12  13
HETATM   13  C   UNL     1     -10.171  10.893  68.061  1.00  0.00    -0.178 C  
HETATM   14  C   UNL     1      -9.243  11.755  67.143  1.00  0.00    -0.179 C  
HETATM   15  C   UNL     1      -8.875  13.084  67.792  1.00  0.00    -0.188 A  
HETATM   16  O   UNL     1      -7.983  11.109  66.900  1.00  0.00    -0.137 OA 
HETATM   17  C   UNL     1      -9.947  11.905  65.797  1.00  0.00    -0.236 A  
HETATM   18  O   UNL     1     -11.356  11.086  68.303  1.00  0.00    -0.254 OA 
HETATM   19  C   UNL     1      -7.731  13.840  67.569  1.00  0.00    -0.187 A  
HETATM   20  C   UNL     1     -10.828  12.890  65.377  1.00  0.00    -0.307 A  
HETATM   21  H   UNL     1      -7.420  11.632  66.343  1.00  0.00     0.000 HD 
HETATM   22  C   UNL     1     -11.312  12.679  64.054  1.00  0.00    -0.466 A  
HETATM   23  C   UNL     1      -7.691  15.041  68.333  1.00  0.00    -0.113 A  
HETATM   24  C   UNL     1      -8.813  15.186  69.113  1.00  0.00    -0.221 A  
HETATM   25  C   UNL     1     -10.795  11.535  63.494  1.00  0.00    -0.398 A  
HETATM   26  S   UNL     1      -9.895  13.881  68.929  1.00  0.00     0.053 SA 
HETATM   27  S   UNL     1      -9.765  10.702  64.570  1.00  0.00    -0.336 SA 
ENDBRANCH  12  13
ENDBRANCH   6  12
TORSDOF 2
ENDMDL
MODEL       94
REMARK 921   NORMALIZED FREE ENERGY PREDICTED BY IDOCK:   -4.15 KCAL/MOL
REMARK 922        TOTAL FREE ENERGY PREDICTED BY IDOCK:   -5.61 KCAL/MOL
REMARK 923 INTER-LIGAND FREE ENERGY PREDICTED BY IDOCK:   -5.45 KCAL/MOL
REMARK 924 INTRA-LIGAND FREE ENERGY PREDICTED BY IDOCK:   -0.16 KCAL/MOL
REMARK 927      BINDING AFFINITY PREDICTED BY RF-SCORE:    0.00 PKD
ROOT
HETATM    1  C   UNL     1     -11.566  11.990  64.915  1.00  0.00    -0.273 C  
HETATM    2  O   UNL     1     -10.347  11.281  64.713  1.00  0.00    -0.270 OA 
HETATM    3  C   UNL     1     -10.252  12.699  64.681  1.00  0.00    -0.294 C  
HETATM    4  C   UNL     1      -9.962  13.463  65.964  1.00  0.00    -0.293 C  
HETATM    5  C   UNL     1      -9.170  12.605  66.967  1.00  0.00    -0.212 C  
HETATM    6  C   UNL     1      -9.927  11.370  67.525  1.00  0.00    -0.182 C  
HETATM    7  C   UNL     1     -11.469  11.406  67.386  1.00  0.00    -0.328 C  
HETATM    8  N   UNL     1     -11.357  13.775  66.560  1.00  0.00    -0.316 N  
HETATM    9  C   UNL     1     -11.998  12.381  66.322  1.00  0.00    -0.298 C  
HETATM   10  C   UNL     1     -12.073  14.838  65.705  1.00  0.00    -0.114 C  
HETATM   11  C   UNL     1     -11.383  14.307  67.983  1.00  0.00    -0.294 C  
ENDROOT
BRANCH   6  12
HETATM   12  O   UNL     1      -9.484  10.157  66.874  1.00  0.00    -0.162 OA 
BRANCH  12  13
HETATM   13  C   UNL     1      -9.937   8.966  67.381  1.00  0.00    -0.209 C  
HETATM   14  C   UNL     1      -9.117   8.571  68.653  1.00  0.00    -0.139 C  
HETATM   15  C   UNL     1      -8.233   7.354  68.407  1.00  0.00    -0.125 A  
HETATM   16  O   UNL     1      -8.204   9.610  69.043  1.00  0.00    -0.103 OA 
HETATM   17  C   UNL     1     -10.112   8.385  69.796  1.00  0.00    -0.197 A  
HETATM   18  O   UNL     1     -10.903   8.377  66.913  1.00  0.00    -0.211 OA 
HETATM   19  C   UNL     1      -7.042   7.037  69.049  1.00  0.00    -0.084 A  
HETATM   20  C   UNL     1     -10.777   7.235  70.195  1.00  0.00    -0.260 A  
HETATM   21  H   UNL     1      -7.706   9.370  69.816  1.00  0.00     0.000 HD 
HETATM   22  C   UNL     1     -11.660   7.454  71.291  1.00  0.00    -0.306 A  
HETATM   23  C   UNL     1      -6.462   5.821  68.589  1.00  0.00    -0.042 A  
HETATM   24  C   UNL     1      -7.227   5.226  67.616  1.00  0.00    -0.071 A  
HETATM   25  C   UNL     1     -11.656   8.766  71.701  1.00  0.00    -0.320 A  
HETATM   26  S   UNL     1      -8.627   6.133  67.258  1.00  0.00    -0.101 SA 
HETATM   27  S   UNL     1     -10.623   9.733  70.746  1.00  0.00    -0.246 SA 
ENDBRANCH  12  13
ENDBRANCH   6  12
TORSDOF 2
ENDMDL
MODEL       95
REMARK 921   NORMALIZED FREE ENERGY PREDICTED BY IDOCK:   -4.09 KCAL/MOL
REMARK 922        TOTAL FREE ENERGY PREDICTED BY IDOCK:   -5.55 KCAL/MOL
REMARK 923 INTER-LIGAND FREE ENERGY PREDICTED BY IDOCK:   -4.85 KCAL/MOL
REMARK 924 INTRA-LIGAND FREE ENERGY PREDICTED BY IDOCK:   -0.71 KCAL/MOL
REMARK 927      BINDING AFFINITY PREDICTED BY RF-SCORE:    0.00 PKD
ROOT
HETATM    1  C   UNL     1     -11.794  11.970  64.630  1.00  0.00    -0.268 C  
HETATM    2  O   UNL     1     -10.589  11.229  64.785  1.00  0.00    -0.303 OA 
HETATM    3  C   UNL     1     -10.443  12.549  64.280  1.00  0.00    -0.378 C  
HETATM    4  C   UNL     1     -10.228  13.704  65.246  1.00  0.00    -0.323 C  
HETATM    5  C   UNL     1      -9.545  13.238  66.544  1.00  0.00    -0.267 C  
HETATM    6  C   UNL     1     -10.385  12.271  67.423  1.00  0.00    -0.206 C  
HETATM    7  C   UNL     1     -11.909  12.266  67.151  1.00  0.00    -0.328 C  
HETATM    8  N   UNL     1     -11.654  14.209  65.580  1.00  0.00    -0.331 N  
HETATM    9  C   UNL     1     -12.321  12.821  65.778  1.00  0.00    -0.323 C  
HETATM   10  C   UNL     1     -12.266  14.919  64.357  1.00  0.00    -0.381 C  
HETATM   11  C   UNL     1     -11.772  15.196  66.730  1.00  0.00    -0.065 C  
ENDROOT
BRANCH   6  12
HETATM   12  O   UNL     1      -9.933  10.907  67.264  1.00  0.00    -0.179 OA 
BRANCH  12  13
HETATM   13  C   UNL     1      -9.283  10.329  68.323  1.00  0.00    -0.139 C  
HETATM   14  C   UNL     1      -7.797  10.018  67.944  1.00  0.00    -0.090 C  
HETATM   15  C   UNL     1      -7.538   8.519  67.840  1.00  0.00    -0.098 A  
HETATM   16  O   UNL     1      -7.458  10.536  66.648  1.00  0.00    -0.108 OA 
HETATM   17  C   UNL     1      -6.910  10.723  68.966  1.00  0.00    -0.075 A  
HETATM   18  O   UNL     1      -9.813  10.176  69.417  1.00  0.00    -0.206 OA 
HETATM   19  C   UNL     1      -6.579   7.885  67.060  1.00  0.00    -0.060 A  
HETATM   20  C   UNL     1      -6.420  10.248  70.173  1.00  0.00    -0.128 A  
HETATM   21  H   UNL     1      -6.556  10.347  66.418  1.00  0.00     0.000 HD 
HETATM   22  C   UNL     1      -5.645  11.212  70.879  1.00  0.00    -0.077 A  
HETATM   23  C   UNL     1      -6.592   6.468  67.193  1.00  0.00    -0.055 A  
HETATM   24  C   UNL     1      -7.551   6.048  68.083  1.00  0.00    -0.094 A  
HETATM   25  C   UNL     1      -5.563  12.405  70.200  1.00  0.00    -0.144 A  
HETATM   26  S   UNL     1      -8.430   7.353  68.741  1.00  0.00    -0.129 SA 
HETATM   27  S   UNL     1      -6.448  12.372  68.740  1.00  0.00    -0.090 SA 
ENDBRANCH  12  13
ENDBRANCH   6  12
TORSDOF 2
ENDMDL
MODEL       96
REMARK 921   NORMALIZED FREE ENERGY PREDICTED BY IDOCK:   -4.06 KCAL/MOL
REMARK 922        TOTAL FREE ENERGY PREDICTED BY IDOCK:   -5.52 KCAL/MOL
REMARK 923 INTER-LIGAND FREE ENERGY PREDICTED BY IDOCK:   -5.22 KCAL/MOL
REMARK 924 INTRA-LIGAND FREE ENERGY PREDICTED BY IDOCK:   -0.29 KCAL/MOL
REMARK 927      BINDING AFFINITY PREDICTED BY RF-SCORE:    0.00 PKD
ROOT
HETATM    1  C   UNL     1     -10.800  16.475  68.700  1.00  0.00    -0.345 C  
HETATM    2  O   UNL     1      -9.724  15.813  68.042  1.00  0.00    -0.210 OA 
HETATM    3  C   UNL     1      -9.704  15.767  69.463  1.00  0.00    -0.276 C  
HETATM    4  C   UNL     1     -10.385  14.615  70.187  1.00  0.00     0.302 C  
HETATM    5  C   UNL     1     -10.422  13.344  69.320  1.00  0.00     0.130 C  
HETATM    6  C   UNL     1     -11.294  13.442  68.039  1.00  0.00    -0.286 C  
HETATM    7  C   UNL     1     -12.348  14.576  68.027  1.00  0.00     0.031 C  
HETATM    8  N   UNL     1     -11.835  15.104  70.427  1.00  0.00    -0.282 N  
HETATM    9  C   UNL     1     -12.080  15.716  69.022  1.00  0.00    -0.205 C  
HETATM   10  C   UNL     1     -11.850  16.214  71.497  1.00  0.00    -0.463 C  
HETATM   11  C   UNL     1     -12.832  14.061  70.904  1.00  0.00    -0.318 C  
ENDROOT
BRANCH   6  12
HETATM   12  O   UNL     1     -10.468  13.635  66.868  1.00  0.00    -0.268 OA 
BRANCH  12  13
HETATM   13  C   UNL     1      -9.487  12.709  66.627  1.00  0.00    -0.244 C  
HETATM   14  C   UNL     1     -10.120  11.356  66.161  1.00  0.00    -0.231 C  
HETATM   15  C   UNL     1      -9.957  10.260  67.208  1.00  0.00    -0.190 A  
HETATM   16  O   UNL     1     -11.540  11.469  65.973  1.00  0.00    -0.311 OA 
HETATM   17  C   UNL     1      -9.505  11.007  64.809  1.00  0.00    -0.230 A  
HETATM   18  O   UNL     1      -8.294  12.978  66.703  1.00  0.00    -0.014 OA 
HETATM   19  C   UNL     1     -10.780   9.159  67.407  1.00  0.00    -0.247 A  
HETATM   20  C   UNL     1      -8.369  10.262  64.532  1.00  0.00    -0.168 A  
HETATM   21  H   UNL     1     -11.924  10.647  65.690  1.00  0.00     0.000 HD 
HETATM   22  C   UNL     1      -8.083  10.177  63.139  1.00  0.00    -0.158 A  
HETATM   23  C   UNL     1     -10.346   8.315  68.469  1.00  0.00    -0.230 A  
HETATM   24  C   UNL     1      -9.192   8.781  69.051  1.00  0.00    -0.141 A  
HETATM   25  C   UNL     1      -9.003  10.863  62.382  1.00  0.00    -0.309 A  
HETATM   26  S   UNL     1      -8.646  10.225  68.325  1.00  0.00    -0.125 SA 
HETATM   27  S   UNL     1     -10.180  11.636  63.348  1.00  0.00    -0.436 SA 
ENDBRANCH  12  13
ENDBRANCH   6  12
TORSDOF 2
ENDMDL
MODEL       97
REMARK 921   NORMALIZED FREE ENERGY PREDICTED BY IDOCK:   -3.98 KCAL/MOL
REMARK 922        TOTAL FREE ENERGY PREDICTED BY IDOCK:   -5.42 KCAL/MOL
REMARK 923 INTER-LIGAND FREE ENERGY PREDICTED BY IDOCK:   -4.49 KCAL/MOL
REMARK 924 INTRA-LIGAND FREE ENERGY PREDICTED BY IDOCK:   -0.93 KCAL/MOL
REMARK 927      BINDING AFFINITY PREDICTED BY RF-SCORE:    0.00 PKD
ROOT
HETATM    1  C   UNL     1     -10.084   8.774  70.751  1.00  0.00    -0.210 C  
HETATM    2  O   UNL     1      -9.106   7.952  71.379  1.00  0.00    -0.131 OA 
HETATM    3  C   UNL     1     -10.016   8.608  72.251  1.00  0.00    -0.291 C  
HETATM    4  C   UNL     1     -11.310   7.915  72.648  1.00  0.00    -0.408 C  
HETATM    5  C   UNL     1     -11.169   6.383  72.604  1.00  0.00    -0.290 C  
HETATM    6  C   UNL     1     -10.933   5.780  71.192  1.00  0.00    -0.225 C  
HETATM    7  C   UNL     1     -11.323   6.687  70.000  1.00  0.00    -0.440 C  
HETATM    8  N   UNL     1     -12.338   8.357  71.576  1.00  0.00    -0.302 N  
HETATM    9  C   UNL     1     -11.425   8.184  70.334  1.00  0.00    -0.125 C  
HETATM   10  C   UNL     1     -12.695   9.844  71.767  1.00  0.00    -0.428 C  
HETATM   11  C   UNL     1     -13.664   7.614  71.562  1.00  0.00    -0.361 C  
ENDROOT
BRANCH   6  12
HETATM   12  O   UNL     1      -9.542   5.432  71.007  1.00  0.00    -0.161 OA 
BRANCH  12  13
HETATM   13  C   UNL     1      -9.195   4.821  69.830  1.00  0.00    -0.124 C  
HETATM   14  C   UNL     1      -7.858   5.419  69.281  1.00  0.00    -0.089 C  
HETATM   15  C   UNL     1      -8.077   6.231  68.009  1.00  0.00    -0.115 A  
HETATM   16  O   UNL     1      -7.269   6.347  70.206  1.00  0.00    -0.075 OA 
HETATM   17  C   UNL     1      -6.878   4.262  69.107  1.00  0.00    -0.046 A  
HETATM   18  O   UNL     1      -9.833   3.886  69.361  1.00  0.00    -0.161 OA 
HETATM   19  C   UNL     1      -7.308   7.291  67.546  1.00  0.00    -0.092 A  
HETATM   20  C   UNL     1      -6.663   3.460  67.997  1.00  0.00    -0.045 A  
HETATM   21  H   UNL     1      -6.458   6.711  69.873  1.00  0.00     0.000 HD 
HETATM   22  C   UNL     1      -5.682   2.451  68.220  1.00  0.00    -0.019 A  
HETATM   23  C   UNL     1      -7.778   7.834  66.317  1.00  0.00    -0.089 A  
HETATM   24  C   UNL     1      -8.890   7.169  65.858  1.00  0.00    -0.103 A  
HETATM   25  C   UNL     1      -5.174   2.500  69.496  1.00  0.00    -0.012 A  
HETATM   26  S   UNL     1      -9.361   5.909  66.907  1.00  0.00    -0.134 SA 
HETATM   27  S   UNL     1      -5.903   3.730  70.430  1.00  0.00    -0.018 SA 
ENDBRANCH  12  13
ENDBRANCH   6  12
TORSDOF 2
ENDMDL
MODEL       98
REMARK 921   NORMALIZED FREE ENERGY PREDICTED BY IDOCK:   -3.97 KCAL/MOL
REMARK 922        TOTAL FREE ENERGY PREDICTED BY IDOCK:   -5.42 KCAL/MOL
REMARK 923 INTER-LIGAND FREE ENERGY PREDICTED BY IDOCK:   -4.92 KCAL/MOL
REMARK 924 INTRA-LIGAND FREE ENERGY PREDICTED BY IDOCK:   -0.50 KCAL/MOL
REMARK 927      BINDING AFFINITY PREDICTED BY RF-SCORE:    0.00 PKD
ROOT
HETATM    1  C   UNL     1      -5.745  14.955  69.667  1.00  0.00    -0.100 C  
HETATM    2  O   UNL     1      -6.711  13.958  69.983  1.00  0.00    -0.044 OA 
HETATM    3  C   UNL     1      -7.062  15.291  70.328  1.00  0.00     0.198 C  
HETATM    4  C   UNL     1      -7.816  16.153  69.328  1.00  0.00    -0.203 C  
HETATM    5  C   UNL     1      -8.666  15.298  68.371  1.00  0.00    -0.170 C  
HETATM    6  C   UNL     1      -7.861  14.375  67.416  1.00  0.00    -0.190 C  
HETATM    7  C   UNL     1      -6.373  14.751  67.213  1.00  0.00     0.282 C  
HETATM    8  N   UNL     1      -6.711  16.872  68.515  1.00  0.00    -0.161 N  
HETATM    9  C   UNL     1      -5.778  15.648  68.311  1.00  0.00    -0.116 C  
HETATM   10  C   UNL     1      -6.011  17.929  69.390  1.00  0.00    -0.237 C  
HETATM   11  C   UNL     1      -7.160  17.607  67.263  1.00  0.00    -0.177 C  
ENDROOT
BRANCH   6  12
HETATM   12  O   UNL     1      -7.880  13.008  67.884  1.00  0.00    -0.122 OA 
BRANCH  12  13
HETATM   13  C   UNL     1      -9.074  12.337  67.826  1.00  0.00    -0.191 C  
HETATM   14  C   UNL     1      -9.180  11.531  66.490  1.00  0.00    -0.194 C  
HETATM   15  C   UNL     1     -10.235  12.112  65.555  1.00  0.00    -0.265 A  
HETATM   16  O   UNL     1      -7.958  11.586  65.736  1.00  0.00    -0.365 OA 
HETATM   17  C   UNL     1      -9.426  10.070  66.857  1.00  0.00    -0.166 A  
HETATM   18  O   UNL     1      -9.875  12.337  68.753  1.00  0.00    -0.136 OA 
HETATM   19  C   UNL     1     -10.262  12.036  64.168  1.00  0.00    -0.367 A  
HETATM   20  C   UNL     1     -10.630   9.407  67.040  1.00  0.00    -0.272 A  
HETATM   21  H   UNL     1      -8.022  11.096  64.924  1.00  0.00     0.000 HD 
HETATM   22  C   UNL     1     -10.463   8.042  67.413  1.00  0.00    -0.357 A  
HETATM   23  C   UNL     1     -11.393  12.680  63.591  1.00  0.00    -0.544 A  
HETATM   24  C   UNL     1     -12.215  13.224  64.549  1.00  0.00    -0.400 A  
HETATM   25  C   UNL     1      -9.137   7.694  67.514  1.00  0.00    -0.125 A  
HETATM   26  S   UNL     1     -11.619  12.963  66.126  1.00  0.00    -0.393 SA 
HETATM   27  S   UNL     1      -8.102   9.014  67.197  1.00  0.00    -0.106 SA 
ENDBRANCH  12  13
ENDBRANCH   6  12
TORSDOF 2
ENDMDL
MODEL       99
REMARK 921   NORMALIZED FREE ENERGY PREDICTED BY IDOCK:   -3.96 KCAL/MOL
REMARK 922        TOTAL FREE ENERGY PREDICTED BY IDOCK:   -5.41 KCAL/MOL
REMARK 923 INTER-LIGAND FREE ENERGY PREDICTED BY IDOCK:   -4.84 KCAL/MOL
REMARK 924 INTRA-LIGAND FREE ENERGY PREDICTED BY IDOCK:   -0.57 KCAL/MOL
REMARK 927      BINDING AFFINITY PREDICTED BY RF-SCORE:    0.00 PKD
ROOT
HETATM    1  C   UNL     1      -8.324  11.706  67.079  1.00  0.00    -0.169 C  
HETATM    2  O   UNL     1      -8.400  10.816  68.188  1.00  0.00    -0.113 OA 
HETATM    3  C   UNL     1      -9.172  12.005  68.294  1.00  0.00    -0.192 C  
HETATM    4  C   UNL     1     -10.610  12.015  67.800  1.00  0.00    -0.207 C  
HETATM    5  C   UNL     1     -11.242  10.613  67.868  1.00  0.00    -0.376 C  
HETATM    6  C   UNL     1     -10.612   9.557  66.919  1.00  0.00    -0.171 C  
HETATM    7  C   UNL     1      -9.788  10.120  65.737  1.00  0.00    -0.331 C  
HETATM    8  N   UNL     1     -10.514  12.453  66.317  1.00  0.00    -0.241 N  
HETATM    9  C   UNL     1      -9.303  11.568  65.920  1.00  0.00    -0.226 C  
HETATM   10  C   UNL     1     -10.131  13.943  66.228  1.00  0.00    -0.300 C  
HETATM   11  C   UNL     1     -11.776  12.303  65.483  1.00  0.00    -0.377 C  
ENDROOT
BRANCH   6  12
HETATM   12  O   UNL     1      -9.734   8.670  67.648  1.00  0.00    -0.148 OA 
BRANCH  12  13
HETATM   13  C   UNL     1     -10.180   7.396  67.889  1.00  0.00    -0.194 C  
HETATM   14  C   UNL     1      -8.969   6.427  68.096  1.00  0.00    -0.116 C  
HETATM   15  C   UNL     1      -8.829   5.435  66.947  1.00  0.00    -0.111 A  
HETATM   16  O   UNL     1      -7.718   7.133  68.119  1.00  0.00    -0.111 OA 
HETATM   17  C   UNL     1      -9.145   5.763  69.459  1.00  0.00    -0.130 A  
HETATM   18  O   UNL     1     -11.369   7.125  67.998  1.00  0.00     0.076 OA 
HETATM   19  C   UNL     1      -7.666   4.816  66.508  1.00  0.00    -0.091 A  
HETATM   20  C   UNL     1      -9.800   4.583  69.778  1.00  0.00    -0.295 A  
HETATM   21  H   UNL     1      -6.983   6.545  68.245  1.00  0.00     0.000 HD 
HETATM   22  C   UNL     1      -9.785   4.296  71.173  1.00  0.00    -0.259 A  
HETATM   23  C   UNL     1      -7.876   3.935  65.410  1.00  0.00    -0.089 A  
HETATM   24  C   UNL     1      -9.198   3.887  65.040  1.00  0.00    -0.150 A  
HETATM   25  C   UNL     1      -9.127   5.266  71.891  1.00  0.00    -0.138 A  
HETATM   26  S   UNL     1     -10.171   4.903  66.006  1.00  0.00    -0.244 SA 
HETATM   27  S   UNL     1      -8.563   6.531  70.893  1.00  0.00    -0.135 SA 
ENDBRANCH  12  13
ENDBRANCH   6  12
TORSDOF 2
ENDMDL
MODEL      100
REMARK 921   NORMALIZED FREE ENERGY PREDICTED BY IDOCK:   -3.96 KCAL/MOL
REMARK 922        TOTAL FREE ENERGY PREDICTED BY IDOCK:   -5.40 KCAL/MOL
REMARK 923 INTER-LIGAND FREE ENERGY PREDICTED BY IDOCK:   -5.25 KCAL/MOL
REMARK 924 INTRA-LIGAND FREE ENERGY PREDICTED BY IDOCK:   -0.15 KCAL/MOL
REMARK 927      BINDING AFFINITY PREDICTED BY RF-SCORE:    0.00 PKD
ROOT
HETATM    1  C   UNL     1      -7.272  17.723  67.716  1.00  0.00    -0.203 C  
HETATM    2  O   UNL     1      -7.384  16.904  68.875  1.00  0.00    -0.216 OA 
HETATM    3  C   UNL     1      -8.261  18.021  68.819  1.00  0.00    -0.218 C  
HETATM    4  C   UNL     1      -9.637  17.866  68.190  1.00  0.00    -0.306 C  
HETATM    5  C   UNL     1     -10.151  16.420  68.301  1.00  0.00    -0.248 C  
HETATM    6  C   UNL     1      -9.340  15.366  67.498  1.00  0.00    -0.203 C  
HETATM    7  C   UNL     1      -8.451  15.926  66.361  1.00  0.00    -0.348 C  
HETATM    8  N   UNL     1      -9.429  18.214  66.695  1.00  0.00    -0.293 N  
HETATM    9  C   UNL     1      -8.113  17.420  66.482  1.00  0.00    -0.277 C  
HETATM   10  C   UNL     1      -9.168  19.724  66.534  1.00  0.00    -0.383 C  
HETATM   11  C   UNL     1     -10.582  17.894  65.758  1.00  0.00    -0.174 C  
ENDROOT
BRANCH   6  12
HETATM   12  O   UNL     1      -8.468  14.613  68.370  1.00  0.00    -0.147 OA 
BRANCH  12  13
HETATM   13  C   UNL     1      -7.726  13.607  67.807  1.00  0.00    -0.164 C  
HETATM   14  C   UNL     1      -8.391  12.220  68.088  1.00  0.00    -0.174 C  
HETATM   15  C   UNL     1      -7.563  11.374  69.049  1.00  0.00    -0.084 A  
HETATM   16  O   UNL     1      -9.666  12.361  68.736  1.00  0.00    -0.398 OA 
HETATM   17  C   UNL     1      -8.636  11.550  66.738  1.00  0.00    -0.170 A  
HETATM   18  O   UNL     1      -6.735  13.825  67.121  1.00  0.00    -0.163 OA 
HETATM   19  C   UNL     1      -8.024  10.388  69.912  1.00  0.00    -0.011 A  
HETATM   20  C   UNL     1      -7.804  10.705  66.019  1.00  0.00    -0.156 A  
HETATM   21  H   UNL     1     -10.070  11.518  68.907  1.00  0.00     0.000 HD 
HETATM   22  C   UNL     1      -8.364  10.300  64.773  1.00  0.00    -0.173 A  
HETATM   23  C   UNL     1      -6.988   9.778  70.675  1.00  0.00    -0.102 A  
HETATM   24  C   UNL     1      -5.755  10.300  70.370  1.00  0.00    -0.078 A  
HETATM   25  C   UNL     1      -9.607  10.849  64.564  1.00  0.00    -0.264 A  
HETATM   26  S   UNL     1      -5.851  11.519  69.180  1.00  0.00    -0.052 SA 
HETATM   27  S   UNL     1     -10.078  11.875  65.844  1.00  0.00    -0.242 SA 
ENDBRANCH  12  13
ENDBRANCH   6  12
TORSDOF 2
ENDMDL
MODEL      101
REMARK 921   NORMALIZED FREE ENERGY PREDICTED BY IDOCK:   -3.94 KCAL/MOL
REMARK 922        TOTAL FREE ENERGY PREDICTED BY IDOCK:   -5.38 KCAL/MOL
REMARK 923 INTER-LIGAND FREE ENERGY PREDICTED BY IDOCK:   -4.31 KCAL/MOL
REMARK 924 INTRA-LIGAND FREE ENERGY PREDICTED BY IDOCK:   -1.08 KCAL/MOL
REMARK 927      BINDING AFFINITY PREDICTED BY RF-SCORE:    0.00 PKD
ROOT
HETATM    1  C   UNL     1      -8.411   6.181  71.097  1.00  0.00    -0.125 C  
HETATM    2  O   UNL     1      -8.731   5.458  69.913  1.00  0.00    -0.117 OA 
HETATM    3  C   UNL     1      -9.485   5.118  71.069  1.00  0.00    -0.160 C  
HETATM    4  C   UNL     1     -10.790   5.844  71.357  1.00  0.00    -0.271 C  
HETATM    5  C   UNL     1     -11.449   6.357  70.064  1.00  0.00    -0.496 C  
HETATM    6  C   UNL     1     -10.658   7.460  69.310  1.00  0.00    -0.213 C  
HETATM    7  C   UNL     1      -9.597   8.217  70.146  1.00  0.00    -0.168 C  
HETATM    8  N   UNL     1     -10.382   7.056  72.230  1.00  0.00    -0.190 N  
HETATM    9  C   UNL     1      -9.132   7.484  71.415  1.00  0.00    -0.137 C  
HETATM   10  C   UNL     1      -9.960   6.581  73.634  1.00  0.00    -0.233 C  
HETATM   11  C   UNL     1     -11.447   8.116  72.458  1.00  0.00    -0.404 C  
ENDROOT
BRANCH   6  12
HETATM   12  O   UNL     1      -9.966   6.909  68.167  1.00  0.00    -0.147 OA 
BRANCH  12  13
HETATM   13  C   UNL     1      -9.663   7.763  67.139  1.00  0.00    -0.186 C  
HETATM   14  C   UNL     1      -8.153   7.633  66.751  1.00  0.00    -0.115 C  
HETATM   15  C   UNL     1      -7.359   8.880  67.122  1.00  0.00    -0.084 A  
HETATM   16  O   UNL     1      -7.509   6.566  67.467  1.00  0.00    -0.092 OA 
HETATM   17  C   UNL     1      -8.093   7.288  65.266  1.00  0.00    -0.134 A  
HETATM   18  O   UNL     1     -10.511   8.451  66.583  1.00  0.00    -0.294 OA 
HETATM   19  C   UNL     1      -6.005   8.955  67.424  1.00  0.00    -0.047 A  
HETATM   20  C   UNL     1      -8.023   8.141  64.174  1.00  0.00    -0.142 A  
HETATM   21  H   UNL     1      -6.592   6.487  67.232  1.00  0.00     0.000 HD 
HETATM   22  C   UNL     1      -8.016   7.451  62.927  1.00  0.00    -0.114 A  
HETATM   23  C   UNL     1      -5.568  10.276  67.725  1.00  0.00    -0.041 A  
HETATM   24  C   UNL     1      -6.593  11.186  67.633  1.00  0.00    -0.070 A  
HETATM   25  C   UNL     1      -8.088   6.088  63.093  1.00  0.00    -0.089 A  
HETATM   26  S   UNL     1      -8.068  10.448  67.197  1.00  0.00    -0.116 SA 
HETATM   27  S   UNL     1      -8.200   5.647  64.738  1.00  0.00    -0.126 SA 
ENDBRANCH  12  13
ENDBRANCH   6  12
TORSDOF 2
ENDMDL
MODEL      102
REMARK 921   NORMALIZED FREE ENERGY PREDICTED BY IDOCK:   -3.90 KCAL/MOL
REMARK 922        TOTAL FREE ENERGY PREDICTED BY IDOCK:   -5.34 KCAL/MOL
REMARK 923 INTER-LIGAND FREE ENERGY PREDICTED BY IDOCK:   -4.36 KCAL/MOL
REMARK 924 INTRA-LIGAND FREE ENERGY PREDICTED BY IDOCK:   -0.98 KCAL/MOL
REMARK 927      BINDING AFFINITY PREDICTED BY RF-SCORE:    0.00 PKD
ROOT
HETATM    1  C   UNL     1      -7.488   9.863  67.278  1.00  0.00    -0.087 C  
HETATM    2  O   UNL     1      -7.487   8.858  68.287  1.00  0.00    -0.085 OA 
HETATM    3  C   UNL     1      -7.913  10.150  68.700  1.00  0.00    -0.103 C  
HETATM    4  C   UNL     1      -9.387  10.516  68.623  1.00  0.00    -0.172 C  
HETATM    5  C   UNL     1     -10.286   9.273  68.745  1.00  0.00    -0.231 C  
HETATM    6  C   UNL     1     -10.174   8.258  67.576  1.00  0.00    -0.243 C  
HETATM    7  C   UNL     1      -9.565   8.808  66.263  1.00  0.00    -0.328 C  
HETATM    8  N   UNL     1      -9.567  11.132  67.214  1.00  0.00    -0.165 N  
HETATM    9  C   UNL     1      -8.731  10.088  66.426  1.00  0.00    -0.129 C  
HETATM   10  C   UNL     1      -8.887  12.513  67.148  1.00  0.00    -0.202 C  
HETATM   11  C   UNL     1     -10.997  11.356  66.750  1.00  0.00    -0.291 C  
ENDROOT
BRANCH   6  12
HETATM   12  O   UNL     1      -9.369   7.119  67.957  1.00  0.00    -0.130 OA 
BRANCH  12  13
HETATM   13  C   UNL     1      -9.930   6.208  68.814  1.00  0.00    -0.145 C  
HETATM   14  C   UNL     1      -8.917   5.832  69.946  1.00  0.00    -0.131 C  
HETATM   15  C   UNL     1      -8.427   4.394  69.817  1.00  0.00    -0.065 A  
HETATM   16  O   UNL     1      -7.724   6.630  69.880  1.00  0.00    -0.104 OA 
HETATM   17  C   UNL     1      -9.594   6.130  71.281  1.00  0.00    -0.171 A  
HETATM   18  O   UNL     1     -11.093   5.836  68.711  1.00  0.00    -0.243 OA 
HETATM   19  C   UNL     1      -7.213   3.879  70.254  1.00  0.00    -0.041 A  
HETATM   20  C   UNL     1     -10.373   5.298  72.070  1.00  0.00    -0.273 A  
HETATM   21  H   UNL     1      -7.109   6.402  70.567  1.00  0.00     0.000 HD 
HETATM   22  C   UNL     1     -10.866   5.941  73.242  1.00  0.00    -0.291 A  
HETATM   23  C   UNL     1      -7.062   2.489  69.986  1.00  0.00    -0.033 A  
HETATM   24  C   UNL     1      -8.169   1.967  69.361  1.00  0.00    -0.044 A  
HETATM   25  C   UNL     1     -10.460   7.252  73.319  1.00  0.00    -0.370 A  
HETATM   26  S   UNL     1      -9.372   3.147  69.097  1.00  0.00    -0.122 SA 
HETATM   27  S   UNL     1      -9.521   7.713  71.969  1.00  0.00    -0.160 SA 
ENDBRANCH  12  13
ENDBRANCH   6  12
TORSDOF 2
ENDMDL
MODEL      103
REMARK 921   NORMALIZED FREE ENERGY PREDICTED BY IDOCK:   -3.88 KCAL/MOL
REMARK 922        TOTAL FREE ENERGY PREDICTED BY IDOCK:   -5.32 KCAL/MOL
REMARK 923 INTER-LIGAND FREE ENERGY PREDICTED BY IDOCK:   -5.57 KCAL/MOL
REMARK 924 INTRA-LIGAND FREE ENERGY PREDICTED BY IDOCK:    0.25 KCAL/MOL
REMARK 927      BINDING AFFINITY PREDICTED BY RF-SCORE:    0.00 PKD
ROOT
HETATM    1  C   UNL     1      -7.961  18.733  65.880  1.00  0.00    -0.027 C  
HETATM    2  O   UNL     1      -7.418  17.503  65.412  1.00  0.00    -0.193 OA 
HETATM    3  C   UNL     1      -6.475  18.458  65.880  1.00  0.00    -0.255 C  
HETATM    4  C   UNL     1      -6.059  18.449  67.343  1.00  0.00    -0.168 C  
HETATM    5  C   UNL     1      -6.186  17.044  67.960  1.00  0.00    -0.142 C  
HETATM    6  C   UNL     1      -7.635  16.495  68.062  1.00  0.00    -0.161 C  
HETATM    7  C   UNL     1      -8.763  17.553  67.982  1.00  0.00    -0.254 C  
HETATM    8  N   UNL     1      -7.062  19.399  68.043  1.00  0.00    -0.258 N  
HETATM    9  C   UNL     1      -8.350  18.889  67.344  1.00  0.00    -0.275 C  
HETATM   10  C   UNL     1      -6.782  20.859  67.636  1.00  0.00    -0.349 C  
HETATM   11  C   UNL     1      -7.058  19.389  69.563  1.00  0.00    -0.209 C  
ENDROOT
BRANCH   6  12
HETATM   12  O   UNL     1      -7.897  15.534  67.015  1.00  0.00    -0.205 OA 
BRANCH  12  13
HETATM   13  C   UNL     1      -9.169  15.032  66.922  1.00  0.00    -0.246 C  
HETATM   14  C   UNL     1      -9.431  14.001  68.070  1.00  0.00    -0.206 C  
HETATM   15  C   UNL     1      -9.556  12.577  67.539  1.00  0.00    -0.187 A  
HETATM   16  O   UNL     1      -8.335  13.947  68.998  1.00  0.00    -0.339 OA 
HETATM   17  C   UNL     1     -10.659  14.478  68.839  1.00  0.00    -0.249 A  
HETATM   18  O   UNL     1      -9.974  15.428  66.089  1.00  0.00    -0.267 OA 
HETATM   19  C   UNL     1      -9.269  11.399  68.218  1.00  0.00    -0.183 A  
HETATM   20  C   UNL     1     -11.995  14.174  68.626  1.00  0.00    -0.373 A  
HETATM   21  H   UNL     1      -8.494  13.321  69.694  1.00  0.00     0.000 HD 
HETATM   22  C   UNL     1     -12.870  14.839  69.533  1.00  0.00     0.267 A  
HETATM   23  C   UNL     1      -9.499  10.230  67.439  1.00  0.00    -0.174 A  
HETATM   24  C   UNL     1      -9.970  10.537  66.185  1.00  0.00    -0.229 A  
HETATM   25  C   UNL     1     -12.185  15.640  70.415  1.00  0.00    -0.395 A  
HETATM   26  S   UNL     1     -10.124  12.220  65.953  1.00  0.00    -0.253 SA 
HETATM   27  S   UNL     1     -10.502  15.620  70.126  1.00  0.00    -0.238 SA 
ENDBRANCH  12  13
ENDBRANCH   6  12
TORSDOF 2
ENDMDL
MODEL      104
REMARK 921   NORMALIZED FREE ENERGY PREDICTED BY IDOCK:   -3.85 KCAL/MOL
REMARK 922        TOTAL FREE ENERGY PREDICTED BY IDOCK:   -5.28 KCAL/MOL
REMARK 923 INTER-LIGAND FREE ENERGY PREDICTED BY IDOCK:   -4.43 KCAL/MOL
REMARK 924 INTRA-LIGAND FREE ENERGY PREDICTED BY IDOCK:   -0.85 KCAL/MOL
REMARK 927      BINDING AFFINITY PREDICTED BY RF-SCORE:    0.00 PKD
ROOT
HETATM    1  C   UNL     1     -14.172  14.889  70.873  1.00  0.00     0.048 C  
HETATM    2  O   UNL     1     -13.519  14.994  69.612  1.00  0.00     0.760 OA 
HETATM    3  C   UNL     1     -13.153  15.967  70.582  1.00  0.00     0.293 C  
HETATM    4  C   UNL     1     -11.986  15.693  71.518  1.00  0.00    -0.417 C  
HETATM    5  C   UNL     1     -10.962  14.737  70.882  1.00  0.00     0.040 C  
HETATM    6  C   UNL     1     -11.475  13.294  70.623  1.00  0.00     0.588 C  
HETATM    7  C   UNL     1     -12.730  12.872  71.425  1.00  0.00    -0.366 C  
HETATM    8  N   UNL     1     -12.624  15.003  72.750  1.00  0.00    -0.363 N  
HETATM    9  C   UNL     1     -13.564  14.038  71.979  1.00  0.00    -0.463 C  
HETATM   10  C   UNL     1     -13.455  16.019  73.557  1.00  0.00    -0.280 C  
HETATM   11  C   UNL     1     -11.664  14.374  73.747  1.00  0.00     0.733 C  
ENDROOT
BRANCH   6  12
HETATM   12  O   UNL     1     -11.798  13.106  69.226  1.00  0.00    -0.302 OA 
BRANCH  12  13
HETATM   13  C   UNL     1     -10.768  13.184  68.324  1.00  0.00    -0.245 C  
HETATM   14  C   UNL     1     -11.200  14.027  67.079  1.00  0.00    -0.313 C  
HETATM   15  C   UNL     1     -11.334  13.168  65.827  1.00  0.00    -0.306 A  
HETATM   16  O   UNL     1     -12.499  14.614  67.257  1.00  0.00    -0.530 OA 
HETATM   17  C   UNL     1     -10.198  15.169  66.933  1.00  0.00    -0.259 A  
HETATM   18  O   UNL     1      -9.660  12.711  68.547  1.00  0.00    -0.195 OA 
HETATM   19  C   UNL     1     -12.153  13.403  64.730  1.00  0.00    -0.448 A  
HETATM   20  C   UNL     1      -9.014  15.205  66.212  1.00  0.00    -0.274 A  
HETATM   21  H   UNL     1     -12.761  15.126  66.501  1.00  0.00     0.000 HD 
HETATM   22  C   UNL     1      -8.320  16.443  66.341  1.00  0.00    -0.363 A  
HETATM   23  C   UNL     1     -12.040  12.408  63.719  1.00  0.00    -0.618 A  
HETATM   24  C   UNL     1     -11.126  11.440  64.056  1.00  0.00    -0.322 A  
HETATM   25  C   UNL     1      -8.985  17.323  67.162  1.00  0.00    -0.226 A  
HETATM   26  S   UNL     1     -10.420  11.728  65.582  1.00  0.00    -0.275 SA 
HETATM   27  S   UNL     1     -10.415  16.647  67.802  1.00  0.00    -0.322 SA 
ENDBRANCH  12  13
ENDBRANCH   6  12
TORSDOF 2
ENDMDL
MODEL      105
REMARK 921   NORMALIZED FREE ENERGY PREDICTED BY IDOCK:   -3.82 KCAL/MOL
REMARK 922        TOTAL FREE ENERGY PREDICTED BY IDOCK:   -5.25 KCAL/MOL
REMARK 923 INTER-LIGAND FREE ENERGY PREDICTED BY IDOCK:   -5.63 KCAL/MOL
REMARK 924 INTRA-LIGAND FREE ENERGY PREDICTED BY IDOCK:    0.37 KCAL/MOL
REMARK 927      BINDING AFFINITY PREDICTED BY RF-SCORE:    0.00 PKD
ROOT
HETATM    1  C   UNL     1      -9.284   9.296  65.333  1.00  0.00    -0.222 C  
HETATM    2  O   UNL     1     -10.284   9.647  66.283  1.00  0.00    -0.260 OA 
HETATM    3  C   UNL     1      -9.768   8.327  66.386  1.00  0.00    -0.230 C  
HETATM    4  C   UNL     1      -8.567   8.056  67.279  1.00  0.00    -0.124 C  
HETATM    5  C   UNL     1      -8.483   9.067  68.437  1.00  0.00    -0.129 C  
HETATM    6  C   UNL     1      -8.210  10.536  68.014  1.00  0.00    -0.112 C  
HETATM    7  C   UNL     1      -7.611  10.729  66.600  1.00  0.00    -0.134 C  
HETATM    8  N   UNL     1      -7.339   8.245  66.355  1.00  0.00    -0.079 N  
HETATM    9  C   UNL     1      -7.814   9.541  65.646  1.00  0.00    -0.101 C  
HETATM   10  C   UNL     1      -7.255   7.088  65.340  1.00  0.00    -0.073 C  
HETATM   11  C   UNL     1      -5.980   8.294  67.034  1.00  0.00    -0.053 C  
ENDROOT
BRANCH   6  12
HETATM   12  O   UNL     1      -9.425  11.318  68.057  1.00  0.00    -0.162 OA 
BRANCH  12  13
HETATM   13  C   UNL     1      -9.449  12.488  67.342  1.00  0.00    -0.184 C  
HETATM   14  C   UNL     1     -10.915  13.022  67.224  1.00  0.00    -0.264 C  
HETATM   15  C   UNL     1     -11.442  12.928  65.797  1.00  0.00    -0.337 A  
HETATM   16  O   UNL     1     -11.832  12.236  68.002  1.00  0.00    -0.349 OA 
HETATM   17  C   UNL     1     -10.930  14.438  67.791  1.00  0.00    -0.274 A  
HETATM   18  O   UNL     1      -8.429  13.037  66.945  1.00  0.00    -0.173 OA 
HETATM   19  C   UNL     1     -12.766  12.797  65.397  1.00  0.00    -0.234 A  
HETATM   20  C   UNL     1     -10.723  15.643  67.136  1.00  0.00    -0.314 A  
HETATM   21  H   UNL     1     -12.723  12.560  67.930  1.00  0.00     0.000 HD 
HETATM   22  C   UNL     1     -10.782  16.769  68.007  1.00  0.00    -0.355 A  
HETATM   23  C   UNL     1     -12.925  12.743  63.983  1.00  0.00    -0.048 A  
HETATM   24  C   UNL     1     -11.721  12.848  63.330  1.00  0.00    -0.461 A  
HETATM   25  C   UNL     1     -11.026  16.400  69.309  1.00  0.00    -0.322 A  
HETATM   26  S   UNL     1     -10.414  13.003  64.416  1.00  0.00    -0.376 SA 
HETATM   27  S   UNL     1     -11.146  14.706  69.484  1.00  0.00    -0.254 SA 
ENDBRANCH  12  13
ENDBRANCH   6  12
TORSDOF 2
ENDMDL
MODEL      106
REMARK 921   NORMALIZED FREE ENERGY PREDICTED BY IDOCK:   -3.81 KCAL/MOL
REMARK 922        TOTAL FREE ENERGY PREDICTED BY IDOCK:   -5.24 KCAL/MOL
REMARK 923 INTER-LIGAND FREE ENERGY PREDICTED BY IDOCK:   -4.65 KCAL/MOL
REMARK 924 INTRA-LIGAND FREE ENERGY PREDICTED BY IDOCK:   -0.59 KCAL/MOL
REMARK 927      BINDING AFFINITY PREDICTED BY RF-SCORE:    0.00 PKD
ROOT
HETATM    1  C   UNL     1     -11.042   6.730  69.762  1.00  0.00    -0.316 C  
HETATM    2  O   UNL     1     -10.502   8.025  70.001  1.00  0.00    -0.218 OA 
HETATM    3  C   UNL     1      -9.666   6.931  70.352  1.00  0.00    -0.172 C  
HETATM    4  C   UNL     1      -8.693   6.369  69.326  1.00  0.00    -0.125 C  
HETATM    5  C   UNL     1      -8.268   7.438  68.304  1.00  0.00    -0.125 C  
HETATM    6  C   UNL     1      -9.402   7.959  67.380  1.00  0.00    -0.141 C  
HETATM    7  C   UNL     1     -10.652   7.052  67.272  1.00  0.00    -0.395 C  
HETATM    8  N   UNL     1      -9.490   5.261  68.594  1.00  0.00    -0.121 N  
HETATM    9  C   UNL     1     -10.818   6.044  68.421  1.00  0.00    -0.281 C  
HETATM   10  C   UNL     1      -9.704   4.056  69.530  1.00  0.00    -0.157 C  
HETATM   11  C   UNL     1      -8.859   4.693  67.333  1.00  0.00    -0.105 C  
ENDROOT
BRANCH   6  12
HETATM   12  O   UNL     1      -9.870   9.254  67.818  1.00  0.00    -0.158 OA 
BRANCH  12  13
HETATM   13  C   UNL     1      -9.222  10.359  67.329  1.00  0.00    -0.142 C  
HETATM   14  C   UNL     1     -10.049  11.003  66.168  1.00  0.00    -0.237 C  
HETATM   15  C   UNL     1      -9.361  10.838  64.818  1.00  0.00    -0.226 A  
HETATM   16  O   UNL     1     -11.326  10.365  66.005  1.00  0.00     0.367 OA 
HETATM   17  C   UNL     1     -10.310  12.458  66.548  1.00  0.00    -0.228 A  
HETATM   18  O   UNL     1      -8.185  10.786  67.821  1.00  0.00    -0.111 OA 
HETATM   19  C   UNL     1      -9.965  10.787  63.567  1.00  0.00    -0.403 A  
HETATM   20  C   UNL     1      -9.548  13.583  66.270  1.00  0.00    -0.245 A  
HETATM   21  H   UNL     1     -11.828  10.756  65.300  1.00  0.00     0.000 HD 
HETATM   22  C   UNL     1     -10.096  14.778  66.820  1.00  0.00    -0.258 A  
HETATM   23  C   UNL     1      -9.036  10.631  62.499  1.00  0.00    -0.326 A  
HETATM   24  C   UNL     1      -7.741  10.580  62.953  1.00  0.00    -0.092 A  
HETATM   25  C   UNL     1     -11.260  14.539  67.511  1.00  0.00    -0.321 A  
HETATM   26  S   UNL     1      -7.651  10.712  64.652  1.00  0.00     0.244 SA 
HETATM   27  S   UNL     1     -11.668  12.881  67.528  1.00  0.00    -0.356 SA 
ENDBRANCH  12  13
ENDBRANCH   6  12
TORSDOF 2
ENDMDL
MODEL      107
REMARK 921   NORMALIZED FREE ENERGY PREDICTED BY IDOCK:   -3.78 KCAL/MOL
REMARK 922        TOTAL FREE ENERGY PREDICTED BY IDOCK:   -5.20 KCAL/MOL
REMARK 923 INTER-LIGAND FREE ENERGY PREDICTED BY IDOCK:   -4.47 KCAL/MOL
REMARK 924 INTRA-LIGAND FREE ENERGY PREDICTED BY IDOCK:   -0.73 KCAL/MOL
REMARK 927      BINDING AFFINITY PREDICTED BY RF-SCORE:    0.00 PKD
ROOT
HETATM    1  C   UNL     1      -8.361  10.647  65.881  1.00  0.00    -0.161 C  
HETATM    2  O   UNL     1      -9.391   9.920  66.544  1.00  0.00    -0.153 OA 
HETATM    3  C   UNL     1      -9.266   9.684  65.148  1.00  0.00    -0.246 C  
HETATM    4  C   UNL     1      -8.361   8.567  64.652  1.00  0.00    -0.146 C  
HETATM    5  C   UNL     1      -8.228   7.442  65.694  1.00  0.00    -0.137 C  
HETATM    6  C   UNL     1      -7.507   7.841  67.011  1.00  0.00    -0.095 C  
HETATM    7  C   UNL     1      -6.631   9.115  66.939  1.00  0.00    -0.068 C  
HETATM    8  N   UNL     1      -6.979   9.237  64.455  1.00  0.00    -0.091 N  
HETATM    9  C   UNL     1      -6.960  10.059  65.771  1.00  0.00    -0.112 C  
HETATM   10  C   UNL     1      -7.018  10.185  63.240  1.00  0.00    -0.125 C  
HETATM   11  C   UNL     1      -5.802   8.306  64.212  1.00  0.00    -0.064 C  
ENDROOT
BRANCH   6  12
HETATM   12  O   UNL     1      -8.462   8.057  68.075  1.00  0.00    -0.125 OA 
BRANCH  12  13
HETATM   13  C   UNL     1      -8.512   7.124  69.078  1.00  0.00    -0.129 C  
HETATM   14  C   UNL     1      -9.930   6.463  69.134  1.00  0.00    -0.149 C  
HETATM   15  C   UNL     1     -10.695   6.864  70.389  1.00  0.00    -0.246 A  
HETATM   16  O   UNL     1     -10.763   6.897  68.047  1.00  0.00    -0.217 OA 
HETATM   17  C   UNL     1      -9.736   4.957  68.989  1.00  0.00    -0.175 A  
HETATM   18  O   UNL     1      -7.533   6.828  69.752  1.00  0.00    -0.087 OA 
HETATM   19  C   UNL     1     -12.074   6.932  70.547  1.00  0.00    -0.315 A  
HETATM   20  C   UNL     1      -9.547   4.002  69.977  1.00  0.00    -0.274 A  
HETATM   21  H   UNL     1     -11.624   6.496  68.081  1.00  0.00     0.000 HD 
HETATM   22  C   UNL     1      -9.367   2.688  69.456  1.00  0.00    -0.184 A  
HETATM   23  C   UNL     1     -12.473   7.336  71.852  1.00  0.00    -0.337 A  
HETATM   24  C   UNL     1     -11.392   7.555  72.671  1.00  0.00    -0.344 A  
HETATM   25  C   UNL     1      -9.417   2.668  68.082  1.00  0.00    -0.158 A  
HETATM   26  S   UNL     1      -9.913   7.283  71.866  1.00  0.00    -0.166 SA 
HETATM   27  S   UNL     1      -9.641   4.228  67.426  1.00  0.00    -0.162 SA 
ENDBRANCH  12  13
ENDBRANCH   6  12
TORSDOF 2
ENDMDL
MODEL      108
REMARK 921   NORMALIZED FREE ENERGY PREDICTED BY IDOCK:   -3.76 KCAL/MOL
REMARK 922        TOTAL FREE ENERGY PREDICTED BY IDOCK:   -5.19 KCAL/MOL
REMARK 923 INTER-LIGAND FREE ENERGY PREDICTED BY IDOCK:   -4.47 KCAL/MOL
REMARK 924 INTRA-LIGAND FREE ENERGY PREDICTED BY IDOCK:   -0.72 KCAL/MOL
REMARK 927      BINDING AFFINITY PREDICTED BY RF-SCORE:    0.00 PKD
ROOT
HETATM    1  C   UNL     1      -7.281  18.245  66.007  1.00  0.00    -0.263 C  
HETATM    2  O   UNL     1      -6.683  17.108  66.621  1.00  0.00    -0.198 OA 
HETATM    3  C   UNL     1      -6.702  18.295  67.402  1.00  0.00    -0.196 C  
HETATM    4  C   UNL     1      -7.879  18.569  68.326  1.00  0.00    -0.303 C  
HETATM    5  C   UNL     1      -8.547  17.264  68.793  1.00  0.00    -0.230 C  
HETATM    6  C   UNL     1      -9.238  16.437  67.674  1.00  0.00    -0.199 C  
HETATM    7  C   UNL     1      -9.572  17.210  66.375  1.00  0.00    -0.296 C  
HETATM    8  N   UNL     1      -8.883  19.368  67.458  1.00  0.00    -0.298 N  
HETATM    9  C   UNL     1      -8.772  18.507  66.172  1.00  0.00    -0.118 C  
HETATM   10  C   UNL     1      -8.343  20.787  67.193  1.00  0.00    -0.124 C  
HETATM   11  C   UNL     1     -10.275  19.560  68.037  1.00  0.00    -0.437 C  
ENDROOT
BRANCH   6  12
HETATM   12  O   UNL     1      -8.418  15.312  67.285  1.00  0.00    -0.165 OA 
BRANCH  12  13
HETATM   13  C   UNL     1      -8.150  14.366  68.240  1.00  0.00    -0.139 C  
HETATM   14  C   UNL     1      -6.629  13.997  68.227  1.00  0.00    -0.110 C  
HETATM   15  C   UNL     1      -6.391  12.579  67.722  1.00  0.00    -0.121 A  
HETATM   16  O   UNL     1      -5.886  14.833  67.325  1.00  0.00    -0.303 OA 
HETATM   17  C   UNL     1      -6.088  14.246  69.632  1.00  0.00    -0.120 A  
HETATM   18  O   UNL     1      -9.001  13.960  69.022  1.00  0.00     0.037 OA 
HETATM   19  C   UNL     1      -5.252  12.092  67.092  1.00  0.00    -0.084 A  
HETATM   20  C   UNL     1      -6.016  13.373  70.707  1.00  0.00    -0.079 A  
HETATM   21  H   UNL     1      -4.963  14.610  67.317  1.00  0.00     0.000 HD 
HETATM   22  C   UNL     1      -5.476  13.976  71.880  1.00  0.00    -0.229 A  
HETATM   23  C   UNL     1      -5.345  10.714  66.748  1.00  0.00    -0.049 A  
HETATM   24  C   UNL     1      -6.546  10.171  67.136  1.00  0.00    -0.069 A  
HETATM   25  C   UNL     1      -5.153  15.297  71.678  1.00  0.00    -0.117 A  
HETATM   26  S   UNL     1      -7.551  11.319  67.899  1.00  0.00    -0.105 SA 
HETATM   27  S   UNL     1      -5.534  15.815  70.097  1.00  0.00    -0.155 SA 
ENDBRANCH  12  13
ENDBRANCH   6  12
TORSDOF 2
ENDMDL
MODEL      109
REMARK 921   NORMALIZED FREE ENERGY PREDICTED BY IDOCK:   -3.76 KCAL/MOL
REMARK 922        TOTAL FREE ENERGY PREDICTED BY IDOCK:   -5.18 KCAL/MOL
REMARK 923 INTER-LIGAND FREE ENERGY PREDICTED BY IDOCK:   -5.27 KCAL/MOL
REMARK 924 INTRA-LIGAND FREE ENERGY PREDICTED BY IDOCK:    0.09 KCAL/MOL
REMARK 927      BINDING AFFINITY PREDICTED BY RF-SCORE:    0.00 PKD
ROOT
HETATM    1  C   UNL     1      -5.674  18.187  66.735  1.00  0.00    -0.146 C  
HETATM    2  O   UNL     1      -6.066  16.818  66.712  1.00  0.00    -0.183 OA 
HETATM    3  C   UNL     1      -5.760  17.354  67.993  1.00  0.00    -0.132 C  
HETATM    4  C   UNL     1      -6.865  17.983  68.828  1.00  0.00    -0.259 C  
HETATM    5  C   UNL     1      -8.241  17.380  68.493  1.00  0.00    -0.268 C  
HETATM    6  C   UNL     1      -8.757  17.669  67.057  1.00  0.00    -0.242 C  
HETATM    7  C   UNL     1      -8.090  18.861  66.328  1.00  0.00    -0.286 C  
HETATM    8  N   UNL     1      -6.858  19.479  68.428  1.00  0.00    -0.278 N  
HETATM    9  C   UNL     1      -6.724  19.279  66.894  1.00  0.00    -0.196 C  
HETATM   10  C   UNL     1      -5.598  20.171  68.983  1.00  0.00    -0.245 C  
HETATM   11  C   UNL     1      -8.032  20.315  68.910  1.00  0.00     0.329 C  
ENDROOT
BRANCH   6  12
HETATM   12  O   UNL     1      -8.581  16.514  66.205  1.00  0.00    -0.314 OA 
BRANCH  12  13
HETATM   13  C   UNL     1      -9.115  15.326  66.632  1.00  0.00    -0.282 C  
HETATM   14  C   UNL     1     -10.669  15.446  66.766  1.00  0.00    -0.310 C  
HETATM   15  C   UNL     1     -11.121  15.395  68.221  1.00  0.00    -0.309 A  
HETATM   16  O   UNL     1     -11.150  16.710  66.281  1.00  0.00     0.041 OA 
HETATM   17  C   UNL     1     -11.286  14.356  65.895  1.00  0.00    -0.332 A  
HETATM   18  O   UNL     1      -8.436  14.319  66.793  1.00  0.00    -0.159 OA 
HETATM   19  C   UNL     1     -12.264  15.967  68.766  1.00  0.00     0.166 A  
HETATM   20  C   UNL     1     -11.626  13.055  66.234  1.00  0.00    -0.408 A  
HETATM   21  H   UNL     1     -12.093  16.783  66.362  1.00  0.00     0.000 HD 
HETATM   22  C   UNL     1     -12.154  12.314  65.138  1.00  0.00    -0.379 A  
HETATM   23  C   UNL     1     -12.401  15.730  70.163  1.00  0.00    -0.309 A  
HETATM   24  C   UNL     1     -11.368  14.970  70.656  1.00  0.00    -0.271 A  
HETATM   25  C   UNL     1     -12.200  13.060  63.985  1.00  0.00    -0.417 A  
HETATM   26  S   UNL     1     -10.242  14.556  69.442  1.00  0.00     0.047 SA 
HETATM   27  S   UNL     1     -11.576  14.633  64.214  1.00  0.00    -0.133 SA 
ENDBRANCH  12  13
ENDBRANCH   6  12
TORSDOF 2
ENDMDL
MODEL      110
REMARK 921   NORMALIZED FREE ENERGY PREDICTED BY IDOCK:   -3.72 KCAL/MOL
REMARK 922        TOTAL FREE ENERGY PREDICTED BY IDOCK:   -5.14 KCAL/MOL
REMARK 923 INTER-LIGAND FREE ENERGY PREDICTED BY IDOCK:   -4.70 KCAL/MOL
REMARK 924 INTRA-LIGAND FREE ENERGY PREDICTED BY IDOCK:   -0.43 KCAL/MOL
REMARK 927      BINDING AFFINITY PREDICTED BY RF-SCORE:    0.00 PKD
ROOT
HETATM    1  C   UNL     1      -7.795   9.078  70.454  1.00  0.00    -0.116 C  
HETATM    2  O   UNL     1      -7.445   9.661  69.203  1.00  0.00    -0.073 OA 
HETATM    3  C   UNL     1      -7.793   8.283  69.169  1.00  0.00    -0.106 C  
HETATM    4  C   UNL     1      -9.240   7.879  68.932  1.00  0.00    -0.144 C  
HETATM    5  C   UNL     1      -9.999   8.942  68.119  1.00  0.00    -0.208 C  
HETATM    6  C   UNL     1     -10.189  10.309  68.830  1.00  0.00    -0.205 C  
HETATM    7  C   UNL     1     -10.024  10.296  70.369  1.00  0.00     0.176 C  
HETATM    8  N   UNL     1      -9.860   7.790  70.349  1.00  0.00    -0.183 N  
HETATM    9  C   UNL     1      -9.244   9.093  70.924  1.00  0.00    -0.261 C  
HETATM   10  C   UNL     1      -9.299   6.565  71.097  1.00  0.00    -0.163 C  
HETATM   11  C   UNL     1     -11.372   7.657  70.419  1.00  0.00    -0.219 C  
ENDROOT
BRANCH   6  12
HETATM   12  O   UNL     1      -9.252  11.287  68.325  1.00  0.00    -0.163 OA 
BRANCH  12  13
HETATM   13  C   UNL     1      -9.702  12.572  68.170  1.00  0.00    -0.222 C  
HETATM   14  C   UNL     1      -8.850  13.320  67.091  1.00  0.00    -0.222 C  
HETATM   15  C   UNL     1      -7.985  14.415  67.706  1.00  0.00    -0.158 A  
HETATM   16  O   UNL     1      -7.915  12.439  66.446  1.00  0.00    -0.377 OA 
HETATM   17  C   UNL     1      -9.813  13.827  66.022  1.00  0.00    -0.282 A  
HETATM   18  O   UNL     1     -10.687  13.000  68.758  1.00  0.00    -0.248 OA 
HETATM   19  C   UNL     1      -6.780  14.906  67.220  1.00  0.00     0.062 A  
HETATM   20  C   UNL     1     -10.478  15.042  65.952  1.00  0.00    -0.341 A  
HETATM   21  H   UNL     1      -7.398  12.893  65.791  1.00  0.00     0.000 HD 
HETATM   22  C   UNL     1     -11.327  15.148  64.813  1.00  0.00    -0.399 A  
HETATM   23  C   UNL     1      -6.225  15.938  68.028  1.00  0.00    -0.143 A  
HETATM   24  C   UNL     1      -7.024  16.225  69.109  1.00  0.00    -0.206 A  
HETATM   25  C   UNL     1     -11.298  14.011  64.041  1.00  0.00    -0.015 A  
HETATM   26  S   UNL     1      -8.424  15.251  69.146  1.00  0.00    -0.237 SA 
HETATM   27  S   UNL     1     -10.283  12.810  64.707  1.00  0.00    -0.249 SA 
ENDBRANCH  12  13
ENDBRANCH   6  12
TORSDOF 2
ENDMDL
MODEL      111
REMARK 921   NORMALIZED FREE ENERGY PREDICTED BY IDOCK:   -3.71 KCAL/MOL
REMARK 922        TOTAL FREE ENERGY PREDICTED BY IDOCK:   -5.13 KCAL/MOL
REMARK 923 INTER-LIGAND FREE ENERGY PREDICTED BY IDOCK:   -5.22 KCAL/MOL
REMARK 924 INTRA-LIGAND FREE ENERGY PREDICTED BY IDOCK:    0.09 KCAL/MOL
REMARK 927      BINDING AFFINITY PREDICTED BY RF-SCORE:    0.00 PKD
ROOT
HETATM    1  C   UNL     1      -7.205   8.014  67.507  1.00  0.00    -0.088 C  
HETATM    2  O   UNL     1      -6.957   7.780  68.890  1.00  0.00    -0.062 OA 
HETATM    3  C   UNL     1      -6.282   8.893  68.318  1.00  0.00    -0.054 C  
HETATM    4  C   UNL     1      -6.938  10.265  68.344  1.00  0.00    -0.069 C  
HETATM    5  C   UNL     1      -7.904  10.408  69.533  1.00  0.00    -0.161 C  
HETATM    6  C   UNL     1      -9.153   9.486  69.486  1.00  0.00    -0.185 C  
HETATM    7  C   UNL     1      -9.510   8.907  68.096  1.00  0.00    -0.155 C  
HETATM    8  N   UNL     1      -7.747  10.339  67.025  1.00  0.00    -0.099 N  
HETATM    9  C   UNL     1      -8.357   8.913  67.079  1.00  0.00    -0.106 C  
HETATM   10  C   UNL     1      -6.791  10.460  65.823  1.00  0.00    -0.132 C  
HETATM   11  C   UNL     1      -8.722  11.498  66.892  1.00  0.00    -0.181 C  
ENDROOT
BRANCH   6  12
HETATM   12  O   UNL     1      -8.992   8.357  70.374  1.00  0.00    -0.141 OA 
BRANCH  12  13
HETATM   13  C   UNL     1     -10.029   7.463  70.453  1.00  0.00    -0.188 C  
HETATM   14  C   UNL     1     -10.590   7.411  71.913  1.00  0.00    -0.203 C  
HETATM   15  C   UNL     1     -10.284   6.082  72.594  1.00  0.00    -0.183 A  
HETATM   16  O   UNL     1      -9.977   8.400  72.756  1.00  0.00    -0.284 OA 
HETATM   17  C   UNL     1     -12.080   7.732  71.840  1.00  0.00    -0.304 A  
HETATM   18  O   UNL     1     -10.469   6.876  69.472  1.00  0.00    -0.205 OA 
HETATM   19  C   UNL     1     -10.137   5.849  73.956  1.00  0.00    -0.252 A  
HETATM   20  C   UNL     1     -13.153   6.868  71.683  1.00  0.00    -0.338 A  
HETATM   21  H   UNL     1     -10.317   8.368  73.642  1.00  0.00     0.000 HD 
HETATM   22  C   UNL     1     -14.407   7.541  71.626  1.00  0.00    -0.621 A  
HETATM   23  C   UNL     1      -9.859   4.488  74.268  1.00  0.00    -0.183 A  
HETATM   24  C   UNL     1      -9.812   3.705  73.140  1.00  0.00    -0.128 A  
HETATM   25  C   UNL     1     -14.266   8.904  71.734  1.00  0.00    -0.317 A  
HETATM   26  S   UNL     1     -10.094   4.609  71.721  1.00  0.00    -0.173 SA 
HETATM   27  S   UNL     1     -12.629   9.370  71.865  1.00  0.00    -0.406 SA 
ENDBRANCH  12  13
ENDBRANCH   6  12
TORSDOF 2
ENDMDL
MODEL      112
REMARK 921   NORMALIZED FREE ENERGY PREDICTED BY IDOCK:   -3.68 KCAL/MOL
REMARK 922        TOTAL FREE ENERGY PREDICTED BY IDOCK:   -5.10 KCAL/MOL
REMARK 923 INTER-LIGAND FREE ENERGY PREDICTED BY IDOCK:   -4.39 KCAL/MOL
REMARK 924 INTRA-LIGAND FREE ENERGY PREDICTED BY IDOCK:   -0.71 KCAL/MOL
REMARK 927      BINDING AFFINITY PREDICTED BY RF-SCORE:    0.00 PKD
ROOT
HETATM    1  C   UNL     1     -11.096  10.478  66.123  1.00  0.00     0.262 C  
HETATM    2  O   UNL     1      -9.952   9.637  66.022  1.00  0.00    -0.266 OA 
HETATM    3  C   UNL     1      -9.732  11.015  65.755  1.00  0.00    -0.224 C  
HETATM    4  C   UNL     1      -9.338  11.948  66.890  1.00  0.00    -0.196 C  
HETATM    5  C   UNL     1      -8.595  11.195  68.009  1.00  0.00    -0.140 C  
HETATM    6  C   UNL     1      -9.442  10.142  68.774  1.00  0.00    -0.171 C  
HETATM    7  C   UNL     1     -10.977  10.298  68.654  1.00  0.00    -0.289 C  
HETATM    8  N   UNL     1     -10.682  12.480  67.447  1.00  0.00    -0.225 N  
HETATM    9  C   UNL     1     -11.450  11.131  67.452  1.00  0.00    -0.180 C  
HETATM   10  C   UNL     1     -11.326  13.451  66.440  1.00  0.00    -0.313 C  
HETATM   11  C   UNL     1     -10.617  13.237  68.764  1.00  0.00    -0.201 C  
ENDROOT
BRANCH   6  12
HETATM   12  O   UNL     1      -9.127   8.804  68.325  1.00  0.00    -0.140 OA 
BRANCH  12  13
HETATM   13  C   UNL     1      -8.945   7.843  69.285  1.00  0.00    -0.145 C  
HETATM   14  C   UNL     1     -10.125   6.816  69.255  1.00  0.00    -0.168 C  
HETATM   15  C   UNL     1     -11.006   6.924  70.494  1.00  0.00    -0.273 A  
HETATM   16  O   UNL     1     -11.015   7.058  68.154  1.00  0.00    -0.421 OA 
HETATM   17  C   UNL     1      -9.517   5.430  69.056  1.00  0.00    -0.133 A  
HETATM   18  O   UNL     1      -7.941   7.794  69.986  1.00  0.00    -0.108 OA 
HETATM   19  C   UNL     1     -12.354   6.601  70.597  1.00  0.00    -0.161 A  
HETATM   20  C   UNL     1      -9.098   4.515  70.010  1.00  0.00    -0.161 A  
HETATM   21  H   UNL     1     -11.731   6.435  68.135  1.00  0.00     0.000 HD 
HETATM   22  C   UNL     1      -8.548   3.330  69.441  1.00  0.00    -0.111 A  
HETATM   23  C   UNL     1     -12.885   6.812  71.901  1.00  0.00    -0.264 A  
HETATM   24  C   UNL     1     -11.930   7.279  72.772  1.00  0.00     0.072 A  
HETATM   25  C   UNL     1      -8.551   3.368  68.067  1.00  0.00    -0.095 A  
HETATM   26  S   UNL     1     -10.412   7.466  72.017  1.00  0.00    -0.203 SA 
HETATM   27  S   UNL     1      -9.180   4.838  67.468  1.00  0.00    -0.134 SA 
ENDBRANCH  12  13
ENDBRANCH   6  12
TORSDOF 2
ENDMDL
MODEL      113
REMARK 921   NORMALIZED FREE ENERGY PREDICTED BY IDOCK:   -3.68 KCAL/MOL
REMARK 922        TOTAL FREE ENERGY PREDICTED BY IDOCK:   -5.09 KCAL/MOL
REMARK 923 INTER-LIGAND FREE ENERGY PREDICTED BY IDOCK:   -5.01 KCAL/MOL
REMARK 924 INTRA-LIGAND FREE ENERGY PREDICTED BY IDOCK:   -0.08 KCAL/MOL
REMARK 927      BINDING AFFINITY PREDICTED BY RF-SCORE:    0.00 PKD
ROOT
HETATM    1  C   UNL     1      -7.256  10.158  69.663  1.00  0.00    -0.127 C  
HETATM    2  O   UNL     1      -7.128  11.573  69.750  1.00  0.00    -0.012 OA 
HETATM    3  C   UNL     1      -6.016  10.884  69.196  1.00  0.00    -0.042 C  
HETATM    4  C   UNL     1      -5.946  10.654  67.694  1.00  0.00    -0.044 C  
HETATM    5  C   UNL     1      -6.714  11.740  66.919  1.00  0.00    -0.105 C  
HETATM    6  C   UNL     1      -8.250  11.752  67.143  1.00  0.00    -0.169 C  
HETATM    7  C   UNL     1      -8.858  10.447  67.712  1.00  0.00    -0.128 C  
HETATM    8  N   UNL     1      -6.643   9.289  67.472  1.00  0.00    -0.064 N  
HETATM    9  C   UNL     1      -7.853   9.520  68.415  1.00  0.00    -0.086 C  
HETATM   10  C   UNL     1      -5.760   8.148  68.015  1.00  0.00    -0.035 C  
HETATM   11  C   UNL     1      -6.957   8.914  66.033  1.00  0.00    -0.084 C  
ENDROOT
BRANCH   6  12
HETATM   12  O   UNL     1      -8.629  12.812  68.051  1.00  0.00    -0.169 OA 
BRANCH  12  13
HETATM   13  C   UNL     1      -9.900  13.314  67.941  1.00  0.00    -0.234 C  
HETATM   14  C   UNL     1     -10.006  14.255  66.695  1.00  0.00    -0.275 C  
HETATM   15  C   UNL     1     -10.193  15.713  67.098  1.00  0.00    -0.270 A  
HETATM   16  O   UNL     1      -8.800  14.245  65.916  1.00  0.00    -0.327 OA 
HETATM   17  C   UNL     1     -11.127  13.716  65.811  1.00  0.00    -0.287 A  
HETATM   18  O   UNL     1     -10.809  12.976  68.690  1.00  0.00    -0.247 OA 
HETATM   19  C   UNL     1      -9.815  16.839  66.376  1.00  0.00    -0.312 A  
HETATM   20  C   UNL     1     -12.478  14.028  65.827  1.00  0.00    -0.523 A  
HETATM   21  H   UNL     1      -8.864  14.817  65.160  1.00  0.00     0.000 HD 
HETATM   22  C   UNL     1     -13.231  13.293  64.866  1.00  0.00     0.222 A  
HETATM   23  C   UNL     1     -10.138  18.062  67.030  1.00  0.00    -0.348 A  
HETATM   24  C   UNL     1     -10.769  17.847  68.231  1.00  0.00    -0.220 A  
HETATM   25  C   UNL     1     -12.441  12.432  64.142  1.00  0.00    -0.442 A  
HETATM   26  S   UNL     1     -10.960  16.185  68.566  1.00  0.00    -0.353 SA 
HETATM   27  S   UNL     1     -10.810  12.482  64.644  1.00  0.00    -0.331 SA 
ENDBRANCH  12  13
ENDBRANCH   6  12
TORSDOF 2
ENDMDL
MODEL      114
REMARK 921   NORMALIZED FREE ENERGY PREDICTED BY IDOCK:   -3.68 KCAL/MOL
REMARK 922        TOTAL FREE ENERGY PREDICTED BY IDOCK:   -5.09 KCAL/MOL
REMARK 923 INTER-LIGAND FREE ENERGY PREDICTED BY IDOCK:   -4.32 KCAL/MOL
REMARK 924 INTRA-LIGAND FREE ENERGY PREDICTED BY IDOCK:   -0.77 KCAL/MOL
REMARK 927      BINDING AFFINITY PREDICTED BY RF-SCORE:    0.00 PKD
ROOT
HETATM    1  C   UNL     1      -7.295   4.462  69.047  1.00  0.00    -0.055 C  
HETATM    2  O   UNL     1      -6.977   5.823  68.777  1.00  0.00    -0.063 OA 
HETATM    3  C   UNL     1      -6.281   4.858  68.000  1.00  0.00    -0.035 C  
HETATM    4  C   UNL     1      -6.862   4.401  66.671  1.00  0.00    -0.055 C  
HETATM    5  C   UNL     1      -7.746   5.489  66.036  1.00  0.00    -0.095 C  
HETATM    6  C   UNL     1      -9.041   5.831  66.821  1.00  0.00    -0.126 C  
HETATM    7  C   UNL     1      -9.511   4.766  67.842  1.00  0.00    -0.181 C  
HETATM    8  N   UNL     1      -7.744   3.179  67.026  1.00  0.00    -0.075 N  
HETATM    9  C   UNL     1      -8.423   3.776  68.288  1.00  0.00    -0.092 C  
HETATM   10  C   UNL     1      -6.858   1.981  67.420  1.00  0.00    -0.039 C  
HETATM   11  C   UNL     1      -8.665   2.665  65.931  1.00  0.00    -0.127 C  
ENDROOT
BRANCH   6  12
HETATM   12  O   UNL     1      -8.886   7.066  67.557  1.00  0.00    -0.120 OA 
BRANCH  12  13
HETATM   13  C   UNL     1     -10.023   7.660  68.042  1.00  0.00    -0.175 C  
HETATM   14  C   UNL     1      -9.689   8.519  69.306  1.00  0.00    -0.173 C  
HETATM   15  C   UNL     1     -10.277   7.915  70.576  1.00  0.00    -0.198 A  
HETATM   16  O   UNL     1      -8.275   8.578  69.553  1.00  0.00    -0.112 OA 
HETATM   17  C   UNL     1     -10.165   9.942  69.028  1.00  0.00    -0.200 A  
HETATM   18  O   UNL     1     -11.106   7.565  67.478  1.00  0.00    -0.114 OA 
HETATM   19  C   UNL     1      -9.796   8.054  71.873  1.00  0.00    -0.251 A  
HETATM   20  C   UNL     1     -11.399  10.518  69.292  1.00  0.00    -0.325 A  
HETATM   21  H   UNL     1      -8.072   9.100  70.321  1.00  0.00     0.000 HD 
HETATM   22  C   UNL     1     -11.487  11.871  68.858  1.00  0.00    -0.358 A  
HETATM   23  C   UNL     1     -10.581   7.365  72.841  1.00  0.00    -0.370 A  
HETATM   24  C   UNL     1     -11.653   6.726  72.267  1.00  0.00    -0.273 A  
HETATM   25  C   UNL     1     -10.323  12.299  68.266  1.00  0.00    -0.221 A  
HETATM   26  S   UNL     1     -11.704   6.951  70.577  1.00  0.00    -0.327 SA 
HETATM   27  S   UNL     1      -9.145  11.065  68.201  1.00  0.00    -0.161 SA 
ENDBRANCH  12  13
ENDBRANCH   6  12
TORSDOF 2
ENDMDL
MODEL      115
REMARK 921   NORMALIZED FREE ENERGY PREDICTED BY IDOCK:   -3.66 KCAL/MOL
REMARK 922        TOTAL FREE ENERGY PREDICTED BY IDOCK:   -5.07 KCAL/MOL
REMARK 923 INTER-LIGAND FREE ENERGY PREDICTED BY IDOCK:   -4.78 KCAL/MOL
REMARK 924 INTRA-LIGAND FREE ENERGY PREDICTED BY IDOCK:   -0.29 KCAL/MOL
REMARK 927      BINDING AFFINITY PREDICTED BY RF-SCORE:    0.00 PKD
ROOT
HETATM    1  C   UNL     1     -10.216  16.657  68.178  1.00  0.00    -0.280 C  
HETATM    2  O   UNL     1     -10.881  15.488  67.710  1.00  0.00    -0.292 OA 
HETATM    3  C   UNL     1     -10.229  16.269  66.718  1.00  0.00    -0.280 C  
HETATM    4  C   UNL     1      -8.781  15.972  66.358  1.00  0.00    -0.327 C  
HETATM    5  C   UNL     1      -8.426  14.496  66.612  1.00  0.00    -0.006 C  
HETATM    6  C   UNL     1      -8.456  14.054  68.100  1.00  0.00    -0.172 C  
HETATM    7  C   UNL     1      -8.375  15.195  69.143  1.00  0.00    -0.221 C  
HETATM    8  N   UNL     1      -7.948  16.862  67.313  1.00  0.00    -0.168 N  
HETATM    9  C   UNL     1      -8.757  16.585  68.609  1.00  0.00    -0.244 C  
HETATM   10  C   UNL     1      -8.084  18.343  66.912  1.00  0.00    -0.245 C  
HETATM   11  C   UNL     1      -6.454  16.586  67.366  1.00  0.00    -0.166 C  
ENDROOT
BRANCH   6  12
HETATM   12  O   UNL     1      -9.663  13.314  68.393  1.00  0.00    -0.224 OA 
BRANCH  12  13
HETATM   13  C   UNL     1      -9.841  12.116  67.751  1.00  0.00    -0.199 C  
HETATM   14  C   UNL     1      -8.821  11.056  68.285  1.00  0.00    -0.144 C  
HETATM   15  C   UNL     1      -7.776  10.692  67.237  1.00  0.00    -0.108 A  
HETATM   16  O   UNL     1      -8.061  11.561  69.395  1.00  0.00    -0.357 OA 
HETATM   17  C   UNL     1      -9.627   9.862  68.788  1.00  0.00    -0.160 A  
HETATM   18  O   UNL     1     -10.740  11.931  66.939  1.00  0.00    -0.228 OA 
HETATM   19  C   UNL     1      -6.481  10.242  67.463  1.00  0.00    -0.066 A  
HETATM   20  C   UNL     1     -10.032   8.729  68.097  1.00  0.00    -0.206 A  
HETATM   21  H   UNL     1      -7.442  10.918  69.720  1.00  0.00     0.000 HD 
HETATM   22  C   UNL     1     -10.805   7.837  68.895  1.00  0.00    -0.022 A  
HETATM   23  C   UNL     1      -5.758   9.982  66.265  1.00  0.00    -0.059 A  
HETATM   24  C   UNL     1      -6.519  10.226  65.147  1.00  0.00    -0.119 A  
HETATM   25  C   UNL     1     -10.979   8.308  70.174  1.00  0.00    -0.222 A  
HETATM   26  S   UNL     1      -8.086  10.769  65.545  1.00  0.00    -0.024 SA 
HETATM   27  S   UNL     1     -10.247   9.835  70.400  1.00  0.00    -0.242 SA 
ENDBRANCH  12  13
ENDBRANCH   6  12
TORSDOF 2
ENDMDL
MODEL      116
REMARK 921   NORMALIZED FREE ENERGY PREDICTED BY IDOCK:   -3.66 KCAL/MOL
REMARK 922        TOTAL FREE ENERGY PREDICTED BY IDOCK:   -5.07 KCAL/MOL
REMARK 923 INTER-LIGAND FREE ENERGY PREDICTED BY IDOCK:   -4.47 KCAL/MOL
REMARK 924 INTRA-LIGAND FREE ENERGY PREDICTED BY IDOCK:   -0.60 KCAL/MOL
REMARK 927      BINDING AFFINITY PREDICTED BY RF-SCORE:    0.00 PKD
ROOT
HETATM    1  C   UNL     1     -10.157   6.822  72.057  1.00  0.00    -0.182 C  
HETATM    2  O   UNL     1      -9.430   7.914  71.503  1.00  0.00    -0.142 OA 
HETATM    3  C   UNL     1      -8.646   6.839  72.004  1.00  0.00    -0.122 C  
HETATM    4  C   UNL     1      -8.254   5.699  71.078  1.00  0.00    -0.121 C  
HETATM    5  C   UNL     1      -8.179   6.160  69.611  1.00  0.00    -0.116 C  
HETATM    6  C   UNL     1      -9.532   6.595  68.985  1.00  0.00    -0.131 C  
HETATM    7  C   UNL     1     -10.803   6.091  69.710  1.00  0.00    -0.433 C  
HETATM    8  N   UNL     1      -9.396   4.663  71.223  1.00  0.00    -0.139 N  
HETATM    9  C   UNL     1     -10.584   5.660  71.170  1.00  0.00    -0.245 C  
HETATM   10  C   UNL     1      -9.331   3.992  72.609  1.00  0.00    -0.118 C  
HETATM   11  C   UNL     1      -9.411   3.525  70.216  1.00  0.00    -0.183 C  
ENDROOT
BRANCH   6  12
HETATM   12  O   UNL     1      -9.633   8.036  68.929  1.00  0.00    -0.151 OA 
BRANCH  12  13
HETATM   13  C   UNL     1      -9.991   8.599  67.731  1.00  0.00    -0.190 C  
HETATM   14  C   UNL     1      -8.885   9.595  67.249  1.00  0.00    -0.132 C  
HETATM   15  C   UNL     1      -9.361  11.043  67.299  1.00  0.00    -0.156 A  
HETATM   16  O   UNL     1      -7.730   9.564  68.102  1.00  0.00    -0.083 OA 
HETATM   17  C   UNL     1      -8.441   9.145  65.860  1.00  0.00    -0.141 A  
HETATM   18  O   UNL     1     -11.004   8.271  67.126  1.00  0.00    -0.142 OA 
HETATM   19  C   UNL     1      -8.579  12.179  67.462  1.00  0.00    -0.171 A  
HETATM   20  C   UNL     1      -8.940   9.516  64.620  1.00  0.00    -0.266 A  
HETATM   21  H   UNL     1      -7.058  10.169  67.809  1.00  0.00     0.000 HD 
HETATM   22  C   UNL     1      -8.290   8.857  63.537  1.00  0.00    -0.168 A  
HETATM   23  C   UNL     1      -9.333  13.387  67.460  1.00  0.00    -0.218 A  
HETATM   24  C   UNL     1     -10.674  13.151  67.280  1.00  0.00    -0.254 A  
HETATM   25  C   UNL     1      -7.314   7.992  63.972  1.00  0.00    -0.097 A  
HETATM   26  S   UNL     1     -11.016  11.487  67.125  1.00  0.00    -0.301 SA 
HETATM   27  S   UNL     1      -7.209   7.948  65.676  1.00  0.00    -0.072 SA 
ENDBRANCH  12  13
ENDBRANCH   6  12
TORSDOF 2
ENDMDL
MODEL      117
REMARK 921   NORMALIZED FREE ENERGY PREDICTED BY IDOCK:   -3.65 KCAL/MOL
REMARK 922        TOTAL FREE ENERGY PREDICTED BY IDOCK:   -5.06 KCAL/MOL
REMARK 923 INTER-LIGAND FREE ENERGY PREDICTED BY IDOCK:   -4.04 KCAL/MOL
REMARK 924 INTRA-LIGAND FREE ENERGY PREDICTED BY IDOCK:   -1.02 KCAL/MOL
REMARK 927      BINDING AFFINITY PREDICTED BY RF-SCORE:    0.00 PKD
ROOT
HETATM    1  C   UNL     1      -9.128  10.446  68.978  1.00  0.00    -0.187 C  
HETATM    2  O   UNL     1     -10.207   9.689  69.517  1.00  0.00    -0.193 OA 
HETATM    3  C   UNL     1     -10.503  10.445  68.351  1.00  0.00    -0.189 C  
HETATM    4  C   UNL     1     -10.330   9.812  66.979  1.00  0.00    -0.239 C  
HETATM    5  C   UNL     1     -10.500   8.283  67.036  1.00  0.00    -0.384 C  
HETATM    6  C   UNL     1      -9.414   7.526  67.849  1.00  0.00    -0.141 C  
HETATM    7  C   UNL     1      -8.095   8.299  68.094  1.00  0.00    -0.124 C  
HETATM    8  N   UNL     1      -8.872  10.142  66.575  1.00  0.00    -0.139 N  
HETATM    9  C   UNL     1      -8.204   9.825  67.939  1.00  0.00    -0.113 C  
HETATM   10  C   UNL     1      -8.737  11.644  66.256  1.00  0.00    -0.136 C  
HETATM   11  C   UNL     1      -8.325   9.414  65.358  1.00  0.00    -0.137 C  
ENDROOT
BRANCH   6  12
HETATM   12  O   UNL     1      -9.916   7.148  69.151  1.00  0.00    -0.162 OA 
BRANCH  12  13
HETATM   13  C   UNL     1      -9.144   6.301  69.904  1.00  0.00    -0.144 C  
HETATM   14  C   UNL     1      -9.058   6.814  71.380  1.00  0.00    -0.142 C  
HETATM   15  C   UNL     1      -7.660   7.309  71.730  1.00  0.00    -0.086 A  
HETATM   16  O   UNL     1      -9.911   7.949  71.601  1.00  0.00    -0.174 OA 
HETATM   17  C   UNL     1      -9.553   5.687  72.283  1.00  0.00    -0.151 A  
HETATM   18  O   UNL     1      -8.679   5.261  69.456  1.00  0.00    -0.102 OA 
HETATM   19  C   UNL     1      -7.321   8.267  72.678  1.00  0.00    -0.141 A  
HETATM   20  C   UNL     1      -8.830   4.664  72.878  1.00  0.00    -0.118 A  
HETATM   21  H   UNL     1      -9.859   8.260  72.497  1.00  0.00     0.000 HD 
HETATM   22  C   UNL     1      -9.645   3.771  73.632  1.00  0.00    -0.131 A  
HETATM   23  C   UNL     1      -5.919   8.500  72.767  1.00  0.00    -0.075 A  
HETATM   24  C   UNL     1      -5.214   7.705  71.896  1.00  0.00    -0.035 A  
HETATM   25  C   UNL     1     -10.973   4.126  73.591  1.00  0.00    -0.267 A  
HETATM   26  S   UNL     1      -6.237   6.696  70.977  1.00  0.00    -0.041 SA 
HETATM   27  S   UNL     1     -11.238   5.505  72.619  1.00  0.00    -0.285 SA 
ENDBRANCH  12  13
ENDBRANCH   6  12
TORSDOF 2
ENDMDL
MODEL      118
REMARK 921   NORMALIZED FREE ENERGY PREDICTED BY IDOCK:   -3.62 KCAL/MOL
REMARK 922        TOTAL FREE ENERGY PREDICTED BY IDOCK:   -5.03 KCAL/MOL
REMARK 923 INTER-LIGAND FREE ENERGY PREDICTED BY IDOCK:   -4.53 KCAL/MOL
REMARK 924 INTRA-LIGAND FREE ENERGY PREDICTED BY IDOCK:   -0.50 KCAL/MOL
REMARK 927      BINDING AFFINITY PREDICTED BY RF-SCORE:    0.00 PKD
ROOT
HETATM    1  C   UNL     1      -6.364  16.724  66.899  1.00  0.00    -0.194 C  
HETATM    2  O   UNL     1      -5.608  15.564  67.232  1.00  0.00    -0.338 OA 
HETATM    3  C   UNL     1      -5.892  16.449  68.308  1.00  0.00    -0.108 C  
HETATM    4  C   UNL     1      -7.155  16.250  69.133  1.00  0.00    -0.214 C  
HETATM    5  C   UNL     1      -7.602  14.777  69.136  1.00  0.00    -0.151 C  
HETATM    6  C   UNL     1      -8.059  14.221  67.760  1.00  0.00    -0.170 C  
HETATM    7  C   UNL     1      -8.446  15.281  66.700  1.00  0.00    -0.264 C  
HETATM    8  N   UNL     1      -8.231  17.102  68.416  1.00  0.00    -0.244 N  
HETATM    9  C   UNL     1      -7.885  16.689  66.961  1.00  0.00    -0.198 C  
HETATM   10  C   UNL     1      -7.944  18.602  68.622  1.00  0.00    -0.327 C  
HETATM   11  C   UNL     1      -9.669  16.895  68.864  1.00  0.00    -0.256 C  
ENDROOT
BRANCH   6  12
HETATM   12  O   UNL     1      -7.025  13.404  67.165  1.00  0.00    -0.086 OA 
BRANCH  12  13
HETATM   13  C   UNL     1      -6.874  12.129  67.645  1.00  0.00    -0.119 C  
HETATM   14  C   UNL     1      -7.806  11.143  66.866  1.00  0.00    -0.152 C  
HETATM   15  C   UNL     1      -8.936  10.614  67.742  1.00  0.00    -0.140 A  
HETATM   16  O   UNL     1      -8.470  11.791  65.769  1.00  0.00    -0.388 OA 
HETATM   17  C   UNL     1      -6.921  10.046  66.280  1.00  0.00    -0.104 A  
HETATM   18  O   UNL     1      -6.052  11.842  68.506  1.00  0.00    -0.049 OA 
HETATM   19  C   UNL     1     -10.189  10.182  67.326  1.00  0.00    -0.273 A  
HETATM   20  C   UNL     1      -6.551   8.832  66.838  1.00  0.00    -0.061 A  
HETATM   21  H   UNL     1      -9.037  11.193  65.296  1.00  0.00     0.000 HD 
HETATM   22  C   UNL     1      -5.679   8.076  66.002  1.00  0.00    -0.037 A  
HETATM   23  C   UNL     1     -11.016   9.740  68.398  1.00  0.00    -0.200 A  
HETATM   24  C   UNL     1     -10.374   9.831  69.609  1.00  0.00    -0.238 A  
HETATM   25  C   UNL     1      -5.397   8.731  64.827  1.00  0.00    -0.039 A  
HETATM   26  S   UNL     1      -8.792  10.450  69.450  1.00  0.00    -0.072 SA 
HETATM   27  S   UNL     1      -6.148  10.262  64.750  1.00  0.00    -0.109 SA 
ENDBRANCH  12  13
ENDBRANCH   6  12
TORSDOF 2
ENDMDL
MODEL      119
REMARK 921   NORMALIZED FREE ENERGY PREDICTED BY IDOCK:   -3.49 KCAL/MOL
REMARK 922        TOTAL FREE ENERGY PREDICTED BY IDOCK:   -4.88 KCAL/MOL
REMARK 923 INTER-LIGAND FREE ENERGY PREDICTED BY IDOCK:   -4.74 KCAL/MOL
REMARK 924 INTRA-LIGAND FREE ENERGY PREDICTED BY IDOCK:   -0.14 KCAL/MOL
REMARK 927      BINDING AFFINITY PREDICTED BY RF-SCORE:    0.00 PKD
ROOT
HETATM    1  C   UNL     1      -9.559   5.846  67.242  1.00  0.00    -0.116 C  
HETATM    2  O   UNL     1     -10.689   6.614  66.844  1.00  0.00    -0.306 OA 
HETATM    3  C   UNL     1     -10.875   5.784  67.983  1.00  0.00    -0.161 C  
HETATM    4  C   UNL     1     -10.592   6.338  69.371  1.00  0.00    -0.271 C  
HETATM    5  C   UNL     1     -10.786   7.864  69.422  1.00  0.00    -0.174 C  
HETATM    6  C   UNL     1      -9.784   8.687  68.567  1.00  0.00    -0.163 C  
HETATM    7  C   UNL     1      -8.481   7.954  68.165  1.00  0.00    -0.124 C  
HETATM    8  N   UNL     1      -9.100   6.010  69.629  1.00  0.00    -0.134 N  
HETATM    9  C   UNL     1      -8.556   6.420  68.235  1.00  0.00    -0.114 C  
HETATM   10  C   UNL     1      -8.920   4.494  69.842  1.00  0.00    -0.094 C  
HETATM   11  C   UNL     1      -8.460   6.673  70.837  1.00  0.00    -0.133 C  
ENDROOT
BRANCH   6  12
HETATM   12  O   UNL     1     -10.401   9.134  67.339  1.00  0.00    -0.229 OA 
BRANCH  12  13
HETATM   13  C   UNL     1      -9.771  10.132  66.642  1.00  0.00    -0.192 C  
HETATM   14  C   UNL     1     -10.044  11.518  67.315  1.00  0.00    -0.199 C  
HETATM   15  C   UNL     1     -10.936  12.404  66.453  1.00  0.00    -0.276 A  
HETATM   16  O   UNL     1     -10.760  11.379  68.553  1.00  0.00    -0.182 OA 
HETATM   17  C   UNL     1      -8.689  12.142  67.637  1.00  0.00    -0.172 A  
HETATM   18  O   UNL     1      -9.043   9.908  65.683  1.00  0.00    -0.156 OA 
HETATM   19  C   UNL     1     -11.791  13.410  66.885  1.00  0.00    -0.453 A  
HETATM   20  C   UNL     1      -7.904  12.977  66.856  1.00  0.00     0.137 A  
HETATM   21  H   UNL     1     -10.926  12.220  68.961  1.00  0.00     0.000 HD 
HETATM   22  C   UNL     1      -6.676  13.336  67.483  1.00  0.00    -0.156 A  
HETATM   23  C   UNL     1     -12.483  14.058  65.823  1.00  0.00    -0.523 A  
HETATM   24  C   UNL     1     -12.131  13.544  64.598  1.00  0.00    -0.409 A  
HETATM   25  C   UNL     1      -6.547  12.763  68.726  1.00  0.00    -0.090 A  
HETATM   26  S   UNL     1     -10.985  12.288  64.735  1.00  0.00    -0.318 SA 
HETATM   27  S   UNL     1      -7.879  11.770  69.117  1.00  0.00     0.270 SA 
ENDBRANCH  12  13
ENDBRANCH   6  12
TORSDOF 2
ENDMDL
MODEL      120
REMARK 921   NORMALIZED FREE ENERGY PREDICTED BY IDOCK:   -3.37 KCAL/MOL
REMARK 922        TOTAL FREE ENERGY PREDICTED BY IDOCK:   -4.75 KCAL/MOL
REMARK 923 INTER-LIGAND FREE ENERGY PREDICTED BY IDOCK:   -4.32 KCAL/MOL
REMARK 924 INTRA-LIGAND FREE ENERGY PREDICTED BY IDOCK:   -0.43 KCAL/MOL
REMARK 927      BINDING AFFINITY PREDICTED BY RF-SCORE:    0.00 PKD
ROOT
HETATM    1  C   UNL     1      -7.221  15.188  68.546  1.00  0.00    -0.118 C  
HETATM    2  O   UNL     1      -7.598  14.432  69.692  1.00  0.00     0.001 OA 
HETATM    3  C   UNL     1      -8.546  15.392  69.244  1.00  0.00    -0.252 C  
HETATM    4  C   UNL     1      -9.609  14.984  68.235  1.00  0.00    -0.210 C  
HETATM    5  C   UNL     1      -9.937  13.484  68.333  1.00  0.00    -0.232 C  
HETATM    6  C   UNL     1      -8.779  12.526  67.943  1.00  0.00    -0.180 C  
HETATM    7  C   UNL     1      -7.648  13.150  67.090  1.00  0.00    -0.008 C  
HETATM    8  N   UNL     1      -8.970  15.271  66.853  1.00  0.00    -0.231 N  
HETATM    9  C   UNL     1      -7.565  14.684  67.151  1.00  0.00    -0.044 C  
HETATM   10  C   UNL     1      -8.869  16.791  66.621  1.00  0.00    -0.255 C  
HETATM   11  C   UNL     1      -9.702  14.719  65.641  1.00  0.00    -0.278 C  
ENDROOT
BRANCH   6  12
HETATM   12  O   UNL     1      -8.150  11.973  69.121  1.00  0.00     0.131 OA 
BRANCH  12  13
HETATM   13  C   UNL     1      -7.781  10.654  69.080  1.00  0.00    -0.130 C  
HETATM   14  C   UNL     1      -8.902   9.757  69.702  1.00  0.00    -0.211 C  
HETATM   15  C   UNL     1      -8.467   9.137  71.025  1.00  0.00    -0.165 A  
HETATM   16  O   UNL     1     -10.075  10.520  70.027  1.00  0.00    -0.427 OA 
HETATM   17  C   UNL     1      -9.302   8.730  68.647  1.00  0.00    -0.141 A  
HETATM   18  O   UNL     1      -6.745  10.276  68.546  1.00  0.00    -0.056 OA 
HETATM   19  C   UNL     1      -9.284   8.752  72.081  1.00  0.00    -0.248 A  
HETATM   20  C   UNL     1      -8.785   7.462  68.422  1.00  0.00    -0.123 A  
HETATM   21  H   UNL     1     -10.756   9.976  70.406  1.00  0.00     0.000 HD 
HETATM   22  C   UNL     1      -9.392   6.801  67.316  1.00  0.00    -0.148 A  
HETATM   23  C   UNL     1      -8.563   8.198  73.177  1.00  0.00    -0.299 A  
HETATM   24  C   UNL     1      -7.212   8.157  72.931  1.00  0.00    -0.111 A  
HETATM   25  C   UNL     1     -10.354   7.579  66.715  1.00  0.00    -0.262 A  
HETATM   26  S   UNL     1      -6.821   8.790  71.396  1.00  0.00    -0.079 SA 
HETATM   27  S   UNL     1     -10.496   9.109  67.458  1.00  0.00    -0.249 SA 
ENDBRANCH  12  13
ENDBRANCH   6  12
TORSDOF 2
ENDMDL
MODEL      121
REMARK 921   NORMALIZED FREE ENERGY PREDICTED BY IDOCK:   -3.37 KCAL/MOL
REMARK 922        TOTAL FREE ENERGY PREDICTED BY IDOCK:   -4.75 KCAL/MOL
REMARK 923 INTER-LIGAND FREE ENERGY PREDICTED BY IDOCK:   -3.66 KCAL/MOL
REMARK 924 INTRA-LIGAND FREE ENERGY PREDICTED BY IDOCK:   -1.09 KCAL/MOL
REMARK 927      BINDING AFFINITY PREDICTED BY RF-SCORE:    0.00 PKD
ROOT
HETATM    1  C   UNL     1      -8.473   5.586  68.715  1.00  0.00    -0.101 C  
HETATM    2  O   UNL     1      -7.323   6.362  68.395  1.00  0.00    -0.082 OA 
HETATM    3  C   UNL     1      -7.321   5.024  67.915  1.00  0.00    -0.075 C  
HETATM    4  C   UNL     1      -7.886   4.718  66.537  1.00  0.00    -0.099 C  
HETATM    5  C   UNL     1      -7.775   5.931  65.597  1.00  0.00    -0.097 C  
HETATM    6  C   UNL     1      -8.632   7.162  66.000  1.00  0.00    -0.152 C  
HETATM    7  C   UNL     1      -9.800   6.878  66.975  1.00  0.00    -0.228 C  
HETATM    8  N   UNL     1      -9.384   4.409  66.786  1.00  0.00    -0.149 N  
HETATM    9  C   UNL     1      -9.671   5.571  67.773  1.00  0.00    -0.130 C  
HETATM   10  C   UNL     1      -9.533   3.055  67.505  1.00  0.00    -0.123 C  
HETATM   11  C   UNL     1     -10.271   4.320  65.555  1.00  0.00    -0.207 C  
ENDROOT
BRANCH   6  12
HETATM   12  O   UNL     1      -7.813   8.178  66.623  1.00  0.00    -0.092 OA 
BRANCH  12  13
HETATM   13  C   UNL     1      -8.313   9.453  66.665  1.00  0.00    -0.119 C  
HETATM   14  C   UNL     1      -8.234  10.019  68.122  1.00  0.00    -0.109 C  
HETATM   15  C   UNL     1      -9.615  10.181  68.746  1.00  0.00    -0.170 A  
HETATM   16  O   UNL     1      -7.540   9.123  69.005  1.00  0.00    -0.073 OA 
HETATM   17  C   UNL     1      -7.432  11.316  68.064  1.00  0.00    -0.095 A  
HETATM   18  O   UNL     1      -8.680  10.050  65.661  1.00  0.00    -0.144 OA 
HETATM   19  C   UNL     1      -9.938  10.138  70.097  1.00  0.00    -0.154 A  
HETATM   20  C   UNL     1      -7.883  12.613  67.872  1.00  0.00    -0.154 A  
HETATM   21  H   UNL     1      -7.493   9.466  69.890  1.00  0.00     0.000 HD 
HETATM   22  C   UNL     1      -6.829  13.571  67.844  1.00  0.00    -0.151 A  
HETATM   23  C   UNL     1     -11.325  10.332  70.351  1.00  0.00    -0.410 A  
HETATM   24  C   UNL     1     -12.033  10.534  69.191  1.00  0.00    -0.077 A  
HETATM   25  C   UNL     1      -5.596  12.986  68.009  1.00  0.00    -0.106 A  
HETATM   26  S   UNL     1     -11.031  10.480  67.811  1.00  0.00    -0.318 SA 
HETATM   27  S   UNL     1      -5.707  11.289  68.159  1.00  0.00    -0.045 SA 
ENDBRANCH  12  13
ENDBRANCH   6  12
TORSDOF 2
ENDMDL
MODEL      122
REMARK 921   NORMALIZED FREE ENERGY PREDICTED BY IDOCK:   -3.34 KCAL/MOL
REMARK 922        TOTAL FREE ENERGY PREDICTED BY IDOCK:   -4.72 KCAL/MOL
REMARK 923 INTER-LIGAND FREE ENERGY PREDICTED BY IDOCK:   -4.70 KCAL/MOL
REMARK 924 INTRA-LIGAND FREE ENERGY PREDICTED BY IDOCK:   -0.02 KCAL/MOL
REMARK 927      BINDING AFFINITY PREDICTED BY RF-SCORE:    0.00 PKD
ROOT
HETATM    1  C   UNL     1     -10.351   5.758  70.031  1.00  0.00    -0.259 C  
HETATM    2  O   UNL     1     -11.041   6.259  68.891  1.00  0.00    -0.336 OA 
HETATM    3  C   UNL     1     -11.767   6.280  70.113  1.00  0.00    -0.203 C  
HETATM    4  C   UNL     1     -11.700   7.509  71.006  1.00  0.00    -0.292 C  
HETATM    5  C   UNL     1     -11.418   8.785  70.193  1.00  0.00    -0.027 C  
HETATM    6  C   UNL     1     -10.023   8.841  69.512  1.00  0.00    -0.195 C  
HETATM    7  C   UNL     1      -8.954   7.880  70.088  1.00  0.00    -0.151 C  
HETATM    8  N   UNL     1     -10.507   7.242  71.956  1.00  0.00    -0.199 N  
HETATM    9  C   UNL     1      -9.517   6.697  70.892  1.00  0.00    -0.164 C  
HETATM   10  C   UNL     1     -10.867   6.131  72.961  1.00  0.00    -0.257 C  
HETATM   11  C   UNL     1     -10.032   8.417  72.795  1.00  0.00    -0.215 C  
ENDROOT
BRANCH   6  12
HETATM   12  O   UNL     1     -10.127   8.543  68.101  1.00  0.00    -0.185 OA 
BRANCH  12  13
HETATM   13  C   UNL     1      -9.202   9.115  67.266  1.00  0.00    -0.133 C  
HETATM   14  C   UNL     1      -9.512  10.636  67.074  1.00  0.00    -0.164 C  
HETATM   15  C   UNL     1      -9.985  10.947  65.658  1.00  0.00    -0.251 A  
HETATM   16  O   UNL     1     -10.588  11.072  67.920  1.00  0.00    -0.184 OA 
HETATM   17  C   UNL     1      -8.263  11.410  67.486  1.00  0.00    -0.130 A  
HETATM   18  O   UNL     1      -8.242   8.496  66.824  1.00  0.00    -0.103 OA 
HETATM   19  C   UNL     1     -10.813  11.989  65.259  1.00  0.00    -0.340 A  
HETATM   20  C   UNL     1      -7.185  11.806  66.709  1.00  0.00    -0.050 A  
HETATM   21  H   UNL     1     -10.777  11.996  67.803  1.00  0.00     0.000 HD 
HETATM   22  C   UNL     1      -6.181  12.489  67.455  1.00  0.00    -0.155 A  
HETATM   23  C   UNL     1     -11.061  12.006  63.857  1.00  0.00    -0.474 A  
HETATM   24  C   UNL     1     -10.406  10.986  63.211  1.00  0.00    -0.255 A  
HETATM   25  C   UNL     1      -6.510  12.594  68.786  1.00  0.00    -0.085 A  
HETATM   26  S   UNL     1      -9.509  10.015  64.290  1.00  0.00    -0.217 SA 
HETATM   27  S   UNL     1      -8.002  11.842  69.139  1.00  0.00     0.325 SA 
ENDBRANCH  12  13
ENDBRANCH   6  12
TORSDOF 2
ENDMDL
MODEL      123
REMARK 921   NORMALIZED FREE ENERGY PREDICTED BY IDOCK:   -3.30 KCAL/MOL
REMARK 922        TOTAL FREE ENERGY PREDICTED BY IDOCK:   -4.67 KCAL/MOL
REMARK 923 INTER-LIGAND FREE ENERGY PREDICTED BY IDOCK:   -4.07 KCAL/MOL
REMARK 924 INTRA-LIGAND FREE ENERGY PREDICTED BY IDOCK:   -0.60 KCAL/MOL
REMARK 927      BINDING AFFINITY PREDICTED BY RF-SCORE:    0.00 PKD
ROOT
HETATM    1  C   UNL     1     -10.104   9.421  68.465  1.00  0.00    -0.187 C  
HETATM    2  O   UNL     1     -10.903   8.658  67.566  1.00  0.00    -0.202 OA 
HETATM    3  C   UNL     1     -11.105  10.065  67.533  1.00  0.00    -0.120 C  
HETATM    4  C   UNL     1     -10.286  10.920  66.577  1.00  0.00    -0.247 C  
HETATM    5  C   UNL     1      -9.846  10.120  65.338  1.00  0.00    -0.375 C  
HETATM    6  C   UNL     1      -8.853   8.959  65.619  1.00  0.00    -0.191 C  
HETATM    7  C   UNL     1      -8.090   9.035  66.964  1.00  0.00    -0.106 C  
HETATM    8  N   UNL     1      -9.031  11.325  67.388  1.00  0.00    -0.143 N  
HETATM    9  C   UNL     1      -8.741   9.939  68.023  1.00  0.00    -0.125 C  
HETATM   10  C   UNL     1      -9.412  12.339  68.484  1.00  0.00    -0.112 C  
HETATM   11  C   UNL     1      -7.898  11.971  66.607  1.00  0.00     0.040 C  
ENDROOT
BRANCH   6  12
HETATM   12  O   UNL     1      -9.534   7.684  65.603  1.00  0.00     0.134 OA 
BRANCH  12  13
HETATM   13  C   UNL     1      -8.822   6.583  66.005  1.00  0.00    -0.143 C  
HETATM   14  C   UNL     1      -9.769   5.550  66.701  1.00  0.00    -0.159 C  
HETATM   15  C   UNL     1      -9.489   5.436  68.195  1.00  0.00    -0.118 A  
HETATM   16  O   UNL     1     -11.146   5.949  66.620  1.00  0.00    -0.635 OA 
HETATM   17  C   UNL     1      -9.631   4.228  65.950  1.00  0.00    -0.191 A  
HETATM   18  O   UNL     1      -7.632   6.442  65.756  1.00  0.00    -0.080 OA 
HETATM   19  C   UNL     1     -10.384   5.072  69.193  1.00  0.00    -0.174 A  
HETATM   20  C   UNL     1      -8.754   3.179  66.183  1.00  0.00    -0.130 A  
HETATM   21  H   UNL     1     -11.721   5.322  67.042  1.00  0.00     0.000 HD 
HETATM   22  C   UNL     1      -8.898   2.114  65.248  1.00  0.00    -0.123 A  
HETATM   23  C   UNL     1      -9.804   5.057  70.492  1.00  0.00    -0.290 A  
HETATM   24  C   UNL     1      -8.473   5.395  70.461  1.00  0.00    -0.122 A  
HETATM   25  C   UNL     1      -9.875   2.375  64.316  1.00  0.00    -0.074 A  
HETATM   26  S   UNL     1      -7.936   5.735  68.878  1.00  0.00    -0.098 SA 
HETATM   27  S   UNL     1     -10.587   3.909  64.547  1.00  0.00    -0.098 SA 
ENDBRANCH  12  13
ENDBRANCH   6  12
TORSDOF 2
ENDMDL
MODEL      124
REMARK 921   NORMALIZED FREE ENERGY PREDICTED BY IDOCK:   -3.30 KCAL/MOL
REMARK 922        TOTAL FREE ENERGY PREDICTED BY IDOCK:   -4.67 KCAL/MOL
REMARK 923 INTER-LIGAND FREE ENERGY PREDICTED BY IDOCK:   -3.88 KCAL/MOL
REMARK 924 INTRA-LIGAND FREE ENERGY PREDICTED BY IDOCK:   -0.79 KCAL/MOL
REMARK 927      BINDING AFFINITY PREDICTED BY RF-SCORE:    0.00 PKD
ROOT
HETATM    1  C   UNL     1      -6.589   5.726  72.177  1.00  0.00    -0.062 C  
HETATM    2  O   UNL     1      -7.076   5.987  70.865  1.00  0.00    -0.065 OA 
HETATM    3  C   UNL     1      -7.292   4.670  71.355  1.00  0.00    -0.068 C  
HETATM    4  C   UNL     1      -8.574   4.349  72.108  1.00  0.00    -0.113 C  
HETATM    5  C   UNL     1      -9.730   5.268  71.676  1.00  0.00    -0.211 C  
HETATM    6  C   UNL     1      -9.550   6.769  72.030  1.00  0.00    -0.147 C  
HETATM    7  C   UNL     1      -8.512   7.081  73.136  1.00  0.00    -0.136 C  
HETATM    8  N   UNL     1      -8.237   4.627  73.594  1.00  0.00    -0.105 N  
HETATM    9  C   UNL     1      -7.482   5.967  73.386  1.00  0.00    -0.094 C  
HETATM   10  C   UNL     1      -7.269   3.553  74.128  1.00  0.00    -0.052 C  
HETATM   11  C   UNL     1      -9.408   4.643  74.563  1.00  0.00    -0.119 C  
ENDROOT
BRANCH   6  12
HETATM   12  O   UNL     1      -9.150   7.528  70.866  1.00  0.00    -0.151 OA 
BRANCH  12  13
HETATM   13  C   UNL     1      -9.980   7.495  69.775  1.00  0.00    -0.186 C  
HETATM   14  C   UNL     1      -9.142   7.532  68.454  1.00  0.00    -0.133 C  
HETATM   15  C   UNL     1      -9.320   8.846  67.703  1.00  0.00    -0.136 A  
HETATM   16  O   UNL     1      -7.731   7.452  68.716  1.00  0.00    -0.113 OA 
HETATM   17  C   UNL     1      -9.527   6.302  67.637  1.00  0.00    -0.115 A  
HETATM   18  O   UNL     1     -11.194   7.372  69.875  1.00  0.00    -0.228 OA 
HETATM   19  C   UNL     1      -8.412   9.452  66.844  1.00  0.00    -0.128 A  
HETATM   20  C   UNL     1     -10.524   6.165  66.684  1.00  0.00    -0.267 A  
HETATM   21  H   UNL     1      -7.222   7.474  67.914  1.00  0.00     0.000 HD 
HETATM   22  C   UNL     1     -10.609   4.846  66.151  1.00  0.00    -0.322 A  
HETATM   23  C   UNL     1      -8.886  10.677  66.295  1.00  0.00    -0.172 A  
HETATM   24  C   UNL     1     -10.153  10.976  66.735  1.00  0.00    -0.220 A  
HETATM   25  C   UNL     1      -9.679   4.004  66.712  1.00  0.00    -0.190 A  
HETATM   26  S   UNL     1     -10.756   9.792  67.805  1.00  0.00    -0.243 SA 
HETATM   27  S   UNL     1      -8.737   4.789  67.900  1.00  0.00    -0.104 SA 
ENDBRANCH  12  13
ENDBRANCH   6  12
TORSDOF 2
ENDMDL
MODEL      125
REMARK 921   NORMALIZED FREE ENERGY PREDICTED BY IDOCK:   -3.29 KCAL/MOL
REMARK 922        TOTAL FREE ENERGY PREDICTED BY IDOCK:   -4.65 KCAL/MOL
REMARK 923 INTER-LIGAND FREE ENERGY PREDICTED BY IDOCK:   -4.16 KCAL/MOL
REMARK 924 INTRA-LIGAND FREE ENERGY PREDICTED BY IDOCK:   -0.49 KCAL/MOL
REMARK 927      BINDING AFFINITY PREDICTED BY RF-SCORE:    0.00 PKD
ROOT
HETATM    1  C   UNL     1      -9.835  10.217  65.551  1.00  0.00    -0.298 C  
HETATM    2  O   UNL     1      -9.145   9.203  64.828  1.00  0.00    -0.200 OA 
HETATM    3  C   UNL     1      -8.331  10.082  65.594  1.00  0.00    -0.145 C  
HETATM    4  C   UNL     1      -7.991   9.727  67.034  1.00  0.00    -0.105 C  
HETATM    5  C   UNL     1      -8.002   8.205  67.260  1.00  0.00    -0.113 C  
HETATM    6  C   UNL     1      -9.390   7.524  67.110  1.00  0.00    -0.142 C  
HETATM    7  C   UNL     1     -10.616   8.463  67.217  1.00  0.00    -0.328 C  
HETATM    8  N   UNL     1      -9.121  10.371  67.875  1.00  0.00    -0.131 N  
HETATM    9  C   UNL     1     -10.312   9.950  66.973  1.00  0.00    -0.239 C  
HETATM   10  C   UNL     1      -8.974  11.905  67.875  1.00  0.00    -0.179 C  
HETATM   11  C   UNL     1      -9.192   9.965  69.338  1.00  0.00    -0.214 C  
ENDROOT
BRANCH   6  12
HETATM   12  O   UNL     1      -9.497   6.850  65.836  1.00  0.00     0.005 OA 
BRANCH  12  13
HETATM   13  C   UNL     1      -8.681   5.770  65.622  1.00  0.00    -0.149 C  
HETATM   14  C   UNL     1      -9.418   4.447  66.014  1.00  0.00    -0.173 C  
HETATM   15  C   UNL     1      -8.812   3.803  67.256  1.00  0.00    -0.123 A  
HETATM   16  O   UNL     1     -10.791   4.684  66.362  1.00  0.00    -0.446 OA 
HETATM   17  C   UNL     1      -9.407   3.539  64.787  1.00  0.00    -0.152 A  
HETATM   18  O   UNL     1      -7.570   5.874  65.116  1.00  0.00    -0.079 OA 
HETATM   19  C   UNL     1      -9.454   2.984  68.176  1.00  0.00    -0.219 A  
HETATM   20  C   UNL     1      -8.469   2.589  64.411  1.00  0.00    -0.087 A  
HETATM   21  H   UNL     1     -11.239   3.881  66.600  1.00  0.00     0.000 HD 
HETATM   22  C   UNL     1      -8.781   1.955  63.174  1.00  0.00    -0.083 A  
HETATM   23  C   UNL     1      -8.602   2.539  69.226  1.00  0.00    -0.117 A  
HETATM   24  C   UNL     1      -7.321   3.016  69.079  1.00  0.00    -0.048 A  
HETATM   25  C   UNL     1      -9.947   2.438  62.628  1.00  0.00    -0.089 A  
HETATM   26  S   UNL     1      -7.157   3.995  67.693  1.00  0.00    -0.060 SA 
HETATM   27  S   UNL     1     -10.639   3.673  63.583  1.00  0.00    -0.246 SA 
ENDBRANCH  12  13
ENDBRANCH   6  12
TORSDOF 2
ENDMDL
MODEL      126
REMARK 921   NORMALIZED FREE ENERGY PREDICTED BY IDOCK:   -3.29 KCAL/MOL
REMARK 922        TOTAL FREE ENERGY PREDICTED BY IDOCK:   -4.65 KCAL/MOL
REMARK 923 INTER-LIGAND FREE ENERGY PREDICTED BY IDOCK:   -4.18 KCAL/MOL
REMARK 924 INTRA-LIGAND FREE ENERGY PREDICTED BY IDOCK:   -0.47 KCAL/MOL
REMARK 927      BINDING AFFINITY PREDICTED BY RF-SCORE:    0.00 PKD
ROOT
HETATM    1  C   UNL     1     -10.851  14.822  66.362  1.00  0.00    -0.322 C  
HETATM    2  O   UNL     1      -9.825  14.072  65.718  1.00  0.00    -0.301 OA 
HETATM    3  C   UNL     1      -9.443  15.349  66.212  1.00  0.00    -0.309 C  
HETATM    4  C   UNL     1      -8.899  15.476  67.627  1.00  0.00    -0.179 C  
HETATM    5  C   UNL     1      -8.222  14.175  68.092  1.00  0.00    -0.149 C  
HETATM    6  C   UNL     1      -9.170  12.955  68.250  1.00  0.00    -0.187 C  
HETATM    7  C   UNL     1     -10.676  13.285  68.378  1.00  0.00    -0.273 C  
HETATM    8  N   UNL     1     -10.147  15.737  68.507  1.00  0.00    -0.212 N  
HETATM    9  C   UNL     1     -11.078  14.676  67.861  1.00  0.00    -0.291 C  
HETATM   10  C   UNL     1     -10.696  17.153  68.242  1.00  0.00    -0.363 C  
HETATM   11  C   UNL     1      -9.947  15.648  70.011  1.00  0.00    -0.155 C  
ENDROOT
BRANCH   6  12
HETATM   12  O   UNL     1      -9.040  12.054  67.127  1.00  0.00    -0.174 OA 
BRANCH  12  13
HETATM   13  C   UNL     1      -7.903  11.291  67.057  1.00  0.00    -0.150 C  
HETATM   14  C   UNL     1      -8.066   9.993  67.914  1.00  0.00    -0.109 C  
HETATM   15  C   UNL     1      -7.168  10.007  69.146  1.00  0.00    -0.076 A  
HETATM   16  O   UNL     1      -9.398   9.864  68.437  1.00  0.00    -0.132 OA 
HETATM   17  C   UNL     1      -7.820   8.803  66.991  1.00  0.00    -0.095 A  
HETATM   18  O   UNL     1      -6.953  11.590  66.343  1.00  0.00    -0.062 OA 
HETATM   19  C   UNL     1      -7.388   9.354  70.353  1.00  0.00    -0.124 A  
HETATM   20  C   UNL     1      -6.631   8.147  66.711  1.00  0.00    -0.057 A  
HETATM   21  H   UNL     1      -9.497   9.075  68.958  1.00  0.00     0.000 HD 
HETATM   22  C   UNL     1      -6.786   7.092  65.765  1.00  0.00    -0.052 A  
HETATM   23  C   UNL     1      -6.350   9.566  71.304  1.00  0.00    -0.020 A  
HETATM   24  C   UNL     1      -5.352  10.364  70.801  1.00  0.00    -0.079 A  
HETATM   25  C   UNL     1      -8.087   6.969  65.339  1.00  0.00    -0.133 A  
HETATM   26  S   UNL     1      -5.672  10.858  69.200  1.00  0.00    -0.041 SA 
HETATM   27  S   UNL     1      -9.106   8.142  66.046  1.00  0.00    -0.133 SA 
ENDBRANCH  12  13
ENDBRANCH   6  12
TORSDOF 2
ENDMDL
MODEL      127
REMARK 921   NORMALIZED FREE ENERGY PREDICTED BY IDOCK:   -3.28 KCAL/MOL
REMARK 922        TOTAL FREE ENERGY PREDICTED BY IDOCK:   -4.64 KCAL/MOL
REMARK 923 INTER-LIGAND FREE ENERGY PREDICTED BY IDOCK:   -4.29 KCAL/MOL
REMARK 924 INTRA-LIGAND FREE ENERGY PREDICTED BY IDOCK:   -0.35 KCAL/MOL
REMARK 927      BINDING AFFINITY PREDICTED BY RF-SCORE:    0.00 PKD
ROOT
HETATM    1  C   UNL     1      -8.687   7.632  70.942  1.00  0.00    -0.138 C  
HETATM    2  O   UNL     1      -8.470   7.042  69.664  1.00  0.00    -0.131 OA 
HETATM    3  C   UNL     1      -9.776   6.888  70.204  1.00  0.00    -0.171 C  
HETATM    4  C   UNL     1     -10.845   7.925  69.893  1.00  0.00    -0.221 C  
HETATM    5  C   UNL     1     -10.586   8.618  68.544  1.00  0.00    -0.162 C  
HETATM    6  C   UNL     1      -9.304   9.492  68.484  1.00  0.00    -0.137 C  
HETATM    7  C   UNL     1      -8.721   9.927  69.850  1.00  0.00    -0.225 C  
HETATM    8  N   UNL     1     -10.721   8.970  71.030  1.00  0.00    -0.245 N  
HETATM    9  C   UNL     1      -9.173   9.072  71.046  1.00  0.00    -0.264 C  
HETATM   10  C   UNL     1     -11.225   8.373  72.357  1.00  0.00    -0.368 C  
HETATM   11  C   UNL     1     -11.492  10.267  70.844  1.00  0.00    -0.339 C  
ENDROOT
BRANCH   6  12
HETATM   12  O   UNL     1      -8.243   8.801  67.785  1.00  0.00    -0.110 OA 
BRANCH  12  13
HETATM   13  C   UNL     1      -7.781   9.364  66.624  1.00  0.00    -0.097 C  
HETATM   14  C   UNL     1      -8.474   8.704  65.386  1.00  0.00    -0.172 C  
HETATM   15  C   UNL     1      -7.501   7.861  64.570  1.00  0.00    -0.099 A  
HETATM   16  O   UNL     1      -9.506   7.785  65.781  1.00  0.00    -0.409 OA 
HETATM   17  C   UNL     1      -9.137   9.821  64.586  1.00  0.00    -0.245 A  
HETATM   18  O   UNL     1      -6.997  10.305  66.615  1.00  0.00    -0.094 OA 
HETATM   19  C   UNL     1      -7.802   6.762  63.775  1.00  0.00    -0.107 A  
HETATM   20  C   UNL     1      -8.616  10.581  63.550  1.00  0.00    -0.165 A  
HETATM   21  H   UNL     1      -9.927   7.384  65.030  1.00  0.00     0.000 HD 
HETATM   22  C   UNL     1      -9.528  11.562  63.065  1.00  0.00    -0.346 A  
HETATM   23  C   UNL     1      -6.662   6.198  63.137  1.00  0.00    -0.040 A  
HETATM   24  C   UNL     1      -5.513   6.886  63.444  1.00  0.00    -0.032 A  
HETATM   25  C   UNL     1     -10.723  11.535  63.743  1.00  0.00    -0.408 A  
HETATM   26  S   UNL     1      -5.812   8.193  64.499  1.00  0.00    -0.052 SA 
HETATM   27  S   UNL     1     -10.730  10.360  64.982  1.00  0.00     0.485 SA 
ENDBRANCH  12  13
ENDBRANCH   6  12
TORSDOF 2
ENDMDL
MODEL      128
REMARK 921   NORMALIZED FREE ENERGY PREDICTED BY IDOCK:   -3.25 KCAL/MOL
REMARK 922        TOTAL FREE ENERGY PREDICTED BY IDOCK:   -4.61 KCAL/MOL
REMARK 923 INTER-LIGAND FREE ENERGY PREDICTED BY IDOCK:   -3.98 KCAL/MOL
REMARK 924 INTRA-LIGAND FREE ENERGY PREDICTED BY IDOCK:   -0.63 KCAL/MOL
REMARK 927      BINDING AFFINITY PREDICTED BY RF-SCORE:    0.00 PKD
ROOT
HETATM    1  C   UNL     1      -7.201   8.938  69.050  1.00  0.00    -0.072 C  
HETATM    2  O   UNL     1      -7.090  10.315  69.397  1.00  0.00    -0.070 OA 
HETATM    3  C   UNL     1      -5.896   9.693  68.940  1.00  0.00    -0.039 C  
HETATM    4  C   UNL     1      -5.557   9.714  67.458  1.00  0.00    -0.036 C  
HETATM    5  C   UNL     1      -6.171  10.936  66.754  1.00  0.00    -0.093 C  
HETATM    6  C   UNL     1      -7.723  10.959  66.700  1.00  0.00    -0.146 C  
HETATM    7  C   UNL     1      -8.424   9.597  66.923  1.00  0.00    -0.121 C  
HETATM    8  N   UNL     1      -6.203   8.426  66.888  1.00  0.00    -0.054 N  
HETATM    9  C   UNL     1      -7.563   8.536  67.627  1.00  0.00    -0.098 C  
HETATM   10  C   UNL     1      -5.433   7.185  67.379  1.00  0.00    -0.024 C  
HETATM   11  C   UNL     1      -6.253   8.306  65.374  1.00  0.00    -0.045 C  
ENDROOT
BRANCH   6  12
HETATM   12  O   UNL     1      -8.258  11.865  67.692  1.00  0.00    -0.133 OA 
BRANCH  12  13
HETATM   13  C   UNL     1      -8.869  13.007  67.240  1.00  0.00    -0.208 C  
HETATM   14  C   UNL     1     -10.423  12.875  67.361  1.00  0.00    -0.233 C  
HETATM   15  C   UNL     1     -11.095  12.785  65.996  1.00  0.00    -0.285 A  
HETATM   16  O   UNL     1     -10.805  11.665  68.034  1.00  0.00    -0.195 OA 
HETATM   17  C   UNL     1     -10.914  14.045  68.210  1.00  0.00    -0.255 A  
HETATM   18  O   UNL     1      -8.237  13.993  66.881  1.00  0.00    -0.110 OA 
HETATM   19  C   UNL     1     -12.301  12.164  65.692  1.00  0.00     0.149 A  
HETATM   20  C   UNL     1     -11.321  15.307  67.805  1.00  0.00    -0.331 A  
HETATM   21  H   UNL     1     -11.749  11.584  68.108  1.00  0.00     0.000 HD 
HETATM   22  C   UNL     1     -11.684  16.152  68.893  1.00  0.00    -0.250 A  
HETATM   23  C   UNL     1     -12.655  12.265  64.317  1.00  0.00    -0.470 A  
HETATM   24  C   UNL     1     -11.721  12.973  63.600  1.00  0.00    -0.490 A  
HETATM   25  C   UNL     1     -11.540  15.520  70.105  1.00  0.00    -0.337 A  
HETATM   26  S   UNL     1     -10.428  13.501  64.579  1.00  0.00    -0.320 SA 
HETATM   27  S   UNL     1     -10.937  13.932  69.934  1.00  0.00     0.286 SA 
ENDBRANCH  12  13
ENDBRANCH   6  12
TORSDOF 2
ENDMDL
MODEL      129
REMARK 921   NORMALIZED FREE ENERGY PREDICTED BY IDOCK:   -3.23 KCAL/MOL
REMARK 922        TOTAL FREE ENERGY PREDICTED BY IDOCK:   -4.59 KCAL/MOL
REMARK 923 INTER-LIGAND FREE ENERGY PREDICTED BY IDOCK:   -4.40 KCAL/MOL
REMARK 924 INTRA-LIGAND FREE ENERGY PREDICTED BY IDOCK:   -0.19 KCAL/MOL
REMARK 927      BINDING AFFINITY PREDICTED BY RF-SCORE:    0.00 PKD
ROOT
HETATM    1  C   UNL     1      -7.553   5.775  72.041  1.00  0.00    -0.101 C  
HETATM    2  O   UNL     1      -7.955   4.615  71.320  1.00  0.00    -0.083 OA 
HETATM    3  C   UNL     1      -8.633   4.847  72.548  1.00  0.00    -0.120 C  
HETATM    4  C   UNL     1      -9.912   5.670  72.557  1.00  0.00    -0.168 C  
HETATM    5  C   UNL     1     -10.652   5.582  71.211  1.00  0.00    -0.304 C  
HETATM    6  C   UNL     1      -9.906   6.211  70.003  1.00  0.00    -0.170 C  
HETATM    7  C   UNL     1      -8.787   7.222  70.355  1.00  0.00    -0.150 C  
HETATM    8  N   UNL     1      -9.439   7.128  72.779  1.00  0.00    -0.142 N  
HETATM    9  C   UNL     1      -8.244   7.108  71.789  1.00  0.00    -0.105 C  
HETATM   10  C   UNL     1      -8.929   7.307  74.221  1.00  0.00    -0.208 C  
HETATM   11  C   UNL     1     -10.481   8.216  72.574  1.00  0.00    -0.339 C  
ENDROOT
BRANCH   6  12
HETATM   12  O   UNL     1      -9.294   5.188  69.185  1.00  0.00    -0.111 OA 
BRANCH  12  13
HETATM   13  C   UNL     1      -8.643   5.593  68.049  1.00  0.00    -0.101 C  
HETATM   14  C   UNL     1      -9.661   5.767  66.873  1.00  0.00    -0.148 C  
HETATM   15  C   UNL     1      -9.470   4.708  65.793  1.00  0.00    -0.173 A  
HETATM   16  O   UNL     1     -11.018   5.595  67.313  1.00  0.00    -0.377 OA 
HETATM   17  C   UNL     1      -9.524   7.197  66.360  1.00  0.00    -0.123 A  
HETATM   18  O   UNL     1      -7.445   5.848  68.031  1.00  0.00    -0.082 OA 
HETATM   19  C   UNL     1     -10.433   4.214  64.922  1.00  0.00    -0.193 A  
HETATM   20  C   UNL     1      -8.698   7.691  65.362  1.00  0.00    -0.029 A  
HETATM   21  H   UNL     1     -11.636   5.700  66.600  1.00  0.00     0.000 HD 
HETATM   22  C   UNL     1      -8.823   9.099  65.181  1.00  0.00    -0.241 A  
HETATM   23  C   UNL     1      -9.928   3.231  64.023  1.00  0.00    -0.178 A  
HETATM   24  C   UNL     1      -8.587   3.005  64.216  1.00  0.00    -0.093 A  
HETATM   25  C   UNL     1      -9.736   9.651  66.048  1.00  0.00    -0.264 A  
HETATM   26  S   UNL     1      -7.950   3.964  65.475  1.00  0.00    -0.093 SA 
HETATM   27  S   UNL     1     -10.410   8.485  67.097  1.00  0.00    -0.302 SA 
ENDBRANCH  12  13
ENDBRANCH   6  12
TORSDOF 2
ENDMDL
MODEL      130
REMARK 921   NORMALIZED FREE ENERGY PREDICTED BY IDOCK:   -3.18 KCAL/MOL
REMARK 922        TOTAL FREE ENERGY PREDICTED BY IDOCK:   -4.53 KCAL/MOL
REMARK 923 INTER-LIGAND FREE ENERGY PREDICTED BY IDOCK:   -4.31 KCAL/MOL
REMARK 924 INTRA-LIGAND FREE ENERGY PREDICTED BY IDOCK:   -0.22 KCAL/MOL
REMARK 927      BINDING AFFINITY PREDICTED BY RF-SCORE:    0.00 PKD
ROOT
HETATM    1  C   UNL     1      -7.643   5.755  65.560  1.00  0.00    -0.083 C  
HETATM    2  O   UNL     1      -8.875   6.462  65.656  1.00  0.00    -0.141 OA 
HETATM    3  C   UNL     1      -8.958   5.141  65.140  1.00  0.00    -0.126 C  
HETATM    4  C   UNL     1      -9.190   3.975  66.090  1.00  0.00    -0.155 C  
HETATM    5  C   UNL     1      -9.950   4.417  67.353  1.00  0.00    -0.146 C  
HETATM    6  C   UNL     1      -9.183   5.402  68.277  1.00  0.00    -0.111 C  
HETATM    7  C   UNL     1      -7.648   5.450  68.082  1.00  0.00    -0.081 C  
HETATM    8  N   UNL     1      -7.769   3.509  66.494  1.00  0.00    -0.080 N  
HETATM    9  C   UNL     1      -7.152   4.913  66.730  1.00  0.00    -0.068 C  
HETATM   10  C   UNL     1      -7.077   2.821  65.301  1.00  0.00    -0.057 C  
HETATM   11  C   UNL     1      -7.683   2.520  67.644  1.00  0.00    -0.060 C  
ENDROOT
BRANCH   6  12
HETATM   12  O   UNL     1      -9.663   6.754  68.099  1.00  0.00    -0.128 OA 
BRANCH  12  13
HETATM   13  C   UNL     1      -9.296   7.683  69.038  1.00  0.00    -0.146 C  
HETATM   14  C   UNL     1     -10.276   7.639  70.257  1.00  0.00    -0.205 C  
HETATM   15  C   UNL     1     -11.140   8.893  70.339  1.00  0.00    -0.239 A  
HETATM   16  O   UNL     1     -11.216   6.558  70.147  1.00  0.00    -0.313 OA 
HETATM   17  C   UNL     1      -9.437   7.391  71.507  1.00  0.00    -0.151 A  
HETATM   18  O   UNL     1      -8.287   8.368  68.927  1.00  0.00    -0.117 OA 
HETATM   19  C   UNL     1     -12.407   9.005  70.898  1.00  0.00    -0.159 A  
HETATM   20  C   UNL     1      -8.845   8.312  72.359  1.00  0.00    -0.286 A  
HETATM   21  H   UNL     1     -11.811   6.532  70.887  1.00  0.00     0.000 HD 
HETATM   22  C   UNL     1      -8.105   7.702  73.412  1.00  0.00    -0.188 A  
HETATM   23  C   UNL     1     -12.942  10.322  70.818  1.00  0.00    -0.408 A  
HETATM   24  C   UNL     1     -12.069  11.193  70.213  1.00  0.00    -0.377 A  
HETATM   25  C   UNL     1      -8.141   6.330  73.340  1.00  0.00    -0.111 A  
HETATM   26  S   UNL     1     -10.622  10.423  69.741  1.00  0.00    -0.237 SA 
HETATM   27  S   UNL     1      -9.031   5.783  71.989  1.00  0.00    -0.137 SA 
ENDBRANCH  12  13
ENDBRANCH   6  12
TORSDOF 2
ENDMDL
MODEL      131
REMARK 921   NORMALIZED FREE ENERGY PREDICTED BY IDOCK:   -3.15 KCAL/MOL
REMARK 922        TOTAL FREE ENERGY PREDICTED BY IDOCK:   -4.50 KCAL/MOL
REMARK 923 INTER-LIGAND FREE ENERGY PREDICTED BY IDOCK:   -4.10 KCAL/MOL
REMARK 924 INTRA-LIGAND FREE ENERGY PREDICTED BY IDOCK:   -0.40 KCAL/MOL
REMARK 927      BINDING AFFINITY PREDICTED BY RF-SCORE:    0.00 PKD
ROOT
HETATM    1  C   UNL     1     -11.962  14.146  66.821  1.00  0.00    -0.447 C  
HETATM    2  O   UNL     1     -10.922  13.538  66.062  1.00  0.00    -0.276 OA 
HETATM    3  C   UNL     1     -10.614  14.803  66.632  1.00  0.00    -0.299 C  
HETATM    4  C   UNL     1      -9.993  14.871  68.019  1.00  0.00    -0.220 C  
HETATM    5  C   UNL     1      -9.183  13.602  68.340  1.00  0.00    -0.169 C  
HETATM    6  C   UNL     1     -10.016  12.297  68.455  1.00  0.00    -0.209 C  
HETATM    7  C   UNL     1     -11.533  12.485  68.696  1.00  0.00    -0.348 C  
HETATM    8  N   UNL     1     -11.199  14.957  68.987  1.00  0.00    -0.250 N  
HETATM    9  C   UNL     1     -12.079  13.871  68.314  1.00  0.00    -0.287 C  
HETATM   10  C   UNL     1     -11.877  16.336  68.868  1.00  0.00    -0.060 C  
HETATM   11  C   UNL     1     -10.896  14.775  70.465  1.00  0.00     0.051 C  
ENDROOT
BRANCH   6  12
HETATM   12  O   UNL     1      -9.885  11.496  67.258  1.00  0.00    -0.188 OA 
BRANCH  12  13
HETATM   13  C   UNL     1      -9.695  10.148  67.419  1.00  0.00    -0.161 C  
HETATM   14  C   UNL     1      -8.167   9.810  67.409  1.00  0.00    -0.114 C  
HETATM   15  C   UNL     1      -7.762   9.034  66.161  1.00  0.00    -0.099 A  
HETATM   16  O   UNL     1      -7.359  10.998  67.375  1.00  0.00    -0.096 OA 
HETATM   17  C   UNL     1      -7.854   9.081  68.713  1.00  0.00    -0.096 A  
HETATM   18  O   UNL     1     -10.620   9.371  67.619  1.00  0.00    -0.260 OA 
HETATM   19  C   UNL     1      -6.514   9.016  65.551  1.00  0.00    -0.067 A  
HETATM   20  C   UNL     1      -7.879   7.720  68.979  1.00  0.00    -0.118 A  
HETATM   21  H   UNL     1      -6.431  10.794  67.370  1.00  0.00     0.000 HD 
HETATM   22  C   UNL     1      -7.556   7.412  70.332  1.00  0.00    -0.091 A  
HETATM   23  C   UNL     1      -6.462   8.181  64.399  1.00  0.00    -0.065 A  
HETATM   24  C   UNL     1      -7.667   7.566  64.161  1.00  0.00    -0.132 A  
HETATM   25  C   UNL     1      -7.298   8.542  71.071  1.00  0.00    -0.074 A  
HETATM   26  S   UNL     1      -8.848   8.001  65.313  1.00  0.00     0.138 SA 
HETATM   27  S   UNL     1      -7.480   9.967  70.148  1.00  0.00    -0.161 SA 
ENDBRANCH  12  13
ENDBRANCH   6  12
TORSDOF 2
ENDMDL
MODEL      132
REMARK 921   NORMALIZED FREE ENERGY PREDICTED BY IDOCK:   -3.14 KCAL/MOL
REMARK 922        TOTAL FREE ENERGY PREDICTED BY IDOCK:   -4.49 KCAL/MOL
REMARK 923 INTER-LIGAND FREE ENERGY PREDICTED BY IDOCK:   -3.62 KCAL/MOL
REMARK 924 INTRA-LIGAND FREE ENERGY PREDICTED BY IDOCK:   -0.87 KCAL/MOL
REMARK 927      BINDING AFFINITY PREDICTED BY RF-SCORE:    0.00 PKD
ROOT
HETATM    1  C   UNL     1      -6.808   5.537  68.633  1.00  0.00    -0.059 C  
HETATM    2  O   UNL     1      -7.275   6.854  68.904  1.00  0.00    -0.085 OA 
HETATM    3  C   UNL     1      -6.610   6.677  67.661  1.00  0.00    -0.054 C  
HETATM    4  C   UNL     1      -7.413   6.308  66.424  1.00  0.00    -0.086 C  
HETATM    5  C   UNL     1      -8.863   6.815  66.518  1.00  0.00    -0.150 C  
HETATM    6  C   UNL     1      -9.723   6.159  67.633  1.00  0.00    -0.116 C  
HETATM    7  C   UNL     1      -9.200   4.808  68.179  1.00  0.00    -0.155 C  
HETATM    8  N   UNL     1      -7.421   4.759  66.407  1.00  0.00    -0.085 N  
HETATM    9  C   UNL     1      -7.709   4.540  67.916  1.00  0.00    -0.081 C  
HETATM   10  C   UNL     1      -6.019   4.225  66.054  1.00  0.00    -0.023 C  
HETATM   11  C   UNL     1      -8.372   4.097  65.424  1.00  0.00    -0.109 C  
ENDROOT
BRANCH   6  12
HETATM   12  O   UNL     1      -9.849   7.042  68.771  1.00  0.00    -0.148 OA 
BRANCH  12  13
HETATM   13  C   UNL     1     -10.818   6.746  69.695  1.00  0.00    -0.271 C  
HETATM   14  C   UNL     1     -10.363   7.198  71.122  1.00  0.00    -0.202 C  
HETATM   15  C   UNL     1     -10.083   6.009  72.035  1.00  0.00    -0.186 A  
HETATM   16  O   UNL     1      -9.123   7.923  71.082  1.00  0.00    -0.139 OA 
HETATM   17  C   UNL     1     -11.430   8.146  71.661  1.00  0.00    -0.274 A  
HETATM   18  O   UNL     1     -11.902   6.269  69.383  1.00  0.00    -0.174 OA 
HETATM   19  C   UNL     1      -9.209   5.966  73.114  1.00  0.00    -0.133 A  
HETATM   20  C   UNL     1     -12.562   7.852  72.408  1.00  0.00    -0.160 A  
HETATM   21  H   UNL     1      -8.847   8.198  71.948  1.00  0.00     0.000 HD 
HETATM   22  C   UNL     1     -13.348   9.003  72.703  1.00  0.00    -0.391 A  
HETATM   23  C   UNL     1      -9.183   4.701  73.766  1.00  0.00    -0.111 A  
HETATM   24  C   UNL     1     -10.047   3.807  73.182  1.00  0.00    -0.143 A  
HETATM   25  C   UNL     1     -12.805  10.148  72.172  1.00  0.00    -0.287 A  
HETATM   26  S   UNL     1     -10.874   4.489  71.855  1.00  0.00     0.332 SA 
HETATM   27  S   UNL     1     -11.377   9.832  71.291  1.00  0.00    -0.333 SA 
ENDBRANCH  12  13
ENDBRANCH   6  12
TORSDOF 2
ENDMDL
MODEL      133
REMARK 921   NORMALIZED FREE ENERGY PREDICTED BY IDOCK:   -3.13 KCAL/MOL
REMARK 922        TOTAL FREE ENERGY PREDICTED BY IDOCK:   -4.48 KCAL/MOL
REMARK 923 INTER-LIGAND FREE ENERGY PREDICTED BY IDOCK:   -4.36 KCAL/MOL
REMARK 924 INTRA-LIGAND FREE ENERGY PREDICTED BY IDOCK:   -0.12 KCAL/MOL
REMARK 927      BINDING AFFINITY PREDICTED BY RF-SCORE:    0.00 PKD
ROOT
HETATM    1  C   UNL     1      -9.504   4.627  68.246  1.00  0.00    -0.147 C  
HETATM    2  O   UNL     1      -9.478   5.063  69.601  1.00  0.00    -0.120 OA 
HETATM    3  C   UNL     1      -8.426   4.190  69.210  1.00  0.00    -0.076 C  
HETATM    4  C   UNL     1      -7.129   4.770  68.668  1.00  0.00    -0.057 C  
HETATM    5  C   UNL     1      -6.866   6.182  69.220  1.00  0.00    -0.062 C  
HETATM    6  C   UNL     1      -7.883   7.267  68.773  1.00  0.00    -0.121 C  
HETATM    7  C   UNL     1      -8.718   6.930  67.514  1.00  0.00    -0.120 C  
HETATM    8  N   UNL     1      -7.347   4.859  67.137  1.00  0.00    -0.080 N  
HETATM    9  C   UNL     1      -8.789   5.433  67.170  1.00  0.00    -0.109 C  
HETATM   10  C   UNL     1      -7.354   3.447  66.519  1.00  0.00    -0.075 C  
HETATM   11  C   UNL     1      -6.313   5.647  66.350  1.00  0.00    -0.035 C  
ENDROOT
BRANCH   6  12
HETATM   12  O   UNL     1      -8.828   7.554  69.829  1.00  0.00    -0.140 OA 
BRANCH  12  13
HETATM   13  C   UNL     1      -9.244   8.852  69.970  1.00  0.00    -0.174 C  
HETATM   14  C   UNL     1     -10.604   9.070  69.228  1.00  0.00    -0.213 C  
HETATM   15  C   UNL     1     -10.449   9.964  68.003  1.00  0.00    -0.222 A  
HETATM   16  O   UNL     1     -11.134   7.838  68.713  1.00  0.00    -0.418 OA 
HETATM   17  C   UNL     1     -11.601   9.604  70.253  1.00  0.00    -0.198 A  
HETATM   18  O   UNL     1      -8.640   9.666  70.658  1.00  0.00    -0.196 OA 
HETATM   19  C   UNL     1     -11.234   9.963  66.857  1.00  0.00     0.349 A  
HETATM   20  C   UNL     1     -11.883  10.918  70.594  1.00  0.00    -0.453 A  
HETATM   21  H   UNL     1     -11.960   7.970  68.263  1.00  0.00     0.000 HD 
HETATM   22  C   UNL     1     -12.858  11.028  71.627  1.00  0.00    -0.540 A  
HETATM   23  C   UNL     1     -10.828  10.930  65.895  1.00  0.00    -0.132 A  
HETATM   24  C   UNL     1      -9.749  11.661  66.330  1.00  0.00    -0.214 A  
HETATM   25  C   UNL     1     -13.295   9.798  72.057  1.00  0.00    -0.451 A  
HETATM   26  S   UNL     1      -9.230  11.175  67.881  1.00  0.00    -0.159 SA 
HETATM   27  S   UNL     1     -12.506   8.519  71.247  1.00  0.00    -0.199 SA 
ENDBRANCH  12  13
ENDBRANCH   6  12
TORSDOF 2
ENDMDL
MODEL      134
REMARK 921   NORMALIZED FREE ENERGY PREDICTED BY IDOCK:   -3.12 KCAL/MOL
REMARK 922        TOTAL FREE ENERGY PREDICTED BY IDOCK:   -4.47 KCAL/MOL
REMARK 923 INTER-LIGAND FREE ENERGY PREDICTED BY IDOCK:   -4.04 KCAL/MOL
REMARK 924 INTRA-LIGAND FREE ENERGY PREDICTED BY IDOCK:   -0.43 KCAL/MOL
REMARK 927      BINDING AFFINITY PREDICTED BY RF-SCORE:    0.00 PKD
ROOT
HETATM    1  C   UNL     1     -10.445   5.010  71.279  1.00  0.00    -0.143 C  
HETATM    2  O   UNL     1     -11.005   6.285  70.983  1.00  0.00    -0.256 OA 
HETATM    3  C   UNL     1     -10.752   6.023  72.357  1.00  0.00    -0.228 C  
HETATM    4  C   UNL     1      -9.408   6.402  72.960  1.00  0.00    -0.135 C  
HETATM    5  C   UNL     1      -8.767   7.586  72.214  1.00  0.00    -0.148 C  
HETATM    6  C   UNL     1      -8.359   7.299  70.743  1.00  0.00    -0.124 C  
HETATM    7  C   UNL     1      -8.212   5.805  70.365  1.00  0.00    -0.107 C  
HETATM    8  N   UNL     1      -8.522   5.146  72.768  1.00  0.00    -0.113 N  
HETATM    9  C   UNL     1      -8.933   4.827  71.306  1.00  0.00    -0.129 C  
HETATM   10  C   UNL     1      -8.991   4.018  73.707  1.00  0.00    -0.091 C  
HETATM   11  C   UNL     1      -7.037   5.316  73.041  1.00  0.00    -0.088 C  
ENDROOT
BRANCH   6  12
HETATM   12  O   UNL     1      -9.321   7.863  69.823  1.00  0.00    -0.153 OA 
BRANCH  12  13
HETATM   13  C   UNL     1      -8.838   8.651  68.810  1.00  0.00    -0.139 C  
HETATM   14  C   UNL     1      -8.922  10.161  69.210  1.00  0.00    -0.183 C  
HETATM   15  C   UNL     1      -9.962  10.913  68.387  1.00  0.00    -0.178 A  
HETATM   16  O   UNL     1      -9.347  10.329  70.572  1.00  0.00    -0.203 OA 
HETATM   17  C   UNL     1      -7.515  10.741  69.095  1.00  0.00    -0.123 A  
HETATM   18  O   UNL     1      -8.347   8.184  67.790  1.00  0.00    -0.126 OA 
HETATM   19  C   UNL     1     -10.675  12.044  68.765  1.00  0.00    -0.252 A  
HETATM   20  C   UNL     1      -6.904  11.341  68.004  1.00  0.00    -0.067 A  
HETATM   21  H   UNL     1      -9.397  11.246  70.816  1.00  0.00     0.000 HD 
HETATM   22  C   UNL     1      -5.559  11.733  68.264  1.00  0.00    -0.046 A  
HETATM   23  C   UNL     1     -11.570  12.507  67.760  1.00  0.00    -0.401 A  
HETATM   24  C   UNL     1     -11.513  11.730  66.628  1.00  0.00    -0.267 A  
HETATM   25  C   UNL     1      -5.169  11.419  69.544  1.00  0.00    -0.045 A  
HETATM   26  S   UNL     1     -10.395  10.451  66.785  1.00  0.00    -0.224 SA 
HETATM   27  S   UNL     1      -6.404  10.624  70.414  1.00  0.00    -0.073 SA 
ENDBRANCH  12  13
ENDBRANCH   6  12
TORSDOF 2
ENDMDL
MODEL      135
REMARK 921   NORMALIZED FREE ENERGY PREDICTED BY IDOCK:   -3.12 KCAL/MOL
REMARK 922        TOTAL FREE ENERGY PREDICTED BY IDOCK:   -4.46 KCAL/MOL
REMARK 923 INTER-LIGAND FREE ENERGY PREDICTED BY IDOCK:   -3.99 KCAL/MOL
REMARK 924 INTRA-LIGAND FREE ENERGY PREDICTED BY IDOCK:   -0.47 KCAL/MOL
REMARK 927      BINDING AFFINITY PREDICTED BY RF-SCORE:    0.00 PKD
ROOT
HETATM    1  C   UNL     1      -8.808  11.082  65.211  1.00  0.00    -0.129 C  
HETATM    2  O   UNL     1      -9.810  10.359  65.920  1.00  0.00    -0.208 OA 
HETATM    3  C   UNL     1      -9.572   9.939  64.583  1.00  0.00    -0.252 C  
HETATM    4  C   UNL     1      -8.539   8.856  64.308  1.00  0.00    -0.109 C  
HETATM    5  C   UNL     1      -8.375   7.911  65.511  1.00  0.00    -0.152 C  
HETATM    6  C   UNL     1      -7.782   8.565  66.789  1.00  0.00    -0.091 C  
HETATM    7  C   UNL     1      -7.022   9.896  66.575  1.00  0.00    -0.090 C  
HETATM    8  N   UNL     1      -7.213   9.625  64.085  1.00  0.00    -0.117 N  
HETATM    9  C   UNL     1      -7.356  10.625  65.264  1.00  0.00     0.015 C  
HETATM   10  C   UNL     1      -7.256  10.381  62.743  1.00  0.00    -0.121 C  
HETATM   11  C   UNL     1      -5.944   8.790  64.046  1.00  0.00    -0.071 C  
ENDROOT
BRANCH   6  12
HETATM   12  O   UNL     1      -8.821   8.836  67.758  1.00  0.00    -0.135 OA 
BRANCH  12  13
HETATM   13  C   UNL     1      -9.585   7.777  68.177  1.00  0.00    -0.151 C  
HETATM   14  C   UNL     1      -8.891   7.049  69.376  1.00  0.00    -0.136 C  
HETATM   15  C   UNL     1      -8.392   5.662  68.987  1.00  0.00    -0.100 A  
HETATM   16  O   UNL     1      -7.715   7.747  69.816  1.00  0.00    -0.093 OA 
HETATM   17  C   UNL     1      -9.880   7.041  70.538  1.00  0.00    -0.179 A  
HETATM   18  O   UNL     1     -10.686   7.530  67.701  1.00  0.00    -0.239 OA 
HETATM   19  C   UNL     1      -7.331   4.963  69.549  1.00  0.00    -0.056 A  
HETATM   20  C   UNL     1     -10.837   6.091  70.863  1.00  0.00    -0.349 A  
HETATM   21  H   UNL     1      -7.293   7.305  70.543  1.00  0.00     0.000 HD 
HETATM   22  C   UNL     1     -11.605   6.444  72.010  1.00  0.00    -0.368 A  
HETATM   23  C   UNL     1      -7.126   3.682  68.961  1.00  0.00    -0.050 A  
HETATM   24  C   UNL     1      -8.043   3.422  67.972  1.00  0.00    -0.078 A  
HETATM   25  C   UNL     1     -11.223   7.657  72.532  1.00  0.00    -0.346 A  
HETATM   26  S   UNL     1      -9.134   4.715  67.754  1.00  0.00    -0.125 SA 
HETATM   27  S   UNL     1      -9.973   8.382  71.623  1.00  0.00    -0.260 SA 
ENDBRANCH  12  13
ENDBRANCH   6  12
TORSDOF 2
ENDMDL
MODEL      136
REMARK 921   NORMALIZED FREE ENERGY PREDICTED BY IDOCK:   -3.11 KCAL/MOL
REMARK 922        TOTAL FREE ENERGY PREDICTED BY IDOCK:   -4.46 KCAL/MOL
REMARK 923 INTER-LIGAND FREE ENERGY PREDICTED BY IDOCK:   -3.53 KCAL/MOL
REMARK 924 INTRA-LIGAND FREE ENERGY PREDICTED BY IDOCK:   -0.92 KCAL/MOL
REMARK 927      BINDING AFFINITY PREDICTED BY RF-SCORE:    0.00 PKD
ROOT
HETATM    1  C   UNL     1     -11.035   9.824  67.728  1.00  0.00    -0.180 C  
HETATM    2  O   UNL     1     -10.521   8.496  67.689  1.00  0.00    -0.244 OA 
HETATM    3  C   UNL     1     -10.068   9.366  66.660  1.00  0.00    -0.262 C  
HETATM    4  C   UNL     1      -8.804  10.186  66.871  1.00  0.00    -0.132 C  
HETATM    5  C   UNL     1      -7.840   9.498  67.854  1.00  0.00    -0.091 C  
HETATM    6  C   UNL     1      -8.358   9.375  69.313  1.00  0.00    -0.131 C  
HETATM    7  C   UNL     1      -9.514  10.330  69.699  1.00  0.00    -0.180 C  
HETATM    8  N   UNL     1      -9.297  11.515  67.496  1.00  0.00    -0.164 N  
HETATM    9  C   UNL     1     -10.300  10.905  68.510  1.00  0.00    -0.187 C  
HETATM   10  C   UNL     1     -10.051  12.348  66.442  1.00  0.00    -0.236 C  
HETATM   11  C   UNL     1      -8.227  12.436  68.059  1.00  0.00    -0.168 C  
ENDROOT
BRANCH   6  12
HETATM   12  O   UNL     1      -8.825   8.034  69.583  1.00  0.00    -0.139 OA 
BRANCH  12  13
HETATM   13  C   UNL     1      -7.903   7.021  69.526  1.00  0.00    -0.119 C  
HETATM   14  C   UNL     1      -8.551   5.730  68.924  1.00  0.00    -0.106 C  
HETATM   15  C   UNL     1      -8.697   4.627  69.966  1.00  0.00    -0.081 A  
HETATM   16  O   UNL     1      -9.890   5.972  68.463  1.00  0.00    -0.122 OA 
HETATM   17  C   UNL     1      -7.717   5.323  67.714  1.00  0.00    -0.091 A  
HETATM   18  O   UNL     1      -6.729   7.181  69.837  1.00  0.00    -0.046 OA 
HETATM   19  C   UNL     1      -9.639   3.607  69.984  1.00  0.00    -0.244 A  
HETATM   20  C   UNL     1      -6.620   4.476  67.654  1.00  0.00    -0.047 A  
HETATM   21  H   UNL     1     -10.285   5.188  68.098  1.00  0.00     0.000 HD 
HETATM   22  C   UNL     1      -6.075   4.360  66.343  1.00  0.00    -0.031 A  
HETATM   23  C   UNL     1      -9.501   2.731  71.097  1.00  0.00    -0.225 A  
HETATM   24  C   UNL     1      -8.446   3.090  71.901  1.00  0.00    -0.069 A  
HETATM   25  C   UNL     1      -6.762   5.125  65.430  1.00  0.00    -0.052 A  
HETATM   26  S   UNL     1      -7.640   4.476  71.318  1.00  0.00    -0.077 SA 
HETATM   27  S   UNL     1      -8.031   6.005  66.158  1.00  0.00    -0.111 SA 
ENDBRANCH  12  13
ENDBRANCH   6  12
TORSDOF 2
ENDMDL
MODEL      137
REMARK 921   NORMALIZED FREE ENERGY PREDICTED BY IDOCK:   -3.09 KCAL/MOL
REMARK 922        TOTAL FREE ENERGY PREDICTED BY IDOCK:   -4.44 KCAL/MOL
REMARK 923 INTER-LIGAND FREE ENERGY PREDICTED BY IDOCK:   -5.29 KCAL/MOL
REMARK 924 INTRA-LIGAND FREE ENERGY PREDICTED BY IDOCK:    0.85 KCAL/MOL
REMARK 927      BINDING AFFINITY PREDICTED BY RF-SCORE:    0.00 PKD
ROOT
HETATM    1  C   UNL     1     -12.250  12.124  65.590  1.00  0.00     0.031 C  
HETATM    2  O   UNL     1     -12.183  12.994  66.715  1.00  0.00    -0.368 OA 
HETATM    3  C   UNL     1     -11.315  11.869  66.750  1.00  0.00    -0.330 C  
HETATM    4  C   UNL     1      -9.910  11.985  66.179  1.00  0.00    -0.235 C  
HETATM    5  C   UNL     1      -9.388  13.431  66.247  1.00  0.00    -0.137 C  
HETATM    6  C   UNL     1     -10.151  14.453  65.361  1.00  0.00    -0.359 C  
HETATM    7  C   UNL     1     -10.993  13.849  64.211  1.00  0.00    -0.219 C  
HETATM    8  N   UNL     1     -10.054  11.571  64.693  1.00  0.00    -0.257 N  
HETATM    9  C   UNL     1     -11.351  12.364  64.384  1.00  0.00    -0.340 C  
HETATM   10  C   UNL     1     -10.322  10.057  64.588  1.00  0.00     0.407 C  
HETATM   11  C   UNL     1      -8.856  11.838  63.796  1.00  0.00     0.611 C  
ENDROOT
BRANCH   6  12
HETATM   12  O   UNL     1     -11.055  15.251  66.158  1.00  0.00    -0.336 OA 
BRANCH  12  13
HETATM   13  C   UNL     1     -10.563  15.797  67.315  1.00  0.00    -0.313 C  
HETATM   14  C   UNL     1      -9.289  16.653  67.013  1.00  0.00    -0.224 C  
HETATM   15  C   UNL     1      -8.025  16.013  67.576  1.00  0.00    -0.144 A  
HETATM   16  O   UNL     1      -9.042  16.762  65.602  1.00  0.00    -0.489 OA 
HETATM   17  C   UNL     1      -9.550  18.060  67.542  1.00  0.00    -0.273 A  
HETATM   18  O   UNL     1     -11.127  15.669  68.395  1.00  0.00    -0.292 OA 
HETATM   19  C   UNL     1      -6.728  16.154  67.100  1.00  0.00    -0.227 A  
HETATM   20  C   UNL     1      -9.278  18.586  68.796  1.00  0.00    -0.292 A  
HETATM   21  H   UNL     1      -8.269  17.282  65.418  1.00  0.00     0.000 HD 
HETATM   22  C   UNL     1      -9.697  19.941  68.935  1.00  0.00    -0.333 A  
HETATM   23  C   UNL     1      -5.768  15.425  67.857  1.00  0.00    -0.157 A  
HETATM   24  C   UNL     1      -6.348  14.753  68.906  1.00  0.00    -0.087 A  
HETATM   25  C   UNL     1     -10.285  20.419  67.789  1.00  0.00    -0.252 A  
HETATM   26  S   UNL     1      -8.035  14.996  68.966  1.00  0.00    -0.187 SA 
HETATM   27  S   UNL     1     -10.365  19.230  66.566  1.00  0.00    -0.483 SA 
ENDBRANCH  12  13
ENDBRANCH   6  12
TORSDOF 2
ENDMDL
MODEL      138
REMARK 921   NORMALIZED FREE ENERGY PREDICTED BY IDOCK:   -3.08 KCAL/MOL
REMARK 922        TOTAL FREE ENERGY PREDICTED BY IDOCK:   -4.42 KCAL/MOL
REMARK 923 INTER-LIGAND FREE ENERGY PREDICTED BY IDOCK:   -3.60 KCAL/MOL
REMARK 924 INTRA-LIGAND FREE ENERGY PREDICTED BY IDOCK:   -0.82 KCAL/MOL
REMARK 927      BINDING AFFINITY PREDICTED BY RF-SCORE:    0.00 PKD
ROOT
HETATM    1  C   UNL     1      -8.105   9.765  67.605  1.00  0.00    -0.113 C  
HETATM    2  O   UNL     1      -7.741   8.396  67.752  1.00  0.00    -0.100 OA 
HETATM    3  C   UNL     1      -6.689   9.282  67.393  1.00  0.00    -0.069 C  
HETATM    4  C   UNL     1      -5.860   9.946  68.481  1.00  0.00    -0.042 C  
HETATM    5  C   UNL     1      -5.818   9.093  69.761  1.00  0.00    -0.032 C  
HETATM    6  C   UNL     1      -7.180   8.926  70.490  1.00  0.00    -0.071 C  
HETATM    7  C   UNL     1      -8.267   9.969  70.133  1.00  0.00    -0.083 C  
HETATM    8  N   UNL     1      -6.598  11.274  68.784  1.00  0.00    -0.057 N  
HETATM    9  C   UNL     1      -8.042  10.705  68.802  1.00  0.00    -0.139 C  
HETATM   10  C   UNL     1      -6.432  12.254  67.606  1.00  0.00    -0.120 C  
HETATM   11  C   UNL     1      -6.146  12.035  70.019  1.00  0.00    -0.146 C  
ENDROOT
BRANCH   6  12
HETATM   12  O   UNL     1      -7.752   7.626  70.219  1.00  0.00    -0.087 OA 
BRANCH  12  13
HETATM   13  C   UNL     1      -8.449   7.019  71.231  1.00  0.00    -0.118 C  
HETATM   14  C   UNL     1      -9.673   6.235  70.653  1.00  0.00    -0.176 C  
HETATM   15  C   UNL     1     -10.998   6.881  71.040  1.00  0.00    -0.252 A  
HETATM   16  O   UNL     1      -9.675   6.234  69.216  1.00  0.00    -0.135 OA 
HETATM   17  C   UNL     1      -9.542   4.785  71.111  1.00  0.00    -0.170 A  
HETATM   18  O   UNL     1      -8.077   7.051  72.398  1.00  0.00    -0.101 OA 
HETATM   19  C   UNL     1     -12.198   6.822  70.340  1.00  0.00    -0.180 A  
HETATM   20  C   UNL     1     -10.039   4.183  72.257  1.00  0.00    -0.247 A  
HETATM   21  H   UNL     1     -10.418   5.758  68.865  1.00  0.00     0.000 HD 
HETATM   22  C   UNL     1      -9.684   2.807  72.363  1.00  0.00    -0.213 A  
HETATM   23  C   UNL     1     -13.256   7.531  70.976  1.00  0.00    -0.133 A  
HETATM   24  C   UNL     1     -12.848   8.106  72.156  1.00  0.00    -0.281 A  
HETATM   25  C   UNL     1      -8.920   2.389  71.300  1.00  0.00    -0.082 A  
HETATM   26  S   UNL     1     -11.203   7.797  72.484  1.00  0.00    -0.389 SA 
HETATM   27  S   UNL     1      -8.601   3.657  70.202  1.00  0.00    -0.065 SA 
ENDBRANCH  12  13
ENDBRANCH   6  12
TORSDOF 2
ENDMDL
MODEL      139
REMARK 921   NORMALIZED FREE ENERGY PREDICTED BY IDOCK:   -3.02 KCAL/MOL
REMARK 922        TOTAL FREE ENERGY PREDICTED BY IDOCK:   -4.36 KCAL/MOL
REMARK 923 INTER-LIGAND FREE ENERGY PREDICTED BY IDOCK:   -3.95 KCAL/MOL
REMARK 924 INTRA-LIGAND FREE ENERGY PREDICTED BY IDOCK:   -0.41 KCAL/MOL
REMARK 927      BINDING AFFINITY PREDICTED BY RF-SCORE:    0.00 PKD
ROOT
HETATM    1  C   UNL     1     -10.078   8.911  67.091  1.00  0.00    -0.249 C  
HETATM    2  O   UNL     1     -10.102  10.014  67.992  1.00  0.00    -0.156 OA 
HETATM    3  C   UNL     1      -8.916   9.232  68.001  1.00  0.00    -0.128 C  
HETATM    4  C   UNL     1      -7.763   9.602  67.081  1.00  0.00    -0.091 C  
HETATM    5  C   UNL     1      -7.756  11.108  66.760  1.00  0.00    -0.153 C  
HETATM    6  C   UNL     1      -8.968  11.614  65.932  1.00  0.00    -0.108 C  
HETATM    7  C   UNL     1      -9.754  10.528  65.158  1.00  0.00    -0.341 C  
HETATM    8  N   UNL     1      -8.030   8.811  65.777  1.00  0.00    -0.102 N  
HETATM    9  C   UNL     1      -9.552   9.094  65.673  1.00  0.00    -0.217 C  
HETATM   10  C   UNL     1      -7.787   7.307  66.010  1.00  0.00    -0.106 C  
HETATM   11  C   UNL     1      -7.180   9.182  64.572  1.00  0.00    -0.098 C  
ENDROOT
BRANCH   6  12
HETATM   12  O   UNL     1      -9.925  12.289  66.779  1.00  0.00    -0.201 OA 
BRANCH  12  13
HETATM   13  C   UNL     1      -9.744  13.631  66.991  1.00  0.00    -0.251 C  
HETATM   14  C   UNL     1      -9.229  13.886  68.447  1.00  0.00    -0.194 C  
HETATM   15  C   UNL     1     -10.277  14.580  69.309  1.00  0.00    -0.109 A  
HETATM   16  O   UNL     1      -8.947  12.657  69.136  1.00  0.00    -0.173 OA 
HETATM   17  C   UNL     1      -7.918  14.660  68.336  1.00  0.00    -0.137 A  
HETATM   18  O   UNL     1      -9.899  14.464  66.107  1.00  0.00    -0.293 OA 
HETATM   19  C   UNL     1     -10.414  14.502  70.689  1.00  0.00     0.770 A  
HETATM   20  C   UNL     1      -7.712  16.031  68.310  1.00  0.00    -0.142 A  
HETATM   21  H   UNL     1      -8.635  12.812  70.019  1.00  0.00     0.000 HD 
HETATM   22  C   UNL     1      -6.340  16.386  68.164  1.00  0.00    -0.139 A  
HETATM   23  C   UNL     1     -11.497  15.278  71.192  1.00  0.00    -0.414 A  
HETATM   24  C   UNL     1     -12.157  15.944  70.188  1.00  0.00    -0.255 A  
HETATM   25  C   UNL     1      -5.529  15.281  68.075  1.00  0.00    -0.134 A  
HETATM   26  S   UNL     1     -11.478  15.627  68.655  1.00  0.00    -0.383 SA 
HETATM   27  S   UNL     1      -6.419  13.825  68.130  1.00  0.00    -0.142 SA 
ENDBRANCH  12  13
ENDBRANCH   6  12
TORSDOF 2
ENDMDL
MODEL      140
REMARK 921   NORMALIZED FREE ENERGY PREDICTED BY IDOCK:   -2.97 KCAL/MOL
REMARK 922        TOTAL FREE ENERGY PREDICTED BY IDOCK:   -4.30 KCAL/MOL
REMARK 923 INTER-LIGAND FREE ENERGY PREDICTED BY IDOCK:   -3.21 KCAL/MOL
REMARK 924 INTRA-LIGAND FREE ENERGY PREDICTED BY IDOCK:   -1.09 KCAL/MOL
REMARK 927      BINDING AFFINITY PREDICTED BY RF-SCORE:    0.00 PKD
ROOT
HETATM    1  C   UNL     1      -7.657   9.271  65.892  1.00  0.00    -0.098 C  
HETATM    2  O   UNL     1      -8.931   8.737  66.239  1.00  0.00    -0.151 OA 
HETATM    3  C   UNL     1      -8.597   8.697  64.858  1.00  0.00    -0.135 C  
HETATM    4  C   UNL     1      -7.889   7.476  64.291  1.00  0.00    -0.133 C  
HETATM    5  C   UNL     1      -8.214   6.207  65.098  1.00  0.00    -0.141 C  
HETATM    6  C   UNL     1      -7.688   6.199  66.559  1.00  0.00    -0.103 C  
HETATM    7  C   UNL     1      -6.551   7.202  66.871  1.00  0.00    -0.055 C  
HETATM    8  N   UNL     1      -6.380   7.794  64.436  1.00  0.00    -0.052 N  
HETATM    9  C   UNL     1      -6.430   8.369  65.876  1.00  0.00    -0.053 C  
HETATM   10  C   UNL     1      -5.971   8.897  63.440  1.00  0.00    -0.084 C  
HETATM   11  C   UNL     1      -5.419   6.642  64.190  1.00  0.00    -0.027 C  
ENDROOT
BRANCH   6  12
HETATM   12  O   UNL     1      -8.755   6.484  67.492  1.00  0.00    -0.115 OA 
BRANCH  12  13
HETATM   13  C   UNL     1      -8.567   6.117  68.799  1.00  0.00    -0.120 C  
HETATM   14  C   UNL     1      -8.831   7.332  69.748  1.00  0.00    -0.142 C  
HETATM   15  C   UNL     1      -7.550   7.828  70.409  1.00  0.00    -0.087 A  
HETATM   16  O   UNL     1      -9.332   8.471  69.029  1.00  0.00    -0.146 OA 
HETATM   17  C   UNL     1      -9.909   6.908  70.742  1.00  0.00    -0.182 A  
HETATM   18  O   UNL     1      -8.309   4.966  69.129  1.00  0.00    -0.081 OA 
HETATM   19  C   UNL     1      -7.279   9.115  70.857  1.00  0.00    -0.118 A  
HETATM   20  C   UNL     1      -9.764   6.312  71.985  1.00  0.00    -0.164 A  
HETATM   21  H   UNL     1      -9.492   9.209  69.605  1.00  0.00     0.000 HD 
HETATM   22  C   UNL     1     -11.009   6.030  72.617  1.00  0.00    -0.301 A  
HETATM   23  C   UNL     1      -5.986   9.249  71.437  1.00  0.00    -0.075 A  
HETATM   24  C   UNL     1      -5.299   8.059  71.433  1.00  0.00    -0.034 A  
HETATM   25  C   UNL     1     -12.078   6.409  71.840  1.00  0.00    -0.310 A  
HETATM   26  S   UNL     1      -6.207   6.798  70.729  1.00  0.00    -0.036 SA 
HETATM   27  S   UNL     1     -11.583   7.067  70.345  1.00  0.00    -0.266 SA 
ENDBRANCH  12  13
ENDBRANCH   6  12
TORSDOF 2
ENDMDL
MODEL      141
REMARK 921   NORMALIZED FREE ENERGY PREDICTED BY IDOCK:   -2.95 KCAL/MOL
REMARK 922        TOTAL FREE ENERGY PREDICTED BY IDOCK:   -4.28 KCAL/MOL
REMARK 923 INTER-LIGAND FREE ENERGY PREDICTED BY IDOCK:   -3.78 KCAL/MOL
REMARK 924 INTRA-LIGAND FREE ENERGY PREDICTED BY IDOCK:   -0.49 KCAL/MOL
REMARK 927      BINDING AFFINITY PREDICTED BY RF-SCORE:    0.00 PKD
ROOT
HETATM    1  C   UNL     1     -10.691  12.052  65.188  1.00  0.00    -0.288 C  
HETATM    2  O   UNL     1      -9.919  10.919  64.805  1.00  0.00    -0.257 OA 
HETATM    3  C   UNL     1      -9.180  12.070  65.191  1.00  0.00     0.219 C  
HETATM    4  C   UNL     1      -8.774  12.250  66.646  1.00  0.00    -0.132 C  
HETATM    5  C   UNL     1      -8.629  10.897  67.365  1.00  0.00    -0.127 C  
HETATM    6  C   UNL     1      -9.945  10.087  67.524  1.00  0.00    -0.190 C  
HETATM    7  C   UNL     1     -11.255  10.898  67.380  1.00  0.00    -0.345 C  
HETATM    8  N   UNL     1      -9.944  13.038  67.286  1.00  0.00    -0.229 N  
HETATM    9  C   UNL     1     -11.107  12.238  66.641  1.00  0.00    -0.297 C  
HETATM   10  C   UNL     1      -9.951  14.490  66.770  1.00  0.00    -0.264 C  
HETATM   11  C   UNL     1      -9.942  13.141  68.803  1.00  0.00    -0.028 C  
ENDROOT
BRANCH   6  12
HETATM   12  O   UNL     1     -10.012   9.019  66.553  1.00  0.00    -0.246 OA 
BRANCH  12  13
HETATM   13  C   UNL     1      -9.093   8.008  66.662  1.00  0.00    -0.163 C  
HETATM   14  C   UNL     1      -9.663   6.847  67.542  1.00  0.00    -0.134 C  
HETATM   15  C   UNL     1      -8.938   6.735  68.878  1.00  0.00    -0.131 A  
HETATM   16  O   UNL     1     -11.039   7.070  67.893  1.00  0.00    -0.486 OA 
HETATM   17  C   UNL     1      -9.606   5.571  66.706  1.00  0.00    -0.146 A  
HETATM   18  O   UNL     1      -8.023   8.024  66.066  1.00  0.00    -0.093 OA 
HETATM   19  C   UNL     1      -9.447   6.238  70.071  1.00  0.00    -0.167 A  
HETATM   20  C   UNL     1      -8.587   4.636  66.608  1.00  0.00    -0.108 A  
HETATM   21  H   UNL     1     -11.385   6.366  68.428  1.00  0.00     0.000 HD 
HETATM   22  C   UNL     1      -8.881   3.584  65.694  1.00  0.00    -0.129 A  
HETATM   23  C   UNL     1      -8.507   6.266  71.140  1.00  0.00    -0.124 A  
HETATM   24  C   UNL     1      -7.294   6.771  70.739  1.00  0.00    -0.078 A  
HETATM   25  C   UNL     1     -10.114   3.740  65.108  1.00  0.00    -0.089 A  
HETATM   26  S   UNL     1      -7.297   7.213  69.091  1.00  0.00    -0.094 SA 
HETATM   27  S   UNL     1     -10.895   5.166  65.630  1.00  0.00     0.342 SA 
ENDBRANCH  12  13
ENDBRANCH   6  12
TORSDOF 2
ENDMDL
MODEL      142
REMARK 921   NORMALIZED FREE ENERGY PREDICTED BY IDOCK:   -2.95 KCAL/MOL
REMARK 922        TOTAL FREE ENERGY PREDICTED BY IDOCK:   -4.27 KCAL/MOL
REMARK 923 INTER-LIGAND FREE ENERGY PREDICTED BY IDOCK:   -3.94 KCAL/MOL
REMARK 924 INTRA-LIGAND FREE ENERGY PREDICTED BY IDOCK:   -0.34 KCAL/MOL
REMARK 927      BINDING AFFINITY PREDICTED BY RF-SCORE:    0.00 PKD
ROOT
HETATM    1  C   UNL     1     -10.887  16.043  70.488  1.00  0.00    -0.222 C  
HETATM    2  O   UNL     1     -10.157  14.868  70.150  1.00  0.00    -0.005 OA 
HETATM    3  C   UNL     1     -10.576  14.969  71.504  1.00  0.00     0.758 C  
HETATM    4  C   UNL     1     -11.921  14.393  71.920  1.00  0.00    -0.072 C  
HETATM    5  C   UNL     1     -12.342  13.225  71.010  1.00  0.00    -0.379 C  
HETATM    6  C   UNL     1     -12.630  13.607  69.532  1.00  0.00     0.141 C  
HETATM    7  C   UNL     1     -12.910  15.107  69.267  1.00  0.00     0.441 C  
HETATM    8  N   UNL     1     -12.922  15.560  71.737  1.00  0.00    -0.419 N  
HETATM    9  C   UNL     1     -12.405  16.060  70.362  1.00  0.00    -0.055 C  
HETATM   10  C   UNL     1     -12.684  16.636  72.815  1.00  0.00     0.465 C  
HETATM   11  C   UNL     1     -14.398  15.208  71.828  1.00  0.00    -0.597 C  
ENDROOT
BRANCH   6  12
HETATM   12  O   UNL     1     -11.521  13.239  68.680  1.00  0.00    -0.260 OA 
BRANCH  12  13
HETATM   13  C   UNL     1     -11.556  13.668  67.379  1.00  0.00    -0.356 C  
HETATM   14  C   UNL     1     -10.110  13.701  66.780  1.00  0.00    -0.269 C  
HETATM   15  C   UNL     1      -9.630  15.125  66.527  1.00  0.00    -0.271 A  
HETATM   16  O   UNL     1      -9.144  13.149  67.689  1.00  0.00    -0.182 OA 
HETATM   17  C   UNL     1     -10.116  12.826  65.530  1.00  0.00    -0.264 A  
HETATM   18  O   UNL     1     -12.604  13.901  66.790  1.00  0.00    -0.311 OA 
HETATM   19  C   UNL     1      -8.318  15.580  66.517  1.00  0.00    -0.234 A  
HETATM   20  C   UNL     1     -10.379  13.182  64.216  1.00  0.00    -0.361 A  
HETATM   21  H   UNL     1      -8.267  13.169  67.326  1.00  0.00     0.000 HD 
HETATM   22  C   UNL     1     -10.322  12.078  63.317  1.00  0.00    -0.398 A  
HETATM   23  C   UNL     1      -8.206  16.973  66.242  1.00  0.00    -0.322 A  
HETATM   24  C   UNL     1      -9.435  17.551  66.033  1.00  0.00    -0.070 A  
HETATM   25  C   UNL     1     -10.023  10.902  63.963  1.00  0.00    -0.344 A  
HETATM   26  S   UNL     1     -10.707  16.424  66.177  1.00  0.00    -0.103 SA 
HETATM   27  S   UNL     1      -9.849  11.123  65.647  1.00  0.00    -0.248 SA 
ENDBRANCH  12  13
ENDBRANCH   6  12
TORSDOF 2
ENDMDL
MODEL      143
REMARK 921   NORMALIZED FREE ENERGY PREDICTED BY IDOCK:   -2.92 KCAL/MOL
REMARK 922        TOTAL FREE ENERGY PREDICTED BY IDOCK:   -4.24 KCAL/MOL
REMARK 923 INTER-LIGAND FREE ENERGY PREDICTED BY IDOCK:   -3.36 KCAL/MOL
REMARK 924 INTRA-LIGAND FREE ENERGY PREDICTED BY IDOCK:   -0.89 KCAL/MOL
REMARK 927      BINDING AFFINITY PREDICTED BY RF-SCORE:    0.00 PKD
ROOT
HETATM    1  C   UNL     1      -8.700   7.807  70.709  1.00  0.00    -0.134 C  
HETATM    2  O   UNL     1      -7.890   6.796  70.118  1.00  0.00    -0.102 OA 
HETATM    3  C   UNL     1      -8.571   6.427  71.310  1.00  0.00    -0.127 C  
HETATM    4  C   UNL     1      -9.958   5.809  71.222  1.00  0.00    -0.191 C  
HETATM    5  C   UNL     1     -10.165   5.066  69.890  1.00  0.00    -0.340 C  
HETATM    6  C   UNL     1     -10.163   5.965  68.624  1.00  0.00    -0.192 C  
HETATM    7  C   UNL     1     -10.420   7.472  68.868  1.00  0.00    -0.214 C  
HETATM    8  N   UNL     1     -10.930   7.013  71.284  1.00  0.00    -0.239 N  
HETATM    9  C   UNL     1     -10.163   7.945  70.308  1.00  0.00    -0.200 C  
HETATM   10  C   UNL     1     -10.935   7.619  72.701  1.00  0.00    -0.351 C  
HETATM   11  C   UNL     1     -12.386   6.727  70.956  1.00  0.00    -0.315 C  
ENDROOT
BRANCH   6  12
HETATM   12  O   UNL     1      -8.900   5.871  67.927  1.00  0.00    -0.108 OA 
BRANCH  12  13
HETATM   13  C   UNL     1      -8.900   6.134  66.581  1.00  0.00    -0.127 C  
HETATM   14  C   UNL     1      -7.550   6.803  66.159  1.00  0.00    -0.086 C  
HETATM   15  C   UNL     1      -7.738   8.261  65.758  1.00  0.00    -0.091 A  
HETATM   16  O   UNL     1      -6.612   6.844  67.247  1.00  0.00    -0.047 OA 
HETATM   17  C   UNL     1      -6.938   5.939  65.060  1.00  0.00    -0.059 A  
HETATM   18  O   UNL     1      -9.818   5.797  65.845  1.00  0.00    -0.044 OA 
HETATM   19  C   UNL     1      -6.798   9.282  65.835  1.00  0.00    -0.088 A  
HETATM   20  C   UNL     1      -7.102   6.028  63.686  1.00  0.00    -0.052 A  
HETATM   21  H   UNL     1      -5.793   7.251  66.992  1.00  0.00     0.000 HD 
HETATM   22  C   UNL     1      -6.392   5.020  62.973  1.00  0.00    -0.025 A  
HETATM   23  C   UNL     1      -7.289  10.536  65.373  1.00  0.00    -0.084 A  
HETATM   24  C   UNL     1      -8.589  10.445  64.938  1.00  0.00    -0.182 A  
HETATM   25  C   UNL     1      -5.706   4.178  63.817  1.00  0.00    -0.014 A  
HETATM   26  S   UNL     1      -9.209   8.864  65.095  1.00  0.00     0.079 SA 
HETATM   27  S   UNL     1      -5.948   4.580  65.459  1.00  0.00    -0.023 SA 
ENDBRANCH  12  13
ENDBRANCH   6  12
TORSDOF 2
ENDMDL
MODEL      144
REMARK 921   NORMALIZED FREE ENERGY PREDICTED BY IDOCK:   -2.87 KCAL/MOL
REMARK 922        TOTAL FREE ENERGY PREDICTED BY IDOCK:   -4.18 KCAL/MOL
REMARK 923 INTER-LIGAND FREE ENERGY PREDICTED BY IDOCK:   -3.21 KCAL/MOL
REMARK 924 INTRA-LIGAND FREE ENERGY PREDICTED BY IDOCK:   -0.98 KCAL/MOL
REMARK 927      BINDING AFFINITY PREDICTED BY RF-SCORE:    0.00 PKD
ROOT
HETATM    1  C   UNL     1      -9.944  10.089  66.342  1.00  0.00    -0.237 C  
HETATM    2  O   UNL     1      -9.826   9.095  67.354  1.00  0.00    -0.163 OA 
HETATM    3  C   UNL     1      -9.756   8.626  66.014  1.00  0.00    -0.168 C  
HETATM    4  C   UNL     1      -8.406   8.530  65.321  1.00  0.00    -0.159 C  
HETATM    5  C   UNL     1      -7.264   8.315  66.330  1.00  0.00    -0.075 C  
HETATM    6  C   UNL     1      -7.011   9.498  67.304  1.00  0.00    -0.085 C  
HETATM    7  C   UNL     1      -7.582  10.867  66.863  1.00  0.00    -0.128 C  
HETATM    8  N   UNL     1      -8.219   9.905  64.632  1.00  0.00    -0.144 N  
HETATM    9  C   UNL     1      -8.701  10.791  65.812  1.00  0.00    -0.186 C  
HETATM   10  C   UNL     1      -9.186  10.038  63.441  1.00  0.00    -0.281 C  
HETATM   11  C   UNL     1      -6.836  10.200  64.074  1.00  0.00    -0.102 C  
ENDROOT
BRANCH   6  12
HETATM   12  O   UNL     1      -7.570   9.220  68.608  1.00  0.00    -0.079 OA 
BRANCH  12  13
HETATM   13  C   UNL     1      -6.880   8.356  69.420  1.00  0.00    -0.046 C  
HETATM   14  C   UNL     1      -7.855   7.304  70.044  1.00  0.00    -0.111 C  
HETATM   15  C   UNL     1      -8.027   7.507  71.545  1.00  0.00    -0.094 A  
HETATM   16  O   UNL     1      -9.182   7.422  69.508  1.00  0.00    -0.147 OA 
HETATM   17  C   UNL     1      -7.331   5.920  69.670  1.00  0.00    -0.075 A  
HETATM   18  O   UNL     1      -5.662   8.396  69.539  1.00  0.00    -0.030 OA 
HETATM   19  C   UNL     1      -9.129   7.164  72.319  1.00  0.00    -0.148 A  
HETATM   20  C   UNL     1      -6.442   5.108  70.357  1.00  0.00    -0.034 A  
HETATM   21  H   UNL     1      -9.774   6.783  69.887  1.00  0.00     0.000 HD 
HETATM   22  C   UNL     1      -6.161   3.888  69.676  1.00  0.00    -0.023 A  
HETATM   23  C   UNL     1      -8.971   7.483  73.697  1.00  0.00    -0.287 A  
HETATM   24  C   UNL     1      -7.746   8.051  73.952  1.00  0.00    -0.183 A  
HETATM   25  C   UNL     1      -6.835   3.797  68.482  1.00  0.00    -0.047 A  
HETATM   26  S   UNL     1      -6.803   8.202  72.539  1.00  0.00    -0.090 SA 
HETATM   27  S   UNL     1      -7.772   5.190  68.167  1.00  0.00    -0.084 SA 
ENDBRANCH  12  13
ENDBRANCH   6  12
TORSDOF 2
ENDMDL
MODEL      145
REMARK 921   NORMALIZED FREE ENERGY PREDICTED BY IDOCK:   -2.86 KCAL/MOL
REMARK 922        TOTAL FREE ENERGY PREDICTED BY IDOCK:   -4.17 KCAL/MOL
REMARK 923 INTER-LIGAND FREE ENERGY PREDICTED BY IDOCK:   -3.57 KCAL/MOL
REMARK 924 INTRA-LIGAND FREE ENERGY PREDICTED BY IDOCK:   -0.60 KCAL/MOL
REMARK 927      BINDING AFFINITY PREDICTED BY RF-SCORE:    0.00 PKD
ROOT
HETATM    1  C   UNL     1      -8.415   8.419  65.351  1.00  0.00    -0.176 C  
HETATM    2  O   UNL     1      -8.265   7.152  65.984  1.00  0.00    -0.115 OA 
HETATM    3  C   UNL     1      -7.201   7.547  65.128  1.00  0.00    -0.066 C  
HETATM    4  C   UNL     1      -6.026   8.325  65.698  1.00  0.00    -0.045 C  
HETATM    5  C   UNL     1      -5.811   8.014  67.190  1.00  0.00    -0.042 C  
HETATM    6  C   UNL     1      -6.955   8.476  68.134  1.00  0.00    -0.074 C  
HETATM    7  C   UNL     1      -7.903   9.559  67.563  1.00  0.00    -0.102 C  
HETATM    8  N   UNL     1      -6.428   9.813  65.546  1.00  0.00    -0.079 N  
HETATM    9  C   UNL     1      -7.896   9.679  66.030  1.00  0.00    -0.102 C  
HETATM   10  C   UNL     1      -6.396  10.222  64.061  1.00  0.00    -0.097 C  
HETATM   11  C   UNL     1      -5.558  10.828  66.270  1.00  0.00    -0.104 C  
ENDROOT
BRANCH   6  12
HETATM   12  O   UNL     1      -7.790   7.359  68.516  1.00  0.00    -0.117 OA 
BRANCH  12  13
HETATM   13  C   UNL     1      -7.887   7.071  69.852  1.00  0.00    -0.114 C  
HETATM   14  C   UNL     1      -9.138   6.172  70.124  1.00  0.00    -0.152 C  
HETATM   15  C   UNL     1     -10.219   6.919  70.898  1.00  0.00    -0.197 A  
HETATM   16  O   UNL     1      -9.780   5.768  68.904  1.00  0.00    -0.125 OA 
HETATM   17  C   UNL     1      -8.647   4.907  70.824  1.00  0.00    -0.113 A  
HETATM   18  O   UNL     1      -7.041   7.423  70.665  1.00  0.00    -0.058 OA 
HETATM   19  C   UNL     1     -11.588   6.682  70.871  1.00  0.00    -0.416 A  
HETATM   20  C   UNL     1      -8.507   4.659  72.181  1.00  0.00    -0.118 A  
HETATM   21  H   UNL     1     -10.540   5.222  69.069  1.00  0.00     0.000 HD 
HETATM   22  C   UNL     1      -7.984   3.363  72.459  1.00  0.00    -0.068 A  
HETATM   23  C   UNL     1     -12.327   7.556  71.717  1.00  0.00    -0.357 A  
HETATM   24  C   UNL     1     -11.508   8.433  72.386  1.00  0.00    -0.380 A  
HETATM   25  C   UNL     1      -7.729   2.653  71.310  1.00  0.00    -0.044 A  
HETATM   26  S   UNL     1      -9.865   8.206  71.987  1.00  0.00    -0.259 SA 
HETATM   27  S   UNL     1      -8.084   3.557  69.906  1.00  0.00    -0.048 SA 
ENDBRANCH  12  13
ENDBRANCH   6  12
TORSDOF 2
ENDMDL
MODEL      146
REMARK 921   NORMALIZED FREE ENERGY PREDICTED BY IDOCK:   -2.83 KCAL/MOL
REMARK 922        TOTAL FREE ENERGY PREDICTED BY IDOCK:   -4.14 KCAL/MOL
REMARK 923 INTER-LIGAND FREE ENERGY PREDICTED BY IDOCK:   -3.90 KCAL/MOL
REMARK 924 INTRA-LIGAND FREE ENERGY PREDICTED BY IDOCK:   -0.25 KCAL/MOL
REMARK 927      BINDING AFFINITY PREDICTED BY RF-SCORE:    0.00 PKD
ROOT
HETATM    1  C   UNL     1     -11.242   7.363  71.384  1.00  0.00    -0.246 C  
HETATM    2  O   UNL     1     -10.311   8.412  71.135  1.00  0.00    -0.200 OA 
HETATM    3  C   UNL     1      -9.827   7.325  71.913  1.00  0.00    -0.162 C  
HETATM    4  C   UNL     1      -9.161   6.144  71.222  1.00  0.00    -0.150 C  
HETATM    5  C   UNL     1      -8.512   6.559  69.890  1.00  0.00    -0.135 C  
HETATM    6  C   UNL     1      -9.502   7.024  68.788  1.00  0.00    -0.136 C  
HETATM    7  C   UNL     1     -10.975   6.588  68.979  1.00  0.00    -0.378 C  
HETATM    8  N   UNL     1     -10.318   5.155  70.933  1.00  0.00    -0.228 N  
HETATM    9  C   UNL     1     -11.350   6.192  70.416  1.00  0.00    -0.328 C  
HETATM   10  C   UNL     1     -10.817   4.523  72.247  1.00  0.00     0.033 C  
HETATM   11  C   UNL     1      -9.998   3.989  70.013  1.00  0.00     0.002 C  
ENDROOT
BRANCH   6  12
HETATM   12  O   UNL     1      -9.511   8.466  68.679  1.00  0.00    -0.146 OA 
BRANCH  12  13
HETATM   13  C   UNL     1      -8.379   9.069  68.193  1.00  0.00    -0.121 C  
HETATM   14  C   UNL     1      -8.721   9.926  66.929  1.00  0.00    -0.128 C  
HETATM   15  C   UNL     1      -8.131   9.327  65.658  1.00  0.00    -0.112 A  
HETATM   16  O   UNL     1     -10.136   9.974  66.685  1.00  0.00    -0.207 OA 
HETATM   17  C   UNL     1      -8.256  11.352  67.207  1.00  0.00    -0.150 A  
HETATM   18  O   UNL     1      -7.294   8.982  68.754  1.00  0.00    -0.074 OA 
HETATM   19  C   UNL     1      -8.614   9.462  64.362  1.00  0.00    -0.214 A  
HETATM   20  C   UNL     1      -7.027  11.937  66.941  1.00  0.00    -0.072 A  
HETATM   21  H   UNL     1     -10.344  10.494  65.917  1.00  0.00     0.000 HD 
HETATM   22  C   UNL     1      -6.949  13.292  67.376  1.00  0.00    -0.105 A  
HETATM   23  C   UNL     1      -7.826   8.780  63.393  1.00  0.00    -0.148 A  
HETATM   24  C   UNL     1      -6.748   8.149  63.964  1.00  0.00    -0.066 A  
HETATM   25  C   UNL     1      -8.115  13.710  67.970  1.00  0.00    -0.161 A  
HETATM   26  S   UNL     1      -6.696   8.374  65.655  1.00  0.00    -0.056 SA 
HETATM   27  S   UNL     1      -9.283  12.467  68.036  1.00  0.00    -0.207 SA 
ENDBRANCH  12  13
ENDBRANCH   6  12
TORSDOF 2
ENDMDL
MODEL      147
REMARK 921   NORMALIZED FREE ENERGY PREDICTED BY IDOCK:   -2.82 KCAL/MOL
REMARK 922        TOTAL FREE ENERGY PREDICTED BY IDOCK:   -4.14 KCAL/MOL
REMARK 923 INTER-LIGAND FREE ENERGY PREDICTED BY IDOCK:   -4.20 KCAL/MOL
REMARK 924 INTRA-LIGAND FREE ENERGY PREDICTED BY IDOCK:    0.06 KCAL/MOL
REMARK 927      BINDING AFFINITY PREDICTED BY RF-SCORE:    0.00 PKD
ROOT
HETATM    1  C   UNL     1     -10.064   8.031  71.200  1.00  0.00    -0.188 C  
HETATM    2  O   UNL     1      -9.083   7.890  70.178  1.00  0.00    -0.151 OA 
HETATM    3  C   UNL     1      -8.678   7.501  71.483  1.00  0.00    -0.116 C  
HETATM    4  C   UNL     1      -8.872   6.061  71.933  1.00  0.00    -0.138 C  
HETATM    5  C   UNL     1      -8.858   5.088  70.741  1.00  0.00    -0.156 C  
HETATM    6  C   UNL     1     -10.037   5.246  69.743  1.00  0.00    -0.264 C  
HETATM    7  C   UNL     1     -11.279   5.997  70.283  1.00  0.00    -0.392 C  
HETATM    8  N   UNL     1     -10.277   6.039  72.585  1.00  0.00    -0.179 N  
HETATM    9  C   UNL     1     -11.014   6.882  71.511  1.00  0.00    -0.238 C  
HETATM   10  C   UNL     1     -10.251   6.796  73.927  1.00  0.00    -0.367 C  
HETATM   11  C   UNL     1     -10.857   4.669  72.898  1.00  0.00    -0.221 C  
ENDROOT
BRANCH   6  12
HETATM   12  O   UNL     1      -9.615   5.951  68.554  1.00  0.00    -0.119 OA 
BRANCH  12  13
HETATM   13  C   UNL     1      -8.576   5.415  67.837  1.00  0.00    -0.104 C  
HETATM   14  C   UNL     1      -8.862   5.526  66.303  1.00  0.00    -0.134 C  
HETATM   15  C   UNL     1      -9.113   4.162  65.670  1.00  0.00    -0.137 A  
HETATM   16  O   UNL     1     -10.058   6.275  66.036  1.00  0.00    -0.399 OA 
HETATM   17  C   UNL     1      -7.696   6.286  65.677  1.00  0.00    -0.093 A  
HETATM   18  O   UNL     1      -7.556   4.997  68.370  1.00  0.00    -0.077 OA 
HETATM   19  C   UNL     1      -9.875   3.887  64.542  1.00  0.00    -0.191 A  
HETATM   20  C   UNL     1      -6.513   5.791  65.149  1.00  0.00    -0.042 A  
HETATM   21  H   UNL     1     -10.232   6.342  65.104  1.00  0.00     0.000 HD 
HETATM   22  C   UNL     1      -5.640   6.814  64.679  1.00  0.00    -0.031 A  
HETATM   23  C   UNL     1      -9.905   2.504  64.206  1.00  0.00    -0.089 A  
HETATM   24  C   UNL     1      -9.152   1.751  65.075  1.00  0.00    -0.120 A  
HETATM   25  C   UNL     1      -6.171   8.069  64.864  1.00  0.00    -0.048 A  
HETATM   26  S   UNL     1      -8.427   2.707  66.287  1.00  0.00    -0.103 SA 
HETATM   27  S   UNL     1      -7.695   8.013  65.632  1.00  0.00    -0.100 SA 
ENDBRANCH  12  13
ENDBRANCH   6  12
TORSDOF 2
ENDMDL
MODEL      148
REMARK 921   NORMALIZED FREE ENERGY PREDICTED BY IDOCK:   -2.80 KCAL/MOL
REMARK 922        TOTAL FREE ENERGY PREDICTED BY IDOCK:   -4.11 KCAL/MOL
REMARK 923 INTER-LIGAND FREE ENERGY PREDICTED BY IDOCK:   -6.69 KCAL/MOL
REMARK 924 INTRA-LIGAND FREE ENERGY PREDICTED BY IDOCK:    2.58 KCAL/MOL
REMARK 927      BINDING AFFINITY PREDICTED BY RF-SCORE:    0.00 PKD
ROOT
HETATM    1  C   UNL     1      -8.064  19.406  68.710  1.00  0.00    -0.353 C  
HETATM    2  O   UNL     1      -9.376  18.891  68.917  1.00  0.00    -0.341 OA 
HETATM    3  C   UNL     1      -9.217  19.751  67.796  1.00  0.00    -0.338 C  
HETATM    4  C   UNL     1      -8.859  19.161  66.441  1.00  0.00    -0.338 C  
HETATM    5  C   UNL     1      -9.357  17.711  66.305  1.00  0.00    -0.217 C  
HETATM    6  C   UNL     1      -8.683  16.688  67.258  1.00  0.00    -0.191 C  
HETATM    7  C   UNL     1      -7.328  17.125  67.866  1.00  0.00    -0.185 C  
HETATM    8  N   UNL     1      -7.311  19.168  66.406  1.00  0.00    -0.237 N  
HETATM    9  C   UNL     1      -7.071  18.640  67.845  1.00  0.00    -0.233 C  
HETATM   10  C   UNL     1      -6.789  20.612  66.278  1.00  0.00    -0.214 C  
HETATM   11  C   UNL     1      -6.655  18.393  65.274  1.00  0.00    -0.091 C  
ENDROOT
BRANCH   6  12
HETATM   12  O   UNL     1      -9.551  16.372  68.371  1.00  0.00    -0.209 OA 
BRANCH  12  13
HETATM   13  C   UNL     1     -10.068  15.104  68.428  1.00  0.00    -0.225 C  
HETATM   14  C   UNL     1      -9.507  14.235  67.254  1.00  0.00    -0.220 C  
HETATM   15  C   UNL     1     -10.584  13.899  66.229  1.00  0.00    -0.289 A  
HETATM   16  O   UNL     1      -8.501  14.936  66.506  1.00  0.00    -0.422 OA 
HETATM   17  C   UNL     1      -8.846  13.006  67.872  1.00  0.00    -0.193 A  
HETATM   18  O   UNL     1     -10.798  14.731  69.339  1.00  0.00    -0.247 OA 
HETATM   19  C   UNL     1     -10.404  13.635  64.877  1.00  0.00    -0.408 A  
HETATM   20  C   UNL     1      -9.401  11.770  68.166  1.00  0.00    -0.190 A  
HETATM   21  H   UNL     1      -8.160  14.409  65.793  1.00  0.00     0.000 HD 
HETATM   22  C   UNL     1      -8.476  10.873  68.773  1.00  0.00    -0.150 A  
HETATM   23  C   UNL     1     -11.619  13.349  64.192  1.00  0.00    -0.440 A  
HETATM   24  C   UNL     1     -12.702  13.386  65.037  1.00  0.00    -0.360 A  
HETATM   25  C   UNL     1      -7.237  11.444  68.937  1.00  0.00    -0.113 A  
HETATM   26  S   UNL     1     -12.253  13.770  66.637  1.00  0.00    -0.366 SA 
HETATM   27  S   UNL     1      -7.200  13.063  68.396  1.00  0.00    -0.117 SA 
ENDBRANCH  12  13
ENDBRANCH   6  12
TORSDOF 2
ENDMDL
MODEL      149
REMARK 921   NORMALIZED FREE ENERGY PREDICTED BY IDOCK:   -2.76 KCAL/MOL
REMARK 922        TOTAL FREE ENERGY PREDICTED BY IDOCK:   -4.06 KCAL/MOL
REMARK 923 INTER-LIGAND FREE ENERGY PREDICTED BY IDOCK:   -3.73 KCAL/MOL
REMARK 924 INTRA-LIGAND FREE ENERGY PREDICTED BY IDOCK:   -0.33 KCAL/MOL
REMARK 927      BINDING AFFINITY PREDICTED BY RF-SCORE:    0.00 PKD
ROOT
HETATM    1  C   UNL     1      -8.097  18.709  67.740  1.00  0.00    -0.251 C  
HETATM    2  O   UNL     1      -7.900  17.757  68.780  1.00  0.00    -0.287 OA 
HETATM    3  C   UNL     1      -9.161  18.412  68.771  1.00  0.00    -0.254 C  
HETATM    4  C   UNL     1     -10.321  17.799  68.000  1.00  0.00    -0.393 C  
HETATM    5  C   UNL     1     -10.184  16.270  67.893  1.00  0.00    -0.261 C  
HETATM    6  C   UNL     1      -8.977  15.770  67.054  1.00  0.00    -0.224 C  
HETATM    7  C   UNL     1      -8.361  16.804  66.079  1.00  0.00    -0.187 C  
HETATM    8  N   UNL     1     -10.221  18.415  66.583  1.00  0.00    -0.373 N  
HETATM    9  C   UNL     1      -8.686  18.270  66.405  1.00  0.00    -0.241 C  
HETATM   10  C   UNL     1     -10.611  19.905  66.623  1.00  0.00    -0.421 C  
HETATM   11  C   UNL     1     -11.097  17.790  65.509  1.00  0.00     0.480 C  
ENDROOT
BRANCH   6  12
HETATM   12  O   UNL     1      -7.903  15.323  67.912  1.00  0.00    -0.125 OA 
BRANCH  12  13
HETATM   13  C   UNL     1      -8.153  14.253  68.732  1.00  0.00    -0.109 C  
HETATM   14  C   UNL     1      -8.248  12.937  67.892  1.00  0.00    -0.165 C  
HETATM   15  C   UNL     1      -9.667  12.381  67.861  1.00  0.00    -0.204 A  
HETATM   16  O   UNL     1      -7.915  13.159  66.512  1.00  0.00    -0.257 OA 
HETATM   17  C   UNL     1      -7.220  11.961  68.459  1.00  0.00    -0.100 A  
HETATM   18  O   UNL     1      -8.204  14.356  69.951  1.00  0.00     0.417 OA 
HETATM   19  C   UNL     1     -10.242  11.600  66.866  1.00  0.00    -0.244 A  
HETATM   20  C   UNL     1      -7.375  11.015  69.461  1.00  0.00    -0.064 A  
HETATM   21  H   UNL     1      -7.973  12.360  66.002  1.00  0.00     0.000 HD 
HETATM   22  C   UNL     1      -6.174  10.303  69.746  1.00  0.00    -0.060 A  
HETATM   23  C   UNL     1     -11.591  11.238  67.144  1.00  0.00    -0.113 A  
HETATM   24  C   UNL     1     -12.015  11.738  68.351  1.00  0.00    -0.183 A  
HETATM   25  C   UNL     1      -5.127  10.724  68.960  1.00  0.00    -0.041 A  
HETATM   26  S   UNL     1     -10.798  12.640  69.135  1.00  0.00    -0.000 SA 
HETATM   27  S   UNL     1      -5.581  11.994  67.914  1.00  0.00    -0.069 SA 
ENDBRANCH  12  13
ENDBRANCH   6  12
TORSDOF 2
ENDMDL
MODEL      150
REMARK 921   NORMALIZED FREE ENERGY PREDICTED BY IDOCK:   -2.71 KCAL/MOL
REMARK 922        TOTAL FREE ENERGY PREDICTED BY IDOCK:   -4.01 KCAL/MOL
REMARK 923 INTER-LIGAND FREE ENERGY PREDICTED BY IDOCK:   -3.36 KCAL/MOL
REMARK 924 INTRA-LIGAND FREE ENERGY PREDICTED BY IDOCK:   -0.64 KCAL/MOL
REMARK 927      BINDING AFFINITY PREDICTED BY RF-SCORE:    0.00 PKD
ROOT
HETATM    1  C   UNL     1      -6.696   8.104  68.047  1.00  0.00    -0.065 C  
HETATM    2  O   UNL     1      -6.398   7.320  69.197  1.00  0.00    -0.034 OA 
HETATM    3  C   UNL     1      -5.340   8.136  68.711  1.00  0.00    -0.031 C  
HETATM    4  C   UNL     1      -5.176   9.551  69.244  1.00  0.00    -0.036 C  
HETATM    5  C   UNL     1      -5.733   9.687  70.672  1.00  0.00    -0.061 C  
HETATM    6  C   UNL     1      -7.269   9.499  70.804  1.00  0.00    -0.091 C  
HETATM    7  C   UNL     1      -8.082   9.663  69.498  1.00  0.00    -0.129 C  
HETATM    8  N   UNL     1      -6.019  10.431  68.288  1.00  0.00    -0.040 N  
HETATM    9  C   UNL     1      -7.264   9.508  68.205  1.00  0.00    -0.076 C  
HETATM   10  C   UNL     1      -5.336  10.523  66.910  1.00  0.00    -0.043 C  
HETATM   11  C   UNL     1      -6.259  11.868  68.724  1.00  0.00    -0.058 C  
ENDROOT
BRANCH   6  12
HETATM   12  O   UNL     1      -7.584   8.187  71.323  1.00  0.00    -0.071 OA 
BRANCH  12  13
HETATM   13  C   UNL     1      -8.901   7.806  71.320  1.00  0.00    -0.133 C  
HETATM   14  C   UNL     1      -9.026   6.288  70.963  1.00  0.00    -0.143 C  
HETATM   15  C   UNL     1      -9.664   6.075  69.595  1.00  0.00    -0.152 A  
HETATM   16  O   UNL     1      -7.740   5.655  70.867  1.00  0.00    -0.091 OA 
HETATM   17  C   UNL     1      -9.784   5.613  72.103  1.00  0.00    -0.153 A  
HETATM   18  O   UNL     1      -9.807   8.566  71.640  1.00  0.00    -0.197 OA 
HETATM   19  C   UNL     1      -9.475   4.998  68.738  1.00  0.00    -0.192 A  
HETATM   20  C   UNL     1     -11.149   5.417  72.248  1.00  0.00    -0.259 A  
HETATM   21  H   UNL     1      -7.816   4.733  70.649  1.00  0.00     0.000 HD 
HETATM   22  C   UNL     1     -11.493   4.772  73.471  1.00  0.00    -0.248 A  
HETATM   23  C   UNL     1     -10.224   5.099  67.532  1.00  0.00    -0.210 A  
HETATM   24  C   UNL     1     -10.982   6.245  67.497  1.00  0.00    -0.350 A  
HETATM   25  C   UNL     1     -10.385   4.496  74.237  1.00  0.00    -0.251 A  
HETATM   26  S   UNL     1     -10.781   7.189  68.903  1.00  0.00    -0.135 SA 
HETATM   27  S   UNL     1      -8.945   5.045  73.502  1.00  0.00    -0.113 SA 
ENDBRANCH  12  13
ENDBRANCH   6  12
TORSDOF 2
ENDMDL
MODEL      151
REMARK 921   NORMALIZED FREE ENERGY PREDICTED BY IDOCK:   -2.68 KCAL/MOL
REMARK 922        TOTAL FREE ENERGY PREDICTED BY IDOCK:   -3.98 KCAL/MOL
REMARK 923 INTER-LIGAND FREE ENERGY PREDICTED BY IDOCK:   -2.92 KCAL/MOL
REMARK 924 INTRA-LIGAND FREE ENERGY PREDICTED BY IDOCK:   -1.06 KCAL/MOL
REMARK 927      BINDING AFFINITY PREDICTED BY RF-SCORE:    0.00 PKD
ROOT
HETATM    1  C   UNL     1     -11.037   4.605  72.578  1.00  0.00     0.006 C  
HETATM    2  O   UNL     1     -10.494   5.893  72.850  1.00  0.00    -0.201 OA 
HETATM    3  C   UNL     1     -10.563   5.003  73.956  1.00  0.00    -0.298 C  
HETATM    4  C   UNL     1      -9.383   4.094  74.264  1.00  0.00    -0.106 C  
HETATM    5  C   UNL     1      -8.056   4.703  73.776  1.00  0.00    -0.105 C  
HETATM    6  C   UNL     1      -7.922   4.848  72.236  1.00  0.00    -0.110 C  
HETATM    7  C   UNL     1      -8.880   3.973  71.391  1.00  0.00    -0.145 C  
HETATM    8  N   UNL     1      -9.667   2.797  73.466  1.00  0.00    -0.098 N  
HETATM    9  C   UNL     1     -10.122   3.467  72.143  1.00  0.00    -0.135 C  
HETATM   10  C   UNL     1     -10.841   2.029  74.102  1.00  0.00    -0.154 C  
HETATM   11  C   UNL     1      -8.526   1.797  73.371  1.00  0.00    -0.057 C  
ENDROOT
BRANCH   6  12
HETATM   12  O   UNL     1      -8.144   6.216  71.826  1.00  0.00    -0.109 OA 
BRANCH  12  13
HETATM   13  C   UNL     1      -7.548   6.632  70.664  1.00  0.00    -0.095 C  
HETATM   14  C   UNL     1      -8.631   7.103  69.637  1.00  0.00    -0.137 C  
HETATM   15  C   UNL     1      -8.739   6.155  68.448  1.00  0.00    -0.115 A  
HETATM   16  O   UNL     1      -9.946   7.110  70.215  1.00  0.00    -0.186 OA 
HETATM   17  C   UNL     1      -8.295   8.539  69.247  1.00  0.00    -0.120 A  
HETATM   18  O   UNL     1      -6.332   6.685  70.530  1.00  0.00    -0.040 OA 
HETATM   19  C   UNL     1      -9.856   5.928  67.653  1.00  0.00    -0.133 A  
HETATM   20  C   UNL     1      -7.497   8.998  68.209  1.00  0.00    -0.083 A  
HETATM   21  H   UNL     1     -10.604   7.396  69.592  1.00  0.00     0.000 HD 
HETATM   22  C   UNL     1      -7.388  10.418  68.176  1.00  0.00    -0.088 A  
HETATM   23  C   UNL     1      -9.625   4.982  66.614  1.00  0.00    -0.166 A  
HETATM   24  C   UNL     1      -8.332   4.516  66.627  1.00  0.00    -0.106 A  
HETATM   25  C   UNL     1      -8.098  11.013  69.191  1.00  0.00    -0.061 A  
HETATM   26  S   UNL     1      -7.413   5.209  67.886  1.00  0.00    -0.076 SA 
HETATM   27  S   UNL     1      -8.860   9.865  70.199  1.00  0.00     0.003 SA 
ENDBRANCH  12  13
ENDBRANCH   6  12
TORSDOF 2
ENDMDL
MODEL      152
REMARK 921   NORMALIZED FREE ENERGY PREDICTED BY IDOCK:   -2.53 KCAL/MOL
REMARK 922        TOTAL FREE ENERGY PREDICTED BY IDOCK:   -3.81 KCAL/MOL
REMARK 923 INTER-LIGAND FREE ENERGY PREDICTED BY IDOCK:   -2.75 KCAL/MOL
REMARK 924 INTRA-LIGAND FREE ENERGY PREDICTED BY IDOCK:   -1.05 KCAL/MOL
REMARK 927      BINDING AFFINITY PREDICTED BY RF-SCORE:    0.00 PKD
ROOT
HETATM    1  C   UNL     1      -9.188  10.038  68.929  1.00  0.00    -0.169 C  
HETATM    2  O   UNL     1      -9.636   8.799  68.388  1.00  0.00    -0.144 OA 
HETATM    3  C   UNL     1      -9.519   9.872  67.464  1.00  0.00    -0.151 C  
HETATM    4  C   UNL     1      -8.209  10.085  66.720  1.00  0.00    -0.121 C  
HETATM    5  C   UNL     1      -7.430   8.767  66.558  1.00  0.00    -0.085 C  
HETATM    6  C   UNL     1      -6.918   8.134  67.880  1.00  0.00    -0.078 C  
HETATM    7  C   UNL     1      -6.837   9.088  69.097  1.00  0.00    -0.054 C  
HETATM    8  N   UNL     1      -7.395  11.044  67.623  1.00  0.00    -0.092 N  
HETATM    9  C   UNL     1      -7.700  10.355  68.980  1.00  0.00    -0.116 C  
HETATM   10  C   UNL     1      -8.016  12.454  67.595  1.00  0.00    -0.164 C  
HETATM   11  C   UNL     1      -5.930  11.233  67.264  1.00  0.00    -0.072 C  
ENDROOT
BRANCH   6  12
HETATM   12  O   UNL     1      -7.758   7.027  68.280  1.00  0.00    -0.111 OA 
BRANCH  12  13
HETATM   13  C   UNL     1      -7.291   6.207  69.274  1.00  0.00    -0.088 C  
HETATM   14  C   UNL     1      -8.414   5.942  70.331  1.00  0.00    -0.131 C  
HETATM   15  C   UNL     1      -8.108   6.609  71.667  1.00  0.00    -0.107 A  
HETATM   16  O   UNL     1      -9.672   6.504  69.924  1.00  0.00    -0.163 OA 
HETATM   17  C   UNL     1      -8.598   4.430  70.429  1.00  0.00    -0.077 A  
HETATM   18  O   UNL     1      -6.171   5.713  69.248  1.00  0.00    -0.026 OA 
HETATM   19  C   UNL     1      -9.023   7.042  72.619  1.00  0.00    -0.141 A  
HETATM   20  C   UNL     1      -7.966   3.526  71.269  1.00  0.00    -0.060 A  
HETATM   21  H   UNL     1     -10.354   6.343  70.566  1.00  0.00     0.000 HD 
HETATM   22  C   UNL     1      -8.376   2.179  71.049  1.00  0.00    -0.073 A  
HETATM   23  C   UNL     1      -8.410   7.620  73.766  1.00  0.00    -0.240 A  
HETATM   24  C   UNL     1      -7.039   7.605  73.675  1.00  0.00    -0.093 A  
HETATM   25  C   UNL     1      -9.307   2.082  70.042  1.00  0.00    -0.100 A  
HETATM   26  S   UNL     1      -6.502   6.906  72.215  1.00  0.00    -0.057 SA 
HETATM   27  S   UNL     1      -9.655   3.601  69.343  1.00  0.00    -0.042 SA 
ENDBRANCH  12  13
ENDBRANCH   6  12
TORSDOF 2
ENDMDL
MODEL      153
REMARK 921   NORMALIZED FREE ENERGY PREDICTED BY IDOCK:   -2.46 KCAL/MOL
REMARK 922        TOTAL FREE ENERGY PREDICTED BY IDOCK:   -3.73 KCAL/MOL
REMARK 923 INTER-LIGAND FREE ENERGY PREDICTED BY IDOCK:   -3.20 KCAL/MOL
REMARK 924 INTRA-LIGAND FREE ENERGY PREDICTED BY IDOCK:   -0.53 KCAL/MOL
REMARK 927      BINDING AFFINITY PREDICTED BY RF-SCORE:    0.00 PKD
ROOT
HETATM    1  C   UNL     1     -12.158  12.923  66.270  1.00  0.00    -0.365 C  
HETATM    2  O   UNL     1     -11.897  11.538  66.468  1.00  0.00    -0.434 OA 
HETATM    3  C   UNL     1     -11.116  12.178  65.468  1.00  0.00    -0.316 C  
HETATM    4  C   UNL     1      -9.783  12.806  65.842  1.00  0.00    -0.198 C  
HETATM    5  C   UNL     1      -9.151  12.110  67.061  1.00  0.00    -0.198 C  
HETATM    6  C   UNL     1      -9.935  12.269  68.393  1.00  0.00    -0.209 C  
HETATM    7  C   UNL     1     -10.947  13.439  68.443  1.00  0.00    -0.291 C  
HETATM    8  N   UNL     1     -10.128  14.268  66.219  1.00  0.00    -0.288 N  
HETATM    9  C   UNL     1     -11.390  13.967  67.069  1.00  0.00    -0.330 C  
HETATM   10  C   UNL     1     -10.517  15.063  64.957  1.00  0.00    -0.386 C  
HETATM   11  C   UNL     1      -9.026  15.074  66.888  1.00  0.00    -0.251 C  
ENDROOT
BRANCH   6  12
HETATM   12  O   UNL     1     -10.679  11.067  68.698  1.00  0.00    -0.175 OA 
BRANCH  12  13
HETATM   13  C   UNL     1     -10.592  10.578  69.976  1.00  0.00    -0.169 C  
HETATM   14  C   UNL     1     -10.950   9.055  69.999  1.00  0.00    -0.214 C  
HETATM   15  C   UNL     1     -12.272   8.791  70.711  1.00  0.00    -0.024 A  
HETATM   16  O   UNL     1     -11.140   8.532  68.675  1.00  0.00    -0.429 OA 
HETATM   17  C   UNL     1      -9.764   8.319  70.617  1.00  0.00    -0.171 A  
HETATM   18  O   UNL     1     -10.205  11.260  70.917  1.00  0.00     2.471 OA 
HETATM   19  C   UNL     1     -13.146   7.734  70.494  1.00  0.00     0.631 A  
HETATM   20  C   UNL     1      -9.525   8.009  71.947  1.00  0.00    -0.240 A  
HETATM   21  H   UNL     1     -11.358   7.607  68.689  1.00  0.00     0.000 HD 
HETATM   22  C   UNL     1      -8.286   7.337  72.149  1.00  0.00    -0.109 A  
HETATM   23  C   UNL     1     -14.296   7.773  71.332  1.00  0.00    -0.513 A  
HETATM   24  C   UNL     1     -14.271   8.852  72.183  1.00  0.00    -0.388 A  
HETATM   25  C   UNL     1      -7.601   7.154  70.971  1.00  0.00    -0.085 A  
HETATM   26  S   UNL     1     -12.876   9.809  71.963  1.00  0.00    -0.382 SA 
HETATM   27  S   UNL     1      -8.431   7.821  69.637  1.00  0.00    -0.134 SA 
ENDBRANCH  12  13
ENDBRANCH   6  12
TORSDOF 2
ENDMDL
MODEL      154
REMARK 921   NORMALIZED FREE ENERGY PREDICTED BY IDOCK:   -2.43 KCAL/MOL
REMARK 922        TOTAL FREE ENERGY PREDICTED BY IDOCK:   -3.69 KCAL/MOL
REMARK 923 INTER-LIGAND FREE ENERGY PREDICTED BY IDOCK:   -3.62 KCAL/MOL
REMARK 924 INTRA-LIGAND FREE ENERGY PREDICTED BY IDOCK:   -0.07 KCAL/MOL
REMARK 927      BINDING AFFINITY PREDICTED BY RF-SCORE:    0.00 PKD
ROOT
HETATM    1  C   UNL     1      -9.446  10.143  66.152  1.00  0.00    -0.188 C  
HETATM    2  O   UNL     1     -10.163   9.016  66.645  1.00  0.00    -0.269 OA 
HETATM    3  C   UNL     1      -9.385   8.793  65.476  1.00  0.00    -0.095 C  
HETATM    4  C   UNL     1      -7.942   8.331  65.610  1.00  0.00    -0.113 C  
HETATM    5  C   UNL     1      -7.719   7.542  66.912  1.00  0.00    -0.110 C  
HETATM    6  C   UNL     1      -7.886   8.362  68.220  1.00  0.00    -0.110 C  
HETATM    7  C   UNL     1      -7.793   9.900  68.067  1.00  0.00    -0.086 C  
HETATM    8  N   UNL     1      -7.114   9.638  65.663  1.00  0.00    -0.093 N  
HETATM    9  C   UNL     1      -8.030  10.421  66.640  1.00  0.00    -0.120 C  
HETATM   10  C   UNL     1      -7.109  10.320  64.281  1.00  0.00    -0.056 C  
HETATM   11  C   UNL     1      -5.652   9.499  66.057  1.00  0.00    -0.048 C  
ENDROOT
BRANCH   6  12
HETATM   12  O   UNL     1      -9.163   8.087  68.840  1.00  0.00    -0.147 OA 
BRANCH  12  13
HETATM   13  C   UNL     1      -9.255   8.253  70.197  1.00  0.00    -0.155 C  
HETATM   14  C   UNL     1      -8.557   7.065  70.938  1.00  0.00    -0.139 C  
HETATM   15  C   UNL     1      -9.561   6.174  71.659  1.00  0.00    -0.151 A  
HETATM   16  O   UNL     1      -7.885   6.186  70.021  1.00  0.00    -0.101 OA 
HETATM   17  C   UNL     1      -7.496   7.663  71.858  1.00  0.00    -0.081 A  
HETATM   18  O   UNL     1      -9.752   9.250  70.707  1.00  0.00    -0.246 OA 
HETATM   19  C   UNL     1      -9.426   4.823  71.954  1.00  0.00    -0.192 A  
HETATM   20  C   UNL     1      -7.614   8.065  73.180  1.00  0.00    -0.188 A  
HETATM   21  H   UNL     1      -7.461   5.465  70.470  1.00  0.00     0.000 HD 
HETATM   22  C   UNL     1      -6.408   8.611  73.706  1.00  0.00    -0.098 A  
HETATM   23  C   UNL     1     -10.547   4.282  72.646  1.00  0.00    -0.215 A  
HETATM   24  C   UNL     1     -11.510   5.234  72.878  1.00  0.00    -0.270 A  
HETATM   25  C   UNL     1      -5.397   8.619  72.775  1.00  0.00    -0.054 A  
HETATM   26  S   UNL     1     -11.066   6.760  72.259  1.00  0.00    -0.262 SA 
HETATM   27  S   UNL     1      -5.911   8.008  71.266  1.00  0.00    -0.034 SA 
ENDBRANCH  12  13
ENDBRANCH   6  12
TORSDOF 2
ENDMDL
MODEL      155
REMARK 921   NORMALIZED FREE ENERGY PREDICTED BY IDOCK:   -2.40 KCAL/MOL
REMARK 922        TOTAL FREE ENERGY PREDICTED BY IDOCK:   -3.66 KCAL/MOL
REMARK 923 INTER-LIGAND FREE ENERGY PREDICTED BY IDOCK:   -2.83 KCAL/MOL
REMARK 924 INTRA-LIGAND FREE ENERGY PREDICTED BY IDOCK:   -0.83 KCAL/MOL
REMARK 927      BINDING AFFINITY PREDICTED BY RF-SCORE:    0.00 PKD
ROOT
HETATM    1  C   UNL     1      -8.151   5.927  70.609  1.00  0.00    -0.118 C  
HETATM    2  O   UNL     1      -7.001   6.268  69.842  1.00  0.00    -0.062 OA 
HETATM    3  C   UNL     1      -6.886   5.101  70.644  1.00  0.00    -0.044 C  
HETATM    4  C   UNL     1      -7.262   3.747  70.060  1.00  0.00    -0.042 C  
HETATM    5  C   UNL     1      -7.081   3.720  68.532  1.00  0.00    -0.051 C  
HETATM    6  C   UNL     1      -8.029   4.657  67.736  1.00  0.00    -0.092 C  
HETATM    7  C   UNL     1      -9.298   5.127  68.488  1.00  0.00    -0.161 C  
HETATM    8  N   UNL     1      -8.766   3.580  70.393  1.00  0.00    -0.069 N  
HETATM    9  C   UNL     1      -9.219   5.016  70.019  1.00  0.00    -0.131 C  
HETATM   10  C   UNL     1      -8.951   3.343  71.904  1.00  0.00    -0.100 C  
HETATM   11  C   UNL     1      -9.487   2.432  69.706  1.00  0.00    -0.051 C  
ENDROOT
BRANCH   6  12
HETATM   12  O   UNL     1      -7.335   5.853  67.314  1.00  0.00    -0.074 OA 
BRANCH  12  13
HETATM   13  C   UNL     1      -8.040   6.763  66.568  1.00  0.00    -0.108 C  
HETATM   14  C   UNL     1      -7.591   8.219  66.922  1.00  0.00    -0.092 C  
HETATM   15  C   UNL     1      -8.682   8.990  67.655  1.00  0.00    -0.124 A  
HETATM   16  O   UNL     1      -6.472   8.228  67.824  1.00  0.00    -0.054 OA 
HETATM   17  C   UNL     1      -7.138   8.883  65.625  1.00  0.00    -0.084 A  
HETATM   18  O   UNL     1      -8.839   6.427  65.703  1.00  0.00    -0.141 OA 
HETATM   19  C   UNL     1      -8.513  10.037  68.553  1.00  0.00    -0.115 A  
HETATM   20  C   UNL     1      -7.881   9.621  64.716  1.00  0.00    -0.128 A  
HETATM   21  H   UNL     1      -6.199   9.112  68.039  1.00  0.00     0.000 HD 
HETATM   22  C   UNL     1      -7.117  10.058  63.596  1.00  0.00    -0.126 A  
HETATM   23  C   UNL     1      -9.741  10.547  69.061  1.00  0.00    -0.221 A  
HETATM   24  C   UNL     1     -10.825   9.890  68.530  1.00  0.00    -0.217 A  
HETATM   25  C   UNL     1      -5.810   9.641  63.669  1.00  0.00    -0.097 A  
HETATM   26  S   UNL     1     -10.360   8.666  67.438  1.00  0.00    -0.288 SA 
HETATM   27  S   UNL     1      -5.515   8.697  65.061  1.00  0.00    -0.039 SA 
ENDBRANCH  12  13
ENDBRANCH   6  12
TORSDOF 2
ENDMDL
MODEL      156
REMARK 921   NORMALIZED FREE ENERGY PREDICTED BY IDOCK:   -2.27 KCAL/MOL
REMARK 922        TOTAL FREE ENERGY PREDICTED BY IDOCK:   -3.52 KCAL/MOL
REMARK 923 INTER-LIGAND FREE ENERGY PREDICTED BY IDOCK:   -3.07 KCAL/MOL
REMARK 924 INTRA-LIGAND FREE ENERGY PREDICTED BY IDOCK:   -0.45 KCAL/MOL
REMARK 927      BINDING AFFINITY PREDICTED BY RF-SCORE:    0.00 PKD
ROOT
HETATM    1  C   UNL     1     -14.123  15.214  71.044  1.00  0.00    -0.261 C  
HETATM    2  O   UNL     1     -13.503  15.389  69.774  1.00  0.00     0.463 OA 
HETATM    3  C   UNL     1     -13.093  16.291  70.794  1.00  0.00     1.654 C  
HETATM    4  C   UNL     1     -11.906  15.939  71.677  1.00  0.00    -0.490 C  
HETATM    5  C   UNL     1     -10.918  15.009  70.952  1.00  0.00    -0.165 C  
HETATM    6  C   UNL     1     -11.464  13.594  70.615  1.00  0.00     0.325 C  
HETATM    7  C   UNL     1     -12.704  13.142  71.425  1.00  0.00    -0.390 C  
HETATM    8  N   UNL     1     -12.522  15.181  72.879  1.00  0.00    -0.373 N  
HETATM    9  C   UNL     1     -13.501  14.284  72.076  1.00  0.00    -0.412 C  
HETATM   10  C   UNL     1     -13.312  16.157  73.773  1.00  0.00    -0.077 C  
HETATM   11  C   UNL     1     -11.547  14.474  73.806  1.00  0.00     0.700 C  
ENDROOT
BRANCH   6  12
HETATM   12  O   UNL     1     -11.828  13.502  69.219  1.00  0.00    -0.301 OA 
BRANCH  12  13
HETATM   13  C   UNL     1     -10.825  13.244  68.321  1.00  0.00    -0.256 C  
HETATM   14  C   UNL     1     -11.114  11.911  67.553  1.00  0.00    -0.273 C  
HETATM   15  C   UNL     1     -10.133  10.810  67.936  1.00  0.00    -0.172 A  
HETATM   16  O   UNL     1     -12.406  11.376  67.881  1.00  0.00    -0.380 OA 
HETATM   17  C   UNL     1     -11.118  12.237  66.062  1.00  0.00    -0.309 A  
HETATM   18  O   UNL     1      -9.899  14.022  68.127  1.00  0.00    -0.221 OA 
HETATM   19  C   UNL     1     -10.353   9.438  67.901  1.00  0.00    -0.276 A  
HETATM   20  C   UNL     1     -10.064  12.214  65.161  1.00  0.00    -0.288 A  
HETATM   21  H   UNL     1     -12.581  10.567  67.416  1.00  0.00     0.000 HD 
HETATM   22  C   UNL     1     -10.445  12.615  63.848  1.00  0.00    -0.441 A  
HETATM   23  C   UNL     1      -9.226   8.675  68.319  1.00  0.00    -0.140 A  
HETATM   24  C   UNL     1      -8.162   9.478  68.651  1.00  0.00    -0.112 A  
HETATM   25  C   UNL     1     -11.779  12.940  63.775  1.00  0.00    -0.492 A  
HETATM   26  S   UNL     1      -8.526  11.134  68.468  1.00  0.00    -0.155 SA 
HETATM   27  S   UNL     1     -12.556  12.799  65.289  1.00  0.00    -0.222 SA 
ENDBRANCH  12  13
ENDBRANCH   6  12
TORSDOF 2
ENDMDL
MODEL      157
REMARK 921   NORMALIZED FREE ENERGY PREDICTED BY IDOCK:   -2.01 KCAL/MOL
REMARK 922        TOTAL FREE ENERGY PREDICTED BY IDOCK:   -3.23 KCAL/MOL
REMARK 923 INTER-LIGAND FREE ENERGY PREDICTED BY IDOCK:   -2.54 KCAL/MOL
REMARK 924 INTRA-LIGAND FREE ENERGY PREDICTED BY IDOCK:   -0.69 KCAL/MOL
REMARK 927      BINDING AFFINITY PREDICTED BY RF-SCORE:    0.00 PKD
ROOT
HETATM    1  C   UNL     1     -13.772  15.249  70.868  1.00  0.00    -0.293 C  
HETATM    2  O   UNL     1     -12.817  16.298  70.743  1.00  0.00     0.023 OA 
HETATM    3  C   UNL     1     -12.669  15.456  71.879  1.00  0.00    -0.387 C  
HETATM    4  C   UNL     1     -11.790  14.219  71.790  1.00  0.00     0.134 C  
HETATM    5  C   UNL     1     -10.678  14.388  70.739  1.00  0.00     0.765 C  
HETATM    6  C   UNL     1     -11.168  14.508  69.270  1.00  0.00    -0.281 C  
HETATM    7  C   UNL     1     -12.602  13.992  68.995  1.00  0.00     0.315 C  
HETATM    8  N   UNL     1     -12.747  13.089  71.333  1.00  0.00    -0.334 N  
HETATM    9  C   UNL     1     -13.500  13.889  70.238  1.00  0.00     0.804 C  
HETATM   10  C   UNL     1     -13.712  12.718  72.475  1.00  0.00    -0.232 C  
HETATM   11  C   UNL     1     -12.097  11.783  70.904  1.00  0.00    -0.167 C  
ENDROOT
BRANCH   6  12
HETATM   12  O   UNL     1     -11.134  15.884  68.827  1.00  0.00    -0.286 OA 
BRANCH  12  13
HETATM   13  C   UNL     1     -10.275  16.197  67.805  1.00  0.00    -0.267 C  
HETATM   14  C   UNL     1      -9.354  17.393  68.216  1.00  0.00    -0.278 C  
HETATM   15  C   UNL     1      -9.677  18.657  67.428  1.00  0.00    -0.306 A  
HETATM   16  O   UNL     1      -9.545  17.764  69.591  1.00  0.00     0.292 OA 
HETATM   17  C   UNL     1      -7.909  16.928  68.064  1.00  0.00    -0.179 A  
HETATM   18  O   UNL     1     -10.221  15.547  66.768  1.00  0.00    -0.267 OA 
HETATM   19  C   UNL     1      -9.483  19.972  67.833  1.00  0.00    -0.467 A  
HETATM   20  C   UNL     1      -7.075  17.016  66.959  1.00  0.00    -0.228 A  
HETATM   21  H   UNL     1      -8.986  18.490  69.841  1.00  0.00     0.000 HD 
HETATM   22  C   UNL     1      -5.792  16.440  67.182  1.00  0.00    -0.146 A  
HETATM   23  C   UNL     1      -9.884  20.927  66.857  1.00  0.00    -0.096 A  
HETATM   24  C   UNL     1     -10.364  20.324  65.719  1.00  0.00    -0.161 A  
HETATM   25  C   UNL     1      -5.674  15.919  68.448  1.00  0.00    -0.108 A  
HETATM   26  S   UNL     1     -10.335  18.622  65.837  1.00  0.00    -0.197 SA 
HETATM   27  S   UNL     1      -7.114  16.091  69.349  1.00  0.00    -0.192 SA 
ENDBRANCH  12  13
ENDBRANCH   6  12
TORSDOF 2
ENDMDL
MODEL      158
REMARK 921   NORMALIZED FREE ENERGY PREDICTED BY IDOCK:   -2.01 KCAL/MOL
REMARK 922        TOTAL FREE ENERGY PREDICTED BY IDOCK:   -3.22 KCAL/MOL
REMARK 923 INTER-LIGAND FREE ENERGY PREDICTED BY IDOCK:   -2.17 KCAL/MOL
REMARK 924 INTRA-LIGAND FREE ENERGY PREDICTED BY IDOCK:   -1.05 KCAL/MOL
REMARK 927      BINDING AFFINITY PREDICTED BY RF-SCORE:    0.00 PKD
ROOT
HETATM    1  C   UNL     1      -7.331   9.885  69.416  1.00  0.00    -0.091 C  
HETATM    2  O   UNL     1      -8.091   9.137  70.359  1.00  0.00    -0.115 OA 
HETATM    3  C   UNL     1      -8.483  10.491  70.182  1.00  0.00     0.655 C  
HETATM    4  C   UNL     1      -9.533  10.841  69.139  1.00  0.00    -0.134 C  
HETATM    5  C   UNL     1     -10.493   9.665  68.886  1.00  0.00    -0.234 C  
HETATM    6  C   UNL     1      -9.845   8.408  68.242  1.00  0.00    -0.169 C  
HETATM    7  C   UNL     1      -8.491   8.640  67.529  1.00  0.00    -0.124 C  
HETATM    8  N   UNL     1      -8.726  11.120  67.847  1.00  0.00    -0.132 N  
HETATM    9  C   UNL     1      -7.749   9.918  67.952  1.00  0.00    -0.090 C  
HETATM   10  C   UNL     1      -7.950  12.445  67.982  1.00  0.00    -0.155 C  
HETATM   11  C   UNL     1      -9.527  11.242  66.561  1.00  0.00    -0.193 C  
ENDROOT
BRANCH   6  12
HETATM   12  O   UNL     1      -9.618   7.381  69.234  1.00  0.00    -0.154 OA 
BRANCH  12  13
HETATM   13  C   UNL     1      -9.554   6.084  68.796  1.00  0.00    -0.129 C  
HETATM   14  C   UNL     1      -8.155   5.467  69.129  1.00  0.00    -0.095 C  
HETATM   15  C   UNL     1      -7.328   5.219  67.872  1.00  0.00    -0.076 A  
HETATM   16  O   UNL     1      -7.353   6.359  69.920  1.00  0.00    -0.078 OA 
HETATM   17  C   UNL     1      -8.397   4.210  69.960  1.00  0.00    -0.061 A  
HETATM   18  O   UNL     1     -10.513   5.510  68.296  1.00  0.00    -0.191 OA 
HETATM   19  C   UNL     1      -5.943   5.196  67.769  1.00  0.00    -0.022 A  
HETATM   20  C   UNL     1      -8.574   2.902  69.534  1.00  0.00    -0.115 A  
HETATM   21  H   UNL     1      -6.504   5.985  70.122  1.00  0.00     0.000 HD 
HETATM   22  C   UNL     1      -8.811   1.994  70.605  1.00  0.00    -0.126 A  
HETATM   23  C   UNL     1      -5.481   4.931  66.448  1.00  0.00    -0.013 A  
HETATM   24  C   UNL     1      -6.522   4.742  65.572  1.00  0.00    -0.040 A  
HETATM   25  C   UNL     1      -8.817   2.627  71.825  1.00  0.00    -0.075 A  
HETATM   26  S   UNL     1      -8.039   4.893  66.337  1.00  0.00    -0.107 SA 
HETATM   27  S   UNL     1      -8.575   4.311  71.675  1.00  0.00    -0.110 SA 
ENDBRANCH  12  13
ENDBRANCH   6  12
TORSDOF 2
ENDMDL
MODEL      159
REMARK 921   NORMALIZED FREE ENERGY PREDICTED BY IDOCK:   -1.97 KCAL/MOL
REMARK 922        TOTAL FREE ENERGY PREDICTED BY IDOCK:   -3.18 KCAL/MOL
REMARK 923 INTER-LIGAND FREE ENERGY PREDICTED BY IDOCK:   -2.41 KCAL/MOL
REMARK 924 INTRA-LIGAND FREE ENERGY PREDICTED BY IDOCK:   -0.77 KCAL/MOL
REMARK 927      BINDING AFFINITY PREDICTED BY RF-SCORE:    0.00 PKD
ROOT
HETATM    1  C   UNL     1      -8.376   8.455  67.432  1.00  0.00    -0.124 C  
HETATM    2  O   UNL     1      -9.429   7.843  68.170  1.00  0.00    -0.145 OA 
HETATM    3  C   UNL     1      -9.716   8.135  66.809  1.00  0.00    -0.235 C  
HETATM    4  C   UNL     1      -9.433   7.091  65.740  1.00  0.00     0.312 C  
HETATM    5  C   UNL     1      -9.506   5.663  66.310  1.00  0.00    -0.171 C  
HETATM    6  C   UNL     1      -8.415   5.313  67.358  1.00  0.00    -0.106 C  
HETATM    7  C   UNL     1      -7.163   6.223  67.358  1.00  0.00    -0.075 C  
HETATM    8  N   UNL     1      -7.981   7.378  65.283  1.00  0.00    -0.121 N  
HETATM    9  C   UNL     1      -7.363   7.594  66.690  1.00  0.00    -0.088 C  
HETATM   10  C   UNL     1      -7.929   8.690  64.476  1.00  0.00    -0.144 C  
HETATM   11  C   UNL     1      -7.328   6.327  64.401  1.00  0.00    -0.074 C  
ENDROOT
BRANCH   6  12
HETATM   12  O   UNL     1      -8.956   5.358  68.698  1.00  0.00    -0.106 OA 
BRANCH  12  13
HETATM   13  C   UNL     1      -8.087   5.148  69.738  1.00  0.00    -0.082 C  
HETATM   14  C   UNL     1      -8.406   6.124  70.918  1.00  0.00    -0.127 C  
HETATM   15  C   UNL     1      -7.313   7.171  71.104  1.00  0.00    -0.075 A  
HETATM   16  O   UNL     1      -9.599   6.886  70.671  1.00  0.00    -0.169 OA 
HETATM   17  C   UNL     1      -8.656   5.272  72.159  1.00  0.00    -0.126 A  
HETATM   18  O   UNL     1      -7.249   4.254  69.726  1.00  0.00    -0.048 OA 
HETATM   19  C   UNL     1      -7.453   8.446  71.636  1.00  0.00    -0.118 A  
HETATM   20  C   UNL     1      -7.751   4.839  73.116  1.00  0.00    -0.092 A  
HETATM   21  H   UNL     1      -9.793   7.479  71.387  1.00  0.00     0.000 HD 
HETATM   22  C   UNL     1      -8.350   4.026  74.122  1.00  0.00    -0.094 A  
HETATM   23  C   UNL     1      -6.232   9.176  71.677  1.00  0.00    -0.056 A  
HETATM   24  C   UNL     1      -5.180   8.439  71.190  1.00  0.00    -0.029 A  
HETATM   25  C   UNL     1      -9.697   3.851  73.908  1.00  0.00    -0.107 A  
HETATM   26  S   UNL     1      -5.668   6.886  70.681  1.00  0.00    -0.024 SA 
HETATM   27  S   UNL     1     -10.226   4.630  72.484  1.00  0.00    -0.189 SA 
ENDBRANCH  12  13
ENDBRANCH   6  12
TORSDOF 2
ENDMDL
MODEL      160
REMARK 921   NORMALIZED FREE ENERGY PREDICTED BY IDOCK:   -1.90 KCAL/MOL
REMARK 922        TOTAL FREE ENERGY PREDICTED BY IDOCK:   -3.10 KCAL/MOL
REMARK 923 INTER-LIGAND FREE ENERGY PREDICTED BY IDOCK:   -2.11 KCAL/MOL
REMARK 924 INTRA-LIGAND FREE ENERGY PREDICTED BY IDOCK:   -0.99 KCAL/MOL
REMARK 927      BINDING AFFINITY PREDICTED BY RF-SCORE:    0.00 PKD
ROOT
HETATM    1  C   UNL     1     -11.882   9.768  67.836  1.00  0.00     1.814 C  
HETATM    2  O   UNL     1     -11.202   8.648  68.391  1.00  0.00     0.245 OA 
HETATM    3  C   UNL     1     -10.566   9.272  67.284  1.00  0.00    -0.233 C  
HETATM    4  C   UNL     1      -9.569  10.396  67.524  1.00  0.00    -0.156 C  
HETATM    5  C   UNL     1      -8.891  10.266  68.899  1.00  0.00    -0.157 C  
HETATM    6  C   UNL     1      -9.832  10.442  70.121  1.00  0.00     0.213 C  
HETATM    7  C   UNL     1     -11.174  11.161  69.839  1.00  0.00    -0.293 C  
HETATM    8  N   UNL     1     -10.422  11.689  67.502  1.00  0.00    -0.195 N  
HETATM    9  C   UNL     1     -11.603  11.170  68.363  1.00  0.00    -0.306 C  
HETATM   10  C   UNL     1     -10.902  11.983  66.068  1.00  0.00    -0.289 C  
HETATM   11  C   UNL     1      -9.736  12.960  67.975  1.00  0.00    -0.224 C  
ENDROOT
BRANCH   6  12
HETATM   12  O   UNL     1     -10.166   9.161  70.702  1.00  0.00    -0.209 OA 
BRANCH  12  13
HETATM   13  C   UNL     1      -9.195   8.526  71.432  1.00  0.00    -0.210 C  
HETATM   14  C   UNL     1      -9.185   6.996  71.107  1.00  0.00    -0.157 C  
HETATM   15  C   UNL     1      -9.667   6.159  72.286  1.00  0.00    -0.155 A  
HETATM   16  O   UNL     1     -10.089   6.672  70.038  1.00  0.00    -0.174 OA 
HETATM   17  C   UNL     1      -7.777   6.640  70.638  1.00  0.00    -0.104 A  
HETATM   18  O   UNL     1      -8.418   9.131  72.161  1.00  0.00    -0.301 OA 
HETATM   19  C   UNL     1     -10.277   4.911  72.237  1.00  0.00    -0.254 A  
HETATM   20  C   UNL     1      -6.689   6.215  71.387  1.00  0.00    -0.055 A  
HETATM   21  H   UNL     1     -10.083   5.743  69.840  1.00  0.00     0.000 HD 
HETATM   22  C   UNL     1      -5.518   6.009  70.601  1.00  0.00    -0.013 A  
HETATM   23  C   UNL     1     -10.603   4.393  73.522  1.00  0.00    -0.299 A  
HETATM   24  C   UNL     1     -10.222   5.247  74.528  1.00  0.00    -0.272 A  
HETATM   25  C   UNL     1      -5.734   6.286  69.272  1.00  0.00    -0.020 A  
HETATM   26  S   UNL     1      -9.487   6.663  73.923  1.00  0.00    -0.212 SA 
HETATM   27  S   UNL     1      -7.327   6.827  68.981  1.00  0.00    -0.096 SA 
ENDBRANCH  12  13
ENDBRANCH   6  12
TORSDOF 2
ENDMDL
MODEL      161
REMARK 921   NORMALIZED FREE ENERGY PREDICTED BY IDOCK:   -1.58 KCAL/MOL
REMARK 922        TOTAL FREE ENERGY PREDICTED BY IDOCK:   -2.75 KCAL/MOL
REMARK 923 INTER-LIGAND FREE ENERGY PREDICTED BY IDOCK:   -3.80 KCAL/MOL
REMARK 924 INTRA-LIGAND FREE ENERGY PREDICTED BY IDOCK:    1.05 KCAL/MOL
REMARK 927      BINDING AFFINITY PREDICTED BY RF-SCORE:    0.00 PKD
ROOT
HETATM    1  C   UNL     1      -7.878   9.387  67.781  1.00  0.00    -0.095 C  
HETATM    2  O   UNL     1      -7.744   8.952  69.130  1.00  0.00    -0.088 OA 
HETATM    3  C   UNL     1      -8.013  10.336  68.948  1.00  0.00    -0.113 C  
HETATM    4  C   UNL     1      -9.453  10.825  68.917  1.00  0.00    -0.181 C  
HETATM    5  C   UNL     1     -10.381   9.904  69.728  1.00  0.00    -0.278 C  
HETATM    6  C   UNL     1     -10.546   8.467  69.164  1.00  0.00    -0.163 C  
HETATM    7  C   UNL     1     -10.163   8.280  67.676  1.00  0.00    -0.294 C  
HETATM    8  N   UNL     1      -9.858  10.760  67.423  1.00  0.00    -0.174 N  
HETATM    9  C   UNL     1      -9.243   9.371  67.105  1.00  0.00    -0.134 C  
HETATM   10  C   UNL     1      -9.126  11.857  66.627  1.00  0.00    -0.203 C  
HETATM   11  C   UNL     1     -11.334  10.943  67.113  1.00  0.00    -0.088 C  
ENDROOT
BRANCH   6  12
HETATM   12  O   UNL     1      -9.749   7.524  69.916  1.00  0.00    -0.170 OA 
BRANCH  12  13
HETATM   13  C   UNL     1      -9.543   7.790  71.245  1.00  0.00    -0.157 C  
HETATM   14  C   UNL     1      -8.501   6.787  71.844  1.00  0.00    -0.116 C  
HETATM   15  C   UNL     1      -9.144   5.820  72.832  1.00  0.00    -0.122 A  
HETATM   16  O   UNL     1      -7.930   5.944  70.831  1.00  0.00    -0.107 OA 
HETATM   17  C   UNL     1      -7.368   7.614  72.445  1.00  0.00    -0.078 A  
HETATM   18  O   UNL     1     -10.064   8.741  71.815  1.00  0.00    -0.277 OA 
HETATM   19  C   UNL     1      -8.720   4.535  73.147  1.00  0.00    -0.108 A  
HETATM   20  C   UNL     1      -7.235   8.105  73.735  1.00  0.00    -0.186 A  
HETATM   21  H   UNL     1      -7.297   5.335  71.194  1.00  0.00     0.000 HD 
HETATM   22  C   UNL     1      -6.046   8.868  73.920  1.00  0.00    -0.060 A  
HETATM   23  C   UNL     1      -9.539   3.894  74.118  1.00  0.00    -0.126 A  
HETATM   24  C   UNL     1     -10.565   4.706  74.537  1.00  0.00    -0.189 A  
HETATM   25  C   UNL     1      -5.300   8.949  72.769  1.00  0.00    -0.070 A  
HETATM   26  S   UNL     1     -10.540   6.223  73.758  1.00  0.00    -0.182 SA 
HETATM   27  S   UNL     1      -6.048   8.141  71.463  1.00  0.00    -0.040 SA 
ENDBRANCH  12  13
ENDBRANCH   6  12
TORSDOF 2
ENDMDL
MODEL      162
REMARK 921   NORMALIZED FREE ENERGY PREDICTED BY IDOCK:   -1.50 KCAL/MOL
REMARK 922        TOTAL FREE ENERGY PREDICTED BY IDOCK:   -2.66 KCAL/MOL
REMARK 923 INTER-LIGAND FREE ENERGY PREDICTED BY IDOCK:   -2.06 KCAL/MOL
REMARK 924 INTRA-LIGAND FREE ENERGY PREDICTED BY IDOCK:   -0.60 KCAL/MOL
REMARK 927      BINDING AFFINITY PREDICTED BY RF-SCORE:    0.00 PKD
ROOT
HETATM    1  C   UNL     1     -10.829  15.838  70.386  1.00  0.00    -0.329 C  
HETATM    2  O   UNL     1     -10.048  14.677  70.125  1.00  0.00     0.214 OA 
HETATM    3  C   UNL     1     -10.548  14.803  71.450  1.00  0.00     1.074 C  
HETATM    4  C   UNL     1     -11.898  14.200  71.805  1.00  0.00     0.275 C  
HETATM    5  C   UNL     1     -12.234  12.995  70.908  1.00  0.00    -0.310 C  
HETATM    6  C   UNL     1     -12.445  13.327  69.406  1.00  0.00     0.129 C  
HETATM    7  C   UNL     1     -12.751  14.809  69.080  1.00  0.00     0.325 C  
HETATM    8  N   UNL     1     -12.919  15.332  71.531  1.00  0.00    -0.376 N  
HETATM    9  C   UNL     1     -12.337  15.808  70.173  1.00  0.00    -0.279 C  
HETATM   10  C   UNL     1     -12.773  16.445  72.587  1.00  0.00    -0.040 C  
HETATM   11  C   UNL     1     -14.387  14.940  71.547  1.00  0.00    -0.539 C  
ENDROOT
BRANCH   6  12
HETATM   12  O   UNL     1     -11.279  12.967  68.630  1.00  0.00    -0.248 OA 
BRANCH  12  13
HETATM   13  C   UNL     1     -11.414  11.947  67.724  1.00  0.00    -0.319 C  
HETATM   14  C   UNL     1     -10.368  12.104  66.571  1.00  0.00    -0.213 C  
HETATM   15  C   UNL     1     -11.031  12.463  65.246  1.00  0.00    -0.298 A  
HETATM   16  O   UNL     1      -9.454  13.183  66.823  1.00  0.00    -0.239 OA 
HETATM   17  C   UNL     1      -9.552  10.816  66.518  1.00  0.00    -0.183 A  
HETATM   18  O   UNL     1     -12.202  11.023  67.884  1.00  0.00    -0.438 OA 
HETATM   19  C   UNL     1     -10.468  13.168  64.188  1.00  0.00    -0.348 A  
HETATM   20  C   UNL     1      -9.787   9.663  65.785  1.00  0.00    -0.373 A  
HETATM   21  H   UNL     1      -8.819  13.279  66.123  1.00  0.00     0.000 HD 
HETATM   22  C   UNL     1      -8.817   8.646  66.019  1.00  0.00    -0.213 A  
HETATM   23  C   UNL     1     -11.353  13.331  63.086  1.00  0.00     0.511 A  
HETATM   24  C   UNL     1     -12.570  12.737  63.316  1.00  0.00    -0.117 A  
HETATM   25  C   UNL     1      -7.866   9.040  66.930  1.00  0.00    -0.101 A  
HETATM   26  S   UNL     1     -12.641  11.997  64.851  1.00  0.00     0.486 SA 
HETATM   27  S   UNL     1      -8.163  10.613  67.525  1.00  0.00    -0.111 SA 
ENDBRANCH  12  13
ENDBRANCH   6  12
TORSDOF 2
ENDMDL
MODEL      163
REMARK 921   NORMALIZED FREE ENERGY PREDICTED BY IDOCK:   -1.45 KCAL/MOL
REMARK 922        TOTAL FREE ENERGY PREDICTED BY IDOCK:   -2.60 KCAL/MOL
REMARK 923 INTER-LIGAND FREE ENERGY PREDICTED BY IDOCK:   -2.32 KCAL/MOL
REMARK 924 INTRA-LIGAND FREE ENERGY PREDICTED BY IDOCK:   -0.29 KCAL/MOL
REMARK 927      BINDING AFFINITY PREDICTED BY RF-SCORE:    0.00 PKD
ROOT
HETATM    1  C   UNL     1      -6.781   7.000  69.594  1.00  0.00    -0.049 C  
HETATM    2  O   UNL     1      -6.507   5.946  70.512  1.00  0.00    -0.034 OA 
HETATM    3  C   UNL     1      -5.412   6.799  70.203  1.00  0.00    -0.019 C  
HETATM    4  C   UNL     1      -5.156   8.032  71.056  1.00  0.00    -0.026 C  
HETATM    5  C   UNL     1      -5.677   7.846  72.492  1.00  0.00    -0.041 C  
HETATM    6  C   UNL     1      -7.218   7.713  72.624  1.00  0.00    -0.079 C  
HETATM    7  C   UNL     1      -8.045   8.232  71.422  1.00  0.00    -0.148 C  
HETATM    8  N   UNL     1      -5.963   9.161  70.368  1.00  0.00    -0.038 N  
HETATM    9  C   UNL     1      -7.261   8.352  70.105  1.00  0.00    -0.050 C  
HETATM   10  C   UNL     1      -5.301   9.547  69.031  1.00  0.00    -0.036 C  
HETATM   11  C   UNL     1      -6.109  10.459  71.144  1.00  0.00     0.134 C  
ENDROOT
BRANCH   6  12
HETATM   12  O   UNL     1      -7.601   6.333  72.821  1.00  0.00    -0.101 OA 
BRANCH  12  13
HETATM   13  C   UNL     1      -8.936   6.030  72.744  1.00  0.00    -0.123 C  
HETATM   14  C   UNL     1      -9.155   4.768  71.846  1.00  0.00    -0.135 C  
HETATM   15  C   UNL     1      -9.850   5.115  70.534  1.00  0.00    -0.215 A  
HETATM   16  O   UNL     1      -7.908   4.173  71.449  1.00  0.00    -0.068 OA 
HETATM   17  C   UNL     1      -9.907   3.738  72.684  1.00  0.00    -0.151 A  
HETATM   18  O   UNL     1      -9.787   6.644  73.375  1.00  0.00    -0.168 OA 
HETATM   19  C   UNL     1      -9.749   4.438  69.325  1.00  0.00    -0.252 A  
HETATM   20  C   UNL     1     -11.275   3.551  72.815  1.00  0.00     0.183 A  
HETATM   21  H   UNL     1      -8.041   3.407  70.904  1.00  0.00     0.000 HD 
HETATM   22  C   UNL     1     -11.610   2.502  73.720  1.00  0.00    -0.113 A  
HETATM   23  C   UNL     1     -10.533   5.018  68.288  1.00  0.00    -0.015 A  
HETATM   24  C   UNL     1     -11.229   6.118  68.729  1.00  0.00    -0.224 A  
HETATM   25  C   UNL     1     -10.492   1.916  74.264  1.00  0.00    -0.130 A  
HETATM   26  S   UNL     1     -10.929   6.448  70.376  1.00  0.00    -0.337 SA 
HETATM   27  S   UNL     1      -9.051   2.650  73.717  1.00  0.00    -0.081 SA 
ENDBRANCH  12  13
ENDBRANCH   6  12
TORSDOF 2
ENDMDL
MODEL      164
REMARK 921   NORMALIZED FREE ENERGY PREDICTED BY IDOCK:   -1.35 KCAL/MOL
REMARK 922        TOTAL FREE ENERGY PREDICTED BY IDOCK:   -2.49 KCAL/MOL
REMARK 923 INTER-LIGAND FREE ENERGY PREDICTED BY IDOCK:   -2.01 KCAL/MOL
REMARK 924 INTRA-LIGAND FREE ENERGY PREDICTED BY IDOCK:   -0.47 KCAL/MOL
REMARK 927      BINDING AFFINITY PREDICTED BY RF-SCORE:    0.00 PKD
ROOT
HETATM    1  C   UNL     1      -8.813   5.904  64.733  1.00  0.00     0.167 C  
HETATM    2  O   UNL     1      -9.529   5.935  65.963  1.00  0.00    -0.144 OA 
HETATM    3  C   UNL     1      -9.715   4.772  65.167  1.00  0.00    -0.052 C  
HETATM    4  C   UNL     1      -8.802   3.571  65.365  1.00  0.00    -0.126 C  
HETATM    5  C   UNL     1      -8.252   3.509  66.801  1.00  0.00    -0.095 C  
HETATM    6  C   UNL     1      -7.300   4.670  67.197  1.00  0.00    -0.077 C  
HETATM    7  C   UNL     1      -6.669   5.454  66.020  1.00  0.00    -0.056 C  
HETATM    8  N   UNL     1      -7.626   3.806  64.384  1.00  0.00    -0.078 N  
HETATM    9  C   UNL     1      -7.410   5.314  64.681  1.00  0.00    -0.067 C  
HETATM   10  C   UNL     1      -8.101   3.615  62.931  1.00  0.00    -0.072 C  
HETATM   11  C   UNL     1      -6.419   2.896  64.544  1.00  0.00    -0.027 C  
ENDROOT
BRANCH   6  12
HETATM   12  O   UNL     1      -7.988   5.642  68.017  1.00  0.00    -0.096 OA 
BRANCH  12  13
HETATM   13  C   UNL     1      -8.552   5.198  69.184  1.00  0.00    -0.092 C  
HETATM   14  C   UNL     1      -7.540   5.349  70.368  1.00  0.00    -0.076 C  
HETATM   15  C   UNL     1      -7.055   3.997  70.879  1.00  0.00    -0.033 A  
HETATM   16  O   UNL     1      -6.344   6.034  69.963  1.00  0.00    -0.029 OA 
HETATM   17  C   UNL     1      -8.216   6.202  71.438  1.00  0.00    -0.123 A  
HETATM   18  O   UNL     1      -9.716   4.822  69.252  1.00  0.00    -0.164 OA 
HETATM   19  C   UNL     1      -5.844   3.719  71.499  1.00  0.00    -0.013 A  
HETATM   20  C   UNL     1      -8.997   5.799  72.511  1.00  0.00    -0.133 A  
HETATM   21  H   UNL     1      -5.729   6.125  70.681  1.00  0.00     0.000 HD 
HETATM   22  C   UNL     1      -9.487   6.891  73.284  1.00  0.00    -0.182 A  
HETATM   23  C   UNL     1      -5.699   2.350  71.863  1.00  0.00    -0.009 A  
HETATM   24  C   UNL     1      -6.808   1.612  71.527  1.00  0.00    -0.023 A  
HETATM   25  C   UNL     1      -9.076   8.103  72.783  1.00  0.00    -0.259 A  
HETATM   26  S   UNL     1      -8.006   2.564  70.773  1.00  0.00    -0.045 SA 
HETATM   27  S   UNL     1      -8.136   7.926  71.368  1.00  0.00    -0.108 SA 
ENDBRANCH  12  13
ENDBRANCH   6  12
TORSDOF 2
ENDMDL
MODEL      165
REMARK 921   NORMALIZED FREE ENERGY PREDICTED BY IDOCK:   -1.10 KCAL/MOL
REMARK 922        TOTAL FREE ENERGY PREDICTED BY IDOCK:   -2.21 KCAL/MOL
REMARK 923 INTER-LIGAND FREE ENERGY PREDICTED BY IDOCK:   -1.97 KCAL/MOL
REMARK 924 INTRA-LIGAND FREE ENERGY PREDICTED BY IDOCK:   -0.24 KCAL/MOL
REMARK 927      BINDING AFFINITY PREDICTED BY RF-SCORE:    0.00 PKD
ROOT
HETATM    1  C   UNL     1      -7.910   9.440  67.821  1.00  0.00    -0.095 C  
HETATM    2  O   UNL     1      -7.465   8.340  67.034  1.00  0.00    -0.086 OA 
HETATM    3  C   UNL     1      -6.699   8.618  68.199  1.00  0.00    -0.065 C  
HETATM    4  C   UNL     1      -7.056   7.940  69.513  1.00  0.00    -0.059 C  
HETATM    5  C   UNL     1      -7.742   6.582  69.282  1.00  0.00    -0.101 C  
HETATM    6  C   UNL     1      -9.135   6.652  68.599  1.00  0.00    -0.126 C  
HETATM    7  C   UNL     1      -9.847   8.025  68.660  1.00  0.00    -0.182 C  
HETATM    8  N   UNL     1      -8.061   8.903  70.192  1.00  0.00    -0.110 N  
HETATM    9  C   UNL     1      -8.920   9.220  68.939  1.00  0.00    -0.136 C  
HETATM   10  C   UNL     1      -7.335  10.176  70.671  1.00  0.00     0.276 C  
HETATM   11  C   UNL     1      -8.796   8.367  71.410  1.00  0.00    -0.181 C  
ENDROOT
BRANCH   6  12
HETATM   12  O   UNL     1      -9.042   6.299  67.200  1.00  0.00    -0.117 OA 
BRANCH  12  13
HETATM   13  C   UNL     1      -8.304   5.190  66.877  1.00  0.00    -0.107 C  
HETATM   14  C   UNL     1      -9.139   3.891  67.127  1.00  0.00    -0.156 C  
HETATM   15  C   UNL     1      -8.594   3.079  68.296  1.00  0.00    -0.092 A  
HETATM   16  O   UNL     1     -10.495   4.191  67.495  1.00  0.00     0.126 OA 
HETATM   17  C   UNL     1      -9.183   3.117  65.812  1.00  0.00    -0.138 A  
HETATM   18  O   UNL     1      -7.184   5.264  66.387  1.00  0.00    -0.074 OA 
HETATM   19  C   UNL     1      -9.304   2.218  69.125  1.00  0.00    -0.185 A  
HETATM   20  C   UNL     1      -8.312   2.145  65.342  1.00  0.00    -0.091 A  
HETATM   21  H   UNL     1     -11.003   3.403  67.647  1.00  0.00     0.000 HD 
HETATM   22  C   UNL     1      -8.658   1.668  64.045  1.00  0.00    -0.078 A  
HETATM   23  C   UNL     1      -8.496   1.606  70.124  1.00  0.00    -0.079 A  
HETATM   24  C   UNL     1      -7.183   1.999  70.031  1.00  0.00    -0.033 A  
HETATM   25  C   UNL     1      -9.780   2.289  63.549  1.00  0.00    -0.119 A  
HETATM   26  S   UNL     1      -6.934   3.103  68.755  1.00  0.00    -0.049 SA 
HETATM   27  S   UNL     1     -10.390   3.466  64.626  1.00  0.00     0.089 SA 
ENDBRANCH  12  13
ENDBRANCH   6  12
TORSDOF 2
ENDMDL
MODEL      166
REMARK 921   NORMALIZED FREE ENERGY PREDICTED BY IDOCK:   -0.69 KCAL/MOL
REMARK 922        TOTAL FREE ENERGY PREDICTED BY IDOCK:   -1.76 KCAL/MOL
REMARK 923 INTER-LIGAND FREE ENERGY PREDICTED BY IDOCK:   -1.92 KCAL/MOL
REMARK 924 INTRA-LIGAND FREE ENERGY PREDICTED BY IDOCK:    0.17 KCAL/MOL
REMARK 927      BINDING AFFINITY PREDICTED BY RF-SCORE:    0.00 PKD
ROOT
HETATM    1  C   UNL     1      -6.308  14.245  69.980  1.00  0.00    -0.150 C  
HETATM    2  O   UNL     1      -7.188  13.128  69.907  1.00  0.00     0.445 OA 
HETATM    3  C   UNL     1      -7.801  14.407  69.819  1.00  0.00     0.384 C  
HETATM    4  C   UNL     1      -8.000  15.054  68.457  1.00  0.00    -0.144 C  
HETATM    5  C   UNL     1      -8.128  14.001  67.343  1.00  0.00    -0.199 C  
HETATM    6  C   UNL     1      -6.852  13.155  67.083  1.00  0.00     0.193 C  
HETATM    7  C   UNL     1      -5.527  13.755  67.612  1.00  0.00     0.026 C  
HETATM    8  N   UNL     1      -6.713  15.883  68.223  1.00  0.00    -0.114 N  
HETATM    9  C   UNL     1      -5.694  14.818  68.710  1.00  0.00    -0.086 C  
HETATM   10  C   UNL     1      -6.690  17.104  69.162  1.00  0.00    -0.238 C  
HETATM   11  C   UNL     1      -6.509  16.437  66.823  1.00  0.00    -0.016 C  
ENDROOT
BRANCH   6  12
HETATM   12  O   UNL     1      -6.975  11.842  67.676  1.00  0.00    -0.087 OA 
BRANCH  12  13
HETATM   13  C   UNL     1      -8.076  11.097  67.339  1.00  0.00    -0.132 C  
HETATM   14  C   UNL     1      -7.697   9.582  67.245  1.00  0.00    -0.091 C  
HETATM   15  C   UNL     1      -7.750   9.069  65.810  1.00  0.00    -0.091 A  
HETATM   16  O   UNL     1      -6.345   9.343  67.665  1.00  0.00    -0.057 OA 
HETATM   17  C   UNL     1      -8.615   8.824  68.200  1.00  0.00    -0.134 A  
HETATM   18  O   UNL     1      -9.192  11.588  67.220  1.00  0.00    -0.164 OA 
HETATM   19  C   UNL     1      -7.022   8.019  65.266  1.00  0.00    -0.063 A  
HETATM   20  C   UNL     1      -9.854   8.254  67.952  1.00  0.00    -0.207 A  
HETATM   21  H   UNL     1      -6.115   8.423  67.608  1.00  0.00     0.000 HD 
HETATM   22  C   UNL     1     -10.432   7.652  69.107  1.00  0.00    -0.220 A  
HETATM   23  C   UNL     1      -7.309   7.788  63.891  1.00  0.00    -0.096 A  
HETATM   24  C   UNL     1      -8.261   8.656  63.415  1.00  0.00    -0.155 A  
HETATM   25  C   UNL     1      -9.626   7.780  70.213  1.00  0.00    -0.175 A  
HETATM   26  S   UNL     1      -8.795   9.743  64.617  1.00  0.00    -0.228 SA 
HETATM   27  S   UNL     1      -8.199   8.653  69.868  1.00  0.00    -0.126 SA 
ENDBRANCH  12  13
ENDBRANCH   6  12
TORSDOF 2
ENDMDL
MODEL      167
REMARK 921   NORMALIZED FREE ENERGY PREDICTED BY IDOCK:   -0.27 KCAL/MOL
REMARK 922        TOTAL FREE ENERGY PREDICTED BY IDOCK:   -1.28 KCAL/MOL
REMARK 923 INTER-LIGAND FREE ENERGY PREDICTED BY IDOCK:   -1.81 KCAL/MOL
REMARK 924 INTRA-LIGAND FREE ENERGY PREDICTED BY IDOCK:    0.53 KCAL/MOL
REMARK 927      BINDING AFFINITY PREDICTED BY RF-SCORE:    0.00 PKD
ROOT
HETATM    1  C   UNL     1      -8.044   9.322  67.708  1.00  0.00    -0.104 C  
HETATM    2  O   UNL     1      -7.550   9.235  69.040  1.00  0.00    -0.072 OA 
HETATM    3  C   UNL     1      -8.851   9.789  68.897  1.00  0.00    -0.140 C  
HETATM    4  C   UNL     1     -10.067   8.878  68.952  1.00  0.00    -0.197 C  
HETATM    5  C   UNL     1      -9.795   7.621  69.798  1.00  0.00    -0.181 C  
HETATM    6  C   UNL     1      -8.728   6.652  69.219  1.00  0.00    -0.131 C  
HETATM    7  C   UNL     1      -8.424   6.810  67.709  1.00  0.00    -0.122 C  
HETATM    8  N   UNL     1     -10.309   8.454  67.482  1.00  0.00    -0.248 N  
HETATM    9  C   UNL     1      -8.831   8.164  67.107  1.00  0.00    -0.131 C  
HETATM   10  C   UNL     1     -10.837   9.649  66.666  1.00  0.00     0.071 C  
HETATM   11  C   UNL     1     -11.306   7.330  67.256  1.00  0.00     0.379 C  
ENDROOT
BRANCH   6  12
HETATM   12  O   UNL     1      -7.467   6.803  69.910  1.00  0.00    -0.089 OA 
BRANCH  12  13
HETATM   13  C   UNL     1      -7.459   6.585  71.264  1.00  0.00    -0.089 C  
HETATM   14  C   UNL     1      -8.120   5.207  71.596  1.00  0.00    -0.115 C  
HETATM   15  C   UNL     1      -9.455   5.374  72.313  1.00  0.00    -0.145 A  
HETATM   16  O   UNL     1      -8.438   4.467  70.406  1.00  0.00    -0.076 OA 
HETATM   17  C   UNL     1      -7.100   4.390  72.384  1.00  0.00    -0.062 A  
HETATM   18  O   UNL     1      -6.923   7.356  72.051  1.00  0.00    -0.061 OA 
HETATM   19  C   UNL     1     -10.532   4.495  72.300  1.00  0.00    -0.215 A  
HETATM   20  C   UNL     1      -6.905   4.325  73.755  1.00  0.00    -0.060 A  
HETATM   21  H   UNL     1      -8.840   3.631  70.608  1.00  0.00     0.000 HD 
HETATM   22  C   UNL     1      -5.825   3.472  74.125  1.00  0.00    -0.007 A  
HETATM   23  C   UNL     1     -11.634   4.943  73.082  1.00  0.00    -0.300 A  
HETATM   24  C   UNL     1     -11.373   6.148  73.689  1.00  0.00     0.507 A  
HETATM   25  C   UNL     1      -5.215   2.910  73.029  1.00  0.00     0.000 A  
HETATM   26  S   UNL     1      -9.815   6.732  73.309  1.00  0.00    -0.212 SA 
HETATM   27  S   UNL     1      -5.915   3.437  71.564  1.00  0.00    -0.014 SA 
ENDBRANCH  12  13
ENDBRANCH   6  12
TORSDOF 2
ENDMDL
MODEL      168
REMARK 921   NORMALIZED FREE ENERGY PREDICTED BY IDOCK:   -0.18 KCAL/MOL
REMARK 922        TOTAL FREE ENERGY PREDICTED BY IDOCK:   -1.18 KCAL/MOL
REMARK 923 INTER-LIGAND FREE ENERGY PREDICTED BY IDOCK:   -1.34 KCAL/MOL
REMARK 924 INTRA-LIGAND FREE ENERGY PREDICTED BY IDOCK:    0.16 KCAL/MOL
REMARK 927      BINDING AFFINITY PREDICTED BY RF-SCORE:    0.00 PKD
ROOT
HETATM    1  C   UNL     1     -10.914  16.051  70.896  1.00  0.00    -0.132 C  
HETATM    2  O   UNL     1      -9.939  15.100  70.479  1.00  0.00     0.061 OA 
HETATM    3  C   UNL     1     -10.607  14.808  71.699  1.00  0.00     1.402 C  
HETATM    4  C   UNL     1     -11.883  13.980  71.679  1.00  0.00     0.337 C  
HETATM    5  C   UNL     1     -11.921  13.029  70.469  1.00  0.00    -0.294 C  
HETATM    6  C   UNL     1     -12.000  13.724  69.083  1.00  0.00    -0.361 C  
HETATM    7  C   UNL     1     -12.487  15.193  69.094  1.00  0.00     0.025 C  
HETATM    8  N   UNL     1     -13.024  15.018  71.540  1.00  0.00    -0.329 N  
HETATM    9  C   UNL     1     -12.363  15.904  70.451  1.00  0.00    -0.220 C  
HETATM   10  C   UNL     1     -13.177  15.815  72.850  1.00  0.00    -0.545 C  
HETATM   11  C   UNL     1     -14.407  14.467  71.231  1.00  0.00    -0.205 C  
ENDROOT
BRANCH   6  12
HETATM   12  O   UNL     1     -10.709  13.723  68.432  1.00  0.00    -0.240 OA 
BRANCH  12  13
HETATM   13  C   UNL     1     -10.099  12.510  68.241  1.00  0.00    -0.228 C  
HETATM   14  C   UNL     1      -9.057  12.604  67.078  1.00  0.00    -0.215 C  
HETATM   15  C   UNL     1      -9.498  11.813  65.852  1.00  0.00    -0.223 A  
HETATM   16  O   UNL     1      -8.906  13.952  66.605  1.00  0.00    -0.403 OA 
HETATM   17  C   UNL     1      -7.708  12.162  67.639  1.00  0.00    -0.148 A  
HETATM   18  O   UNL     1     -10.316  11.543  68.961  1.00  0.00    -0.194 OA 
HETATM   19  C   UNL     1      -9.158  12.058  64.527  1.00  0.00     0.551 A  
HETATM   20  C   UNL     1      -7.151  10.892  67.676  1.00  0.00    -0.087 A  
HETATM   21  H   UNL     1      -8.273  14.010  65.899  1.00  0.00     0.000 HD 
HETATM   22  C   UNL     1      -5.877  10.861  68.312  1.00  0.00    -0.042 A  
HETATM   23  C   UNL     1      -9.734  11.127  63.617  1.00  0.00    -0.352 A  
HETATM   24  C   UNL     1     -10.491  10.181  64.265  1.00  0.00     0.727 A  
HETATM   25  C   UNL     1      -5.491  12.104  68.754  1.00  0.00    -0.050 A  
HETATM   26  S   UNL     1     -10.510  10.423  65.954  1.00  0.00    -0.063 SA 
HETATM   27  S   UNL     1      -6.673  13.293  68.435  1.00  0.00    -0.109 SA 
ENDBRANCH  12  13
ENDBRANCH   6  12
TORSDOF 2
ENDMDL
MODEL      169
REMARK 921   NORMALIZED FREE ENERGY PREDICTED BY IDOCK:   -0.04 KCAL/MOL
REMARK 922        TOTAL FREE ENERGY PREDICTED BY IDOCK:   -1.03 KCAL/MOL
REMARK 923 INTER-LIGAND FREE ENERGY PREDICTED BY IDOCK:   -2.40 KCAL/MOL
REMARK 924 INTRA-LIGAND FREE ENERGY PREDICTED BY IDOCK:    1.37 KCAL/MOL
REMARK 927      BINDING AFFINITY PREDICTED BY RF-SCORE:    0.00 PKD
ROOT
HETATM    1  C   UNL     1     -10.916  13.931  69.742  1.00  0.00     0.074 C  
HETATM    2  O   UNL     1     -10.997  12.511  69.812  1.00  0.00     0.072 OA 
HETATM    3  C   UNL     1     -12.134  13.171  69.273  1.00  0.00    -0.220 C  
HETATM    4  C   UNL     1     -12.221  13.418  67.775  1.00  0.00    -0.130 C  
HETATM    5  C   UNL     1     -11.424  12.367  66.981  1.00  0.00    -0.423 C  
HETATM    6  C   UNL     1      -9.886  12.402  67.196  1.00  0.00    -0.205 C  
HETATM    7  C   UNL     1      -9.318  13.719  67.778  1.00  0.00    -0.213 C  
HETATM    8  N   UNL     1     -11.571  14.808  67.566  1.00  0.00    -0.358 N  
HETATM    9  C   UNL     1     -10.348  14.604  68.499  1.00  0.00    -0.238 C  
HETATM   10  C   UNL     1     -12.487  15.912  68.130  1.00  0.00     1.180 C  
HETATM   11  C   UNL     1     -11.278  15.210  66.130  1.00  0.00    -0.271 C  
ENDROOT
BRANCH   6  12
HETATM   12  O   UNL     1      -9.467  11.344  68.087  1.00  0.00    -0.168 OA 
BRANCH  12  13
HETATM   13  C   UNL     1     -10.261  10.229  68.162  1.00  0.00    -0.164 C  
HETATM   14  C   UNL     1      -9.735   9.261  69.273  1.00  0.00    -0.169 C  
HETATM   15  C   UNL     1      -9.155   7.980  68.685  1.00  0.00    -0.140 A  
HETATM   16  O   UNL     1      -8.651   9.842  70.016  1.00  0.00    -0.193 OA 
HETATM   17  C   UNL     1     -10.883   9.022  70.249  1.00  0.00    -0.238 A  
HETATM   18  O   UNL     1     -11.275  10.097  67.488  1.00  0.00    -0.265 OA 
HETATM   19  C   UNL     1      -8.173   7.170  69.240  1.00  0.00    -0.128 A  
HETATM   20  C   UNL     1     -11.857   8.035  70.227  1.00  0.00     0.178 A  
HETATM   21  H   UNL     1      -8.332   9.254  70.691  1.00  0.00     0.000 HD 
HETATM   22  C   UNL     1     -12.792   8.150  71.296  1.00  0.00    -0.199 A  
HETATM   23  C   UNL     1      -7.857   6.037  68.438  1.00  0.00    -0.106 A  
HETATM   24  C   UNL     1      -8.614   5.996  67.292  1.00  0.00    -0.106 A  
HETATM   25  C   UNL     1     -12.517   9.224  72.107  1.00  0.00    -0.351 A  
HETATM   26  S   UNL     1      -9.688   7.317  67.186  1.00  0.00    -0.182 SA 
HETATM   27  S   UNL     1     -11.163  10.110  71.562  1.00  0.00     0.564 SA 
ENDBRANCH  12  13
ENDBRANCH   6  12
TORSDOF 2
ENDMDL
MODEL      170
REMARK 921   NORMALIZED FREE ENERGY PREDICTED BY IDOCK:    0.61 KCAL/MOL
REMARK 922        TOTAL FREE ENERGY PREDICTED BY IDOCK:   -0.31 KCAL/MOL
REMARK 923 INTER-LIGAND FREE ENERGY PREDICTED BY IDOCK:   -0.20 KCAL/MOL
REMARK 924 INTRA-LIGAND FREE ENERGY PREDICTED BY IDOCK:   -0.10 KCAL/MOL
REMARK 927      BINDING AFFINITY PREDICTED BY RF-SCORE:    0.00 PKD
ROOT
HETATM    1  C   UNL     1      -5.877  15.547  67.704  1.00  0.00    -0.107 C  
HETATM    2  O   UNL     1      -6.245  14.505  66.806  1.00  0.00     0.631 OA 
HETATM    3  C   UNL     1      -5.590  14.093  67.998  1.00  0.00    -0.122 C  
HETATM    4  C   UNL     1      -6.414  13.752  69.230  1.00  0.00    -0.112 C  
HETATM    5  C   UNL     1      -7.822  13.260  68.851  1.00  0.00     0.104 C  
HETATM    6  C   UNL     1      -8.733  14.320  68.172  1.00  0.00    -0.174 C  
HETATM    7  C   UNL     1      -8.315  15.796  68.376  1.00  0.00    -0.164 C  
HETATM    8  N   UNL     1      -6.538  15.088  70.003  1.00  0.00    -0.174 N  
HETATM    9  C   UNL     1      -6.847  16.000  68.787  1.00  0.00    -0.132 C  
HETATM   10  C   UNL     1      -5.178  15.472  70.619  1.00  0.00    -0.148 C  
HETATM   11  C   UNL     1      -7.532  15.117  71.152  1.00  0.00     2.125 C  
ENDROOT
BRANCH   6  12
HETATM   12  O   UNL     1      -8.797  14.104  66.744  1.00  0.00    -0.228 OA 
BRANCH  12  13
HETATM   13  C   UNL     1      -9.361  12.933  66.307  1.00  0.00    -0.141 C  
HETATM   14  C   UNL     1     -10.859  12.854  66.749  1.00  0.00    -0.267 C  
HETATM   15  C   UNL     1     -11.085  11.779  67.806  1.00  0.00    -0.243 A  
HETATM   16  O   UNL     1     -11.296  14.073  67.372  1.00  0.00    -0.302 OA 
HETATM   17  C   UNL     1     -11.697  12.659  65.489  1.00  0.00    -0.402 A  
HETATM   18  O   UNL     1      -8.756  12.134  65.602  1.00  0.00     0.216 OA 
HETATM   19  C   UNL     1     -12.076  11.753  68.779  1.00  0.00    -0.204 A  
HETATM   20  C   UNL     1     -12.093  11.479  64.878  1.00  0.00     0.373 A  
HETATM   21  H   UNL     1     -12.206  14.025  67.642  1.00  0.00     0.000 HD 
HETATM   22  C   UNL     1     -12.846  11.693  63.687  1.00  0.00    -0.176 A  
HETATM   23  C   UNL     1     -12.017  10.600  69.613  1.00  0.00    -0.340 A  
HETATM   24  C   UNL     1     -10.991   9.761  69.251  1.00  0.00    -0.193 A  
HETATM   25  C   UNL     1     -13.003  13.030  63.411  1.00  0.00     0.567 A  
HETATM   26  S   UNL     1     -10.106  10.367  67.924  1.00  0.00    -0.180 SA 
HETATM   27  S   UNL     1     -12.216  14.019  64.558  1.00  0.00    -0.411 SA 
ENDBRANCH  12  13
ENDBRANCH   6  12
TORSDOF 2
ENDMDL
MODEL      171
REMARK 921   NORMALIZED FREE ENERGY PREDICTED BY IDOCK:    0.79 KCAL/MOL
REMARK 922        TOTAL FREE ENERGY PREDICTED BY IDOCK:   -0.10 KCAL/MOL
REMARK 923 INTER-LIGAND FREE ENERGY PREDICTED BY IDOCK:    0.67 KCAL/MOL
REMARK 924 INTRA-LIGAND FREE ENERGY PREDICTED BY IDOCK:   -0.77 KCAL/MOL
REMARK 927      BINDING AFFINITY PREDICTED BY RF-SCORE:    0.00 PKD
ROOT
HETATM    1  C   UNL     1     -12.304   9.086  69.229  1.00  0.00     2.286 C  
HETATM    2  O   UNL     1     -11.413   8.028  69.567  1.00  0.00     0.165 OA 
HETATM    3  C   UNL     1     -10.889   9.026  68.701  1.00  0.00    -0.017 C  
HETATM    4  C   UNL     1     -10.179  10.235  69.291  1.00  0.00    -0.227 C  
HETATM    5  C   UNL     1      -9.544   9.909  70.654  1.00  0.00     0.053 C  
HETATM    6  C   UNL     1     -10.549   9.576  71.790  1.00  0.00     0.121 C  
HETATM    7  C   UNL     1     -12.005  10.050  71.561  1.00  0.00    -0.438 C  
HETATM    8  N   UNL     1     -11.296  11.288  69.494  1.00  0.00    -0.273 N  
HETATM    9  C   UNL     1     -12.366  10.338  70.095  1.00  0.00    -0.142 C  
HETATM   10  C   UNL     1     -11.772  11.825  68.130  1.00  0.00    -0.307 C  
HETATM   11  C   UNL     1     -10.931  12.514  70.314  1.00  0.00     1.208 C  
ENDROOT
BRANCH   6  12
HETATM   12  O   UNL     1     -10.612   8.150  72.021  1.00  0.00    -0.230 OA 
BRANCH  12  13
HETATM   13  C   UNL     1      -9.656   7.599  72.833  1.00  0.00    -0.218 C  
HETATM   14  C   UNL     1      -8.792   6.568  72.033  1.00  0.00    -0.133 C  
HETATM   15  C   UNL     1      -9.042   5.136  72.493  1.00  0.00    -0.133 A  
HETATM   16  O   UNL     1      -9.126   6.564  70.635  1.00  0.00    -0.147 OA 
HETATM   17  C   UNL     1      -7.335   7.004  72.154  1.00  0.00    -0.082 A  
HETATM   18  O   UNL     1      -9.490   7.958  73.992  1.00  0.00    -0.132 OA 
HETATM   19  C   UNL     1      -8.902   3.976  71.741  1.00  0.00    -0.145 A  
HETATM   20  C   UNL     1      -6.393   6.648  73.107  1.00  0.00    -0.063 A  
HETATM   21  H   UNL     1      -8.602   5.938  70.149  1.00  0.00     0.000 HD 
HETATM   22  C   UNL     1      -5.134   7.286  72.913  1.00  0.00    -0.037 A  
HETATM   23  C   UNL     1      -9.209   2.793  72.471  1.00  0.00    -0.140 A  
HETATM   24  C   UNL     1      -9.564   3.070  73.768  1.00  0.00    -0.091 A  
HETATM   25  C   UNL     1      -5.143   8.121  71.821  1.00  0.00    -0.034 A  
HETATM   26  S   UNL     1      -9.533   4.744  74.096  1.00  0.00    -0.126 SA 
HETATM   27  S   UNL     1      -6.669   8.162  71.057  1.00  0.00    -0.045 SA 
ENDBRANCH  12  13
ENDBRANCH   6  12
TORSDOF 2
ENDMDL
MODEL      172
REMARK 921   NORMALIZED FREE ENERGY PREDICTED BY IDOCK:    0.92 KCAL/MOL
REMARK 922        TOTAL FREE ENERGY PREDICTED BY IDOCK:    0.04 KCAL/MOL
REMARK 923 INTER-LIGAND FREE ENERGY PREDICTED BY IDOCK:   -1.93 KCAL/MOL
REMARK 924 INTRA-LIGAND FREE ENERGY PREDICTED BY IDOCK:    1.98 KCAL/MOL
REMARK 927      BINDING AFFINITY PREDICTED BY RF-SCORE:    0.00 PKD
ROOT
HETATM    1  C   UNL     1      -7.744   6.807  66.378  1.00  0.00    -0.098 C  
HETATM    2  O   UNL     1      -9.105   7.216  66.463  1.00  0.00    -0.144 OA 
HETATM    3  C   UNL     1      -8.880   5.918  65.928  1.00  0.00    -0.149 C  
HETATM    4  C   UNL     1      -8.854   4.715  66.859  1.00  0.00    -0.111 C  
HETATM    5  C   UNL     1      -9.711   4.953  68.115  1.00  0.00    -0.202 C  
HETATM    6  C   UNL     1      -9.199   6.070  69.064  1.00  0.00    -0.121 C  
HETATM    7  C   UNL     1      -7.713   6.468  68.896  1.00  0.00    -0.109 C  
HETATM    8  N   UNL     1      -7.370   4.576  67.281  1.00  0.00    -0.073 N  
HETATM    9  C   UNL     1      -7.090   6.079  67.545  1.00  0.00    -0.074 C  
HETATM   10  C   UNL     1      -6.525   4.082  66.090  1.00  0.00    -0.037 C  
HETATM   11  C   UNL     1      -7.077   3.613  68.419  1.00  0.00    -0.051 C  
ENDROOT
BRANCH   6  12
HETATM   12  O   UNL     1      -9.971   7.281  68.897  1.00  0.00    -0.159 OA 
BRANCH  12  13
HETATM   13  C   UNL     1      -9.434   8.444  69.384  1.00  0.00    -0.158 C  
HETATM   14  C   UNL     1      -9.248   9.482  68.228  1.00  0.00    -0.130 C  
HETATM   15  C   UNL     1      -7.777   9.729  67.915  1.00  0.00    -0.087 A  
HETATM   16  O   UNL     1      -9.808   9.010  66.992  1.00  0.00    -0.175 OA 
HETATM   17  C   UNL     1     -10.010  10.744  68.623  1.00  0.00    -0.182 A  
HETATM   18  O   UNL     1      -9.225   8.624  70.578  1.00  0.00    -0.157 OA 
HETATM   19  C   UNL     1      -7.232  10.127  66.700  1.00  0.00    -0.105 A  
HETATM   20  C   UNL     1      -9.561  11.851  69.328  1.00  0.00     0.527 A  
HETATM   21  H   UNL     1      -9.696   9.640  66.290  1.00  0.00     0.000 HD 
HETATM   22  C   UNL     1     -10.576  12.829  69.537  1.00  0.00     0.392 A  
HETATM   23  C   UNL     1      -5.817  10.275  66.740  1.00  0.00    -0.052 A  
HETATM   24  C   UNL     1      -5.310  10.002  67.987  1.00  0.00    -0.038 A  
HETATM   25  C   UNL     1     -11.779  12.446  68.994  1.00  0.00    -0.323 A  
HETATM   26  S   UNL     1      -6.532   9.563  69.093  1.00  0.00    -0.045 SA 
HETATM   27  S   UNL     1     -11.694  10.902  68.270  1.00  0.00    -0.072 SA 
ENDBRANCH  12  13
ENDBRANCH   6  12
TORSDOF 2
ENDMDL
MODEL      173
REMARK 921   NORMALIZED FREE ENERGY PREDICTED BY IDOCK:    2.17 KCAL/MOL
REMARK 922        TOTAL FREE ENERGY PREDICTED BY IDOCK:    1.44 KCAL/MOL
REMARK 923 INTER-LIGAND FREE ENERGY PREDICTED BY IDOCK:   -2.50 KCAL/MOL
REMARK 924 INTRA-LIGAND FREE ENERGY PREDICTED BY IDOCK:    3.94 KCAL/MOL
REMARK 927      BINDING AFFINITY PREDICTED BY RF-SCORE:    0.00 PKD
ROOT
HETATM    1  C   UNL     1     -11.558  10.311  66.212  1.00  0.00     1.719 C  
HETATM    2  O   UNL     1     -10.475   9.434  65.920  1.00  0.00    -0.080 OA 
HETATM    3  C   UNL     1     -10.351  10.758  65.420  1.00  0.00    -0.247 C  
HETATM    4  C   UNL     1      -9.673  11.823  66.269  1.00  0.00    -0.222 C  
HETATM    5  C   UNL     1      -8.646  11.207  67.235  1.00  0.00    -0.140 C  
HETATM    6  C   UNL     1      -9.242  10.288  68.336  1.00  0.00    -0.136 C  
HETATM    7  C   UNL     1     -10.754  10.466  68.617  1.00  0.00    -0.250 C  
HETATM    8  N   UNL     1     -10.821  12.460  67.091  1.00  0.00    -0.238 N  
HETATM    9  C   UNL     1     -11.544  11.145  67.486  1.00  0.00    -0.135 C  
HETATM   10  C   UNL     1     -11.725  13.305  66.173  1.00  0.00    -0.374 C  
HETATM   11  C   UNL     1     -10.409  13.384  68.226  1.00  0.00    -0.249 C  
ENDROOT
BRANCH   6  12
HETATM   12  O   UNL     1      -9.047   8.894  68.005  1.00  0.00    -0.139 OA 
BRANCH  12  13
HETATM   13  C   UNL     1      -8.980   8.001  69.043  1.00  0.00    -0.145 C  
HETATM   14  C   UNL     1      -8.832   8.760  70.403  1.00  0.00    -0.168 C  
HETATM   15  C   UNL     1      -7.456   8.551  71.025  1.00  0.00    -0.080 A  
HETATM   16  O   UNL     1      -8.941  10.183  70.234  1.00  0.00    -0.347 OA 
HETATM   17  C   UNL     1      -9.983   8.316  71.300  1.00  0.00    -0.192 A  
HETATM   18  O   UNL     1      -9.107   6.794  68.882  1.00  0.00    -0.134 OA 
HETATM   19  C   UNL     1      -6.781   9.413  71.881  1.00  0.00     0.294 A  
HETATM   20  C   UNL     1     -10.032   7.262  72.201  1.00  0.00    -0.191 A  
HETATM   21  H   UNL     1      -8.851  10.644  71.060  1.00  0.00     0.000 HD 
HETATM   22  C   UNL     1     -11.298   7.134  72.840  1.00  0.00    -0.257 A  
HETATM   23  C   UNL     1      -5.510   8.919  72.291  1.00  0.00    -0.061 A  
HETATM   24  C   UNL     1      -5.245   7.683  71.752  1.00  0.00    -0.035 A  
HETATM   25  C   UNL     1     -12.191   8.087  72.411  1.00  0.00    -0.287 A  
HETATM   26  S   UNL     1      -6.516   7.133  70.756  1.00  0.00    -0.044 SA 
HETATM   27  S   UNL     1     -11.518   9.105  71.218  1.00  0.00    -0.365 SA 
ENDBRANCH  12  13
ENDBRANCH   6  12
TORSDOF 2
ENDMDL
MODEL      174
REMARK 921   NORMALIZED FREE ENERGY PREDICTED BY IDOCK:    3.27 KCAL/MOL
REMARK 922        TOTAL FREE ENERGY PREDICTED BY IDOCK:    2.67 KCAL/MOL
REMARK 923 INTER-LIGAND FREE ENERGY PREDICTED BY IDOCK:    1.12 KCAL/MOL
REMARK 924 INTRA-LIGAND FREE ENERGY PREDICTED BY IDOCK:    1.55 KCAL/MOL
REMARK 927      BINDING AFFINITY PREDICTED BY RF-SCORE:    0.00 PKD
ROOT
HETATM    1  C   UNL     1      -9.423  15.051  69.982  1.00  0.00     0.281 C  
HETATM    2  O   UNL     1      -9.734  13.662  69.954  1.00  0.00     1.214 OA 
HETATM    3  C   UNL     1     -10.004  14.382  68.758  1.00  0.00    -0.223 C  
HETATM    4  C   UNL     1      -8.931  14.486  67.685  1.00  0.00    -0.193 C  
HETATM    5  C   UNL     1      -7.972  13.283  67.725  1.00  0.00    -0.166 C  
HETATM    6  C   UNL     1      -7.098  13.176  69.004  1.00  0.00    -0.030 C  
HETATM    7  C   UNL     1      -6.952  14.477  69.831  1.00  0.00    -0.063 C  
HETATM    8  N   UNL     1      -8.143  15.771  68.039  1.00  0.00    -0.138 N  
HETATM    9  C   UNL     1      -8.038  15.532  69.568  1.00  0.00    -0.202 C  
HETATM   10  C   UNL     1      -9.006  17.017  67.756  1.00  0.00    -0.224 C  
HETATM   11  C   UNL     1      -6.840  15.996  67.289  1.00  0.00    -0.201 C  
ENDROOT
BRANCH   6  12
HETATM   12  O   UNL     1      -7.623  12.173  69.903  1.00  0.00     0.827 OA 
BRANCH  12  13
HETATM   13  C   UNL     1      -8.380  11.169  69.358  1.00  0.00     0.232 C  
HETATM   14  C   UNL     1      -7.982   9.790  69.980  1.00  0.00    -0.184 C  
HETATM   15  C   UNL     1      -7.280   8.890  68.970  1.00  0.00    -0.072 A  
HETATM   16  O   UNL     1      -7.035   9.941  71.050  1.00  0.00    -0.333 OA 
HETATM   17  C   UNL     1      -9.247   9.176  70.572  1.00  0.00    -0.241 A  
HETATM   18  O   UNL     1      -9.283  11.385  68.559  1.00  0.00    -0.178 OA 
HETATM   19  C   UNL     1      -6.358   7.886  69.237  1.00  0.00    -0.035 A  
HETATM   20  C   UNL     1     -10.173   8.335  69.972  1.00  0.00    -0.202 A  
HETATM   21  H   UNL     1      -6.793   9.104  71.428  1.00  0.00     0.000 HD 
HETATM   22  C   UNL     1     -11.253   7.989  70.834  1.00  0.00    -0.282 A  
HETATM   23  C   UNL     1      -5.892   7.223  68.067  1.00  0.00    -0.030 A  
HETATM   24  C   UNL     1      -6.477   7.723  66.929  1.00  0.00    -0.055 A  
HETATM   25  C   UNL     1     -11.133   8.577  72.071  1.00  0.00    -0.342 A  
HETATM   26  S   UNL     1      -7.572   8.986  67.275  1.00  0.00    -0.088 SA 
HETATM   27  S   UNL     1      -9.748   9.569  72.178  1.00  0.00     2.050 SA 
ENDBRANCH  12  13
ENDBRANCH   6  12
TORSDOF 2
ENDMDL
MODEL      175
REMARK 921   NORMALIZED FREE ENERGY PREDICTED BY IDOCK:    4.24 KCAL/MOL
REMARK 922        TOTAL FREE ENERGY PREDICTED BY IDOCK:    3.76 KCAL/MOL
REMARK 923 INTER-LIGAND FREE ENERGY PREDICTED BY IDOCK:    0.78 KCAL/MOL
REMARK 924 INTRA-LIGAND FREE ENERGY PREDICTED BY IDOCK:    2.97 KCAL/MOL
REMARK 927      BINDING AFFINITY PREDICTED BY RF-SCORE:    0.00 PKD
ROOT
HETATM    1  C   UNL     1      -8.390   7.768  68.970  1.00  0.00    -0.131 C  
HETATM    2  O   UNL     1      -8.802   7.035  70.119  1.00  0.00    -0.144 OA 
HETATM    3  C   UNL     1      -8.966   8.446  70.192  1.00  0.00    -0.142 C  
HETATM    4  C   UNL     1     -10.273   9.076  69.735  1.00  0.00    -0.205 C  
HETATM    5  C   UNL     1     -11.453   8.100  69.882  1.00  0.00     0.167 C  
HETATM    6  C   UNL     1     -11.395   6.847  68.965  1.00  0.00     0.003 C  
HETATM    7  C   UNL     1     -10.458   6.955  67.738  1.00  0.00    -0.279 C  
HETATM    8  N   UNL     1     -10.057   9.384  68.233  1.00  0.00    -0.175 N  
HETATM    9  C   UNL     1      -9.378   8.044  67.844  1.00  0.00    -0.138 C  
HETATM   10  C   UNL     1      -9.061  10.548  68.068  1.00  0.00    -0.138 C  
HETATM   11  C   UNL     1     -11.290   9.783  67.439  1.00  0.00     0.515 C  
ENDROOT
BRANCH   6  12
HETATM   12  O   UNL     1     -10.967   5.684  69.710  1.00  0.00    -0.345 OA 
BRANCH  12  13
HETATM   13  C   UNL     1     -10.975   5.772  71.078  1.00  0.00    -0.230 C  
HETATM   14  C   UNL     1     -10.198   4.566  71.703  1.00  0.00    -0.144 C  
HETATM   15  C   UNL     1     -11.129   3.606  72.434  1.00  0.00     0.515 A  
HETATM   16  O   UNL     1      -9.563   3.761  70.697  1.00  0.00    -0.167 OA 
HETATM   17  C   UNL     1      -9.097   5.144  72.588  1.00  0.00    -0.131 A  
HETATM   18  O   UNL     1     -11.465   6.723  71.674  1.00  0.00    -0.255 OA 
HETATM   19  C   UNL     1     -10.938   2.245  72.642  1.00  0.00     0.030 A  
HETATM   20  C   UNL     1      -9.140   5.469  73.936  1.00  0.00    -0.122 A  
HETATM   21  H   UNL     1      -9.092   3.029  71.076  1.00  0.00     0.000 HD 
HETATM   22  C   UNL     1      -7.918   6.021  74.415  1.00  0.00    -0.105 A  
HETATM   23  C   UNL     1     -11.997   1.633  73.370  1.00  0.00    -0.233 A  
HETATM   24  C   UNL     1     -12.969   2.539  73.717  1.00  0.00     1.397 A  
HETATM   25  C   UNL     1      -6.970   6.113  73.424  1.00  0.00    -0.080 A  
HETATM   26  S   UNL     1     -12.607   4.111  73.160  1.00  0.00     1.424 SA 
HETATM   27  S   UNL     1      -7.563   5.571  71.918  1.00  0.00    -0.101 SA 
ENDBRANCH  12  13
ENDBRANCH   6  12
TORSDOF 2
ENDMDL
MODEL      176
REMARK 921   NORMALIZED FREE ENERGY PREDICTED BY IDOCK:    4.62 KCAL/MOL
REMARK 922        TOTAL FREE ENERGY PREDICTED BY IDOCK:    4.18 KCAL/MOL
REMARK 923 INTER-LIGAND FREE ENERGY PREDICTED BY IDOCK:    0.05 KCAL/MOL
REMARK 924 INTRA-LIGAND FREE ENERGY PREDICTED BY IDOCK:    4.13 KCAL/MOL
REMARK 927      BINDING AFFINITY PREDICTED BY RF-SCORE:    0.00 PKD
ROOT
HETATM    1  C   UNL     1      -9.153   6.398  64.308  1.00  0.00     1.053 C  
HETATM    2  O   UNL     1      -9.538   6.943  65.566  1.00  0.00     0.401 OA 
HETATM    3  C   UNL     1      -9.639   5.530  65.445  1.00  0.00     0.203 C  
HETATM    4  C   UNL     1      -8.456   4.656  65.831  1.00  0.00    -0.116 C  
HETATM    5  C   UNL     1      -7.576   5.332  66.897  1.00  0.00    -0.088 C  
HETATM    6  C   UNL     1      -6.848   6.624  66.433  1.00  0.00    -0.061 C  
HETATM    7  C   UNL     1      -6.717   6.809  64.902  1.00  0.00    -0.049 C  
HETATM    8  N   UNL     1      -7.637   4.504  64.524  1.00  0.00    -0.072 N  
HETATM    9  C   UNL     1      -7.707   5.984  64.065  1.00  0.00    -0.105 C  
HETATM   10  C   UNL     1      -8.393   3.604  63.527  1.00  0.00    -0.090 C  
HETATM   11  C   UNL     1      -6.252   3.893  64.660  1.00  0.00    -0.023 C  
ENDROOT
BRANCH   6  12
HETATM   12  O   UNL     1      -7.521   7.801  66.934  1.00  0.00    -0.090 OA 
BRANCH  12  13
HETATM   13  C   UNL     1      -8.067   7.731  68.190  1.00  0.00    -0.123 C  
HETATM   14  C   UNL     1      -7.133   6.914  69.143  1.00  0.00    -0.084 C  
HETATM   15  C   UNL     1      -7.749   5.576  69.536  1.00  0.00    -0.082 A  
HETATM   16  O   UNL     1      -5.892   6.569  68.506  1.00  0.00    -0.019 OA 
HETATM   17  C   UNL     1      -6.802   7.809  70.334  1.00  0.00    -0.046 A  
HETATM   18  O   UNL     1      -9.102   8.313  68.492  1.00  0.00    -0.137 OA 
HETATM   19  C   UNL     1      -7.076   4.414  69.894  1.00  0.00    -0.046 A  
HETATM   20  C   UNL     1      -7.472   7.940  71.541  1.00  0.00    -0.073 A  
HETATM   21  H   UNL     1      -5.324   6.073  69.084  1.00  0.00     0.000 HD 
HETATM   22  C   UNL     1      -6.882   8.907  72.404  1.00  0.00     0.096 A  
HETATM   23  C   UNL     1      -7.948   3.335  70.212  1.00  0.00    -0.053 A  
HETATM   24  C   UNL     1      -9.269   3.697  70.106  1.00  0.00    -0.151 A  
HETATM   25  C   UNL     1      -5.779   9.499  71.837  1.00  0.00    -0.014 A  
HETATM   26  S   UNL     1      -9.450   5.321  69.618  1.00  0.00    -0.153 SA 
HETATM   27  S   UNL     1      -5.480   8.919  70.260  1.00  0.00    -0.027 SA 
ENDBRANCH  12  13
ENDBRANCH   6  12
TORSDOF 2
ENDMDL
MODEL      177
REMARK 921   NORMALIZED FREE ENERGY PREDICTED BY IDOCK:    5.84 KCAL/MOL
REMARK 922        TOTAL FREE ENERGY PREDICTED BY IDOCK:    5.54 KCAL/MOL
REMARK 923 INTER-LIGAND FREE ENERGY PREDICTED BY IDOCK:   -1.17 KCAL/MOL
REMARK 924 INTRA-LIGAND FREE ENERGY PREDICTED BY IDOCK:    6.71 KCAL/MOL
REMARK 927      BINDING AFFINITY PREDICTED BY RF-SCORE:    0.00 PKD
ROOT
HETATM    1  C   UNL     1      -9.349   8.644  70.724  1.00  0.00    -0.191 C  
HETATM    2  O   UNL     1      -8.686   7.655  71.504  1.00  0.00    -0.117 OA 
HETATM    3  C   UNL     1      -9.362   8.669  72.234  1.00  0.00    -0.252 C  
HETATM    4  C   UNL     1     -10.815   8.464  72.636  1.00  0.00    -0.238 C  
HETATM    5  C   UNL     1     -11.156   6.971  72.788  1.00  0.00    -0.320 C  
HETATM    6  C   UNL     1     -11.093   6.141  71.478  1.00  0.00    -0.286 C  
HETATM    7  C   UNL     1     -11.161   6.954  70.162  1.00  0.00    -0.344 C  
HETATM    8  N   UNL     1     -11.635   9.051  71.460  1.00  0.00    -0.316 N  
HETATM    9  C   UNL     1     -10.799   8.441  70.304  1.00  0.00    -0.239 C  
HETATM   10  C   UNL     1     -11.516  10.587  71.445  1.00  0.00     0.281 C  
HETATM   11  C   UNL     1     -13.125   8.754  71.459  1.00  0.00    -0.318 C  
ENDROOT
BRANCH   6  12
HETATM   12  O   UNL     1      -9.876   5.363  71.418  1.00  0.00    -0.156 OA 
BRANCH  12  13
HETATM   13  C   UNL     1      -9.040   5.579  70.354  1.00  0.00    -0.139 C  
HETATM   14  C   UNL     1      -8.968   4.302  69.453  1.00  0.00    -0.101 C  
HETATM   15  C   UNL     1      -7.601   3.631  69.523  1.00  0.00    -0.052 A  
HETATM   16  O   UNL     1      -9.891   3.290  69.886  1.00  0.00    -0.077 OA 
HETATM   17  C   UNL     1      -9.374   4.718  68.042  1.00  0.00    -0.133 A  
HETATM   18  O   UNL     1      -8.512   6.663  70.141  1.00  0.00    -0.132 OA 
HETATM   19  C   UNL     1      -7.313   2.287  69.322  1.00  0.00    -0.043 A  
HETATM   20  C   UNL     1      -8.576   5.170  67.001  1.00  0.00    -0.105 A  
HETATM   21  H   UNL     1      -9.847   2.515  69.339  1.00  0.00     0.000 HD 
HETATM   22  C   UNL     1      -9.320   5.497  65.831  1.00  0.00    -0.140 A  
HETATM   23  C   UNL     1      -5.929   1.981  69.454  1.00  0.00    -0.024 A  
HETATM   24  C   UNL     1      -5.184   3.099  69.739  1.00  0.00    -0.008 A  
HETATM   25  C   UNL     1     -10.668   5.294  66.003  1.00  0.00    -0.079 A  
HETATM   26  S   UNL     1      -6.151   4.501  69.853  1.00  0.00    -0.019 SA 
HETATM   27  S   UNL     1     -11.038   4.748  67.578  1.00  0.00     2.383 SA 
ENDBRANCH  12  13
ENDBRANCH   6  12
TORSDOF 2
ENDMDL
MODEL      178
REMARK 921   NORMALIZED FREE ENERGY PREDICTED BY IDOCK:    6.42 KCAL/MOL
REMARK 922        TOTAL FREE ENERGY PREDICTED BY IDOCK:    6.19 KCAL/MOL
REMARK 923 INTER-LIGAND FREE ENERGY PREDICTED BY IDOCK:    2.09 KCAL/MOL
REMARK 924 INTRA-LIGAND FREE ENERGY PREDICTED BY IDOCK:    4.09 KCAL/MOL
REMARK 927      BINDING AFFINITY PREDICTED BY RF-SCORE:    0.00 PKD
ROOT
HETATM    1  C   UNL     1      -9.342  11.309  69.006  1.00  0.00     0.000 C  
HETATM    2  O   UNL     1     -10.469  10.550  68.580  1.00  0.00    -0.171 OA 
HETATM    3  C   UNL     1     -10.705  11.932  68.816  1.00  0.00    -0.224 C  
HETATM    4  C   UNL     1     -10.547  12.927  67.677  1.00  0.00    -0.223 C  
HETATM    5  C   UNL     1     -10.803  12.268  66.310  1.00  0.00    -0.313 C  
HETATM    6  C   UNL     1      -9.774  11.182  65.896  1.00  0.00    -0.229 C  
HETATM    7  C   UNL     1      -8.418  11.220  66.641  1.00  0.00    -0.168 C  
HETATM    8  N   UNL     1      -9.067  13.378  67.750  1.00  0.00    -0.191 N  
HETATM    9  C   UNL     1      -8.438  11.977  67.979  1.00  0.00    -0.168 C  
HETATM   10  C   UNL     1      -8.843  14.266  68.989  1.00  0.00     0.063 C  
HETATM   11  C   UNL     1      -8.543  14.180  66.570  1.00  0.00     0.168 C  
ENDROOT
BRANCH   6  12
HETATM   12  O   UNL     1     -10.316   9.856  66.096  1.00  0.00    -0.230 OA 
BRANCH  12  13
HETATM   13  C   UNL     1      -9.521   8.938  66.730  1.00  0.00    -0.187 C  
HETATM   14  C   UNL     1      -9.236   7.722  65.787  1.00  0.00     0.056 C  
HETATM   15  C   UNL     1      -9.927   6.452  66.269  1.00  0.00     0.051 A  
HETATM   16  O   UNL     1      -9.758   7.940  64.466  1.00  0.00     1.437 OA 
HETATM   17  C   UNL     1      -7.721   7.587  65.663  1.00  0.00    -0.100 A  
HETATM   18  O   UNL     1      -9.058   9.128  67.848  1.00  0.00    -0.128 OA 
HETATM   19  C   UNL     1     -10.345   5.377  65.495  1.00  0.00     0.313 A  
HETATM   20  C   UNL     1      -6.845   6.844  66.441  1.00  0.00    -0.064 A  
HETATM   21  H   UNL     1      -9.586   7.202  63.893  1.00  0.00     0.000 HD 
HETATM   22  C   UNL     1      -5.485   6.991  66.042  1.00  0.00    -0.026 A  
HETATM   23  C   UNL     1     -10.954   4.339  66.255  1.00  0.00     1.211 A  
HETATM   24  C   UNL     1     -10.976   4.634  67.596  1.00  0.00     1.513 A  
HETATM   25  C   UNL     1      -5.350   7.846  64.975  1.00  0.00    -0.029 A  
HETATM   26  S   UNL     1     -10.276   6.154  67.930  1.00  0.00    -0.199 SA 
HETATM   27  S   UNL     1      -6.850   8.496  64.481  1.00  0.00    -0.069 SA 
ENDBRANCH  12  13
ENDBRANCH   6  12
TORSDOF 2
ENDMDL
MODEL      179
REMARK 921   NORMALIZED FREE ENERGY PREDICTED BY IDOCK:    6.48 KCAL/MOL
REMARK 922        TOTAL FREE ENERGY PREDICTED BY IDOCK:    6.26 KCAL/MOL
REMARK 923 INTER-LIGAND FREE ENERGY PREDICTED BY IDOCK:    6.10 KCAL/MOL
REMARK 924 INTRA-LIGAND FREE ENERGY PREDICTED BY IDOCK:    0.16 KCAL/MOL
REMARK 927      BINDING AFFINITY PREDICTED BY RF-SCORE:    0.00 PKD
ROOT
HETATM    1  C   UNL     1      -7.794  12.534  70.568  1.00  0.00     4.684 C  
HETATM    2  O   UNL     1      -8.565  11.378  70.258  1.00  0.00     1.818 OA 
HETATM    3  C   UNL     1      -8.659  12.452  69.332  1.00  0.00     1.191 C  
HETATM    4  C   UNL     1      -7.699  12.516  68.154  1.00  0.00    -0.141 C  
HETATM    5  C   UNL     1      -7.212  11.115  67.744  1.00  0.00    -0.091 C  
HETATM    6  C   UNL     1      -6.336  10.384  68.798  1.00  0.00    -0.047 C  
HETATM    7  C   UNL     1      -5.690  11.286  69.878  1.00  0.00    -0.092 C  
HETATM    8  N   UNL     1      -6.493  13.338  68.672  1.00  0.00    -0.080 N  
HETATM    9  C   UNL     1      -6.363  12.656  70.060  1.00  0.00     0.013 C  
HETATM   10  C   UNL     1      -6.893  14.816  68.844  1.00  0.00    -0.105 C  
HETATM   11  C   UNL     1      -5.252  13.347  67.795  1.00  0.00    -0.063 C  
ENDROOT
BRANCH   6  12
HETATM   12  O   UNL     1      -7.105   9.384  69.503  1.00  0.00    -0.056 OA 
BRANCH  12  13
HETATM   13  C   UNL     1      -7.652   8.369  68.761  1.00  0.00    -0.101 C  
HETATM   14  C   UNL     1      -6.536   7.613  67.968  1.00  0.00    -0.054 C  
HETATM   15  C   UNL     1      -6.639   7.856  66.467  1.00  0.00    -0.054 A  
HETATM   16  O   UNL     1      -5.223   8.079  68.321  1.00  0.00    -0.030 OA 
HETATM   17  C   UNL     1      -6.618   6.140  68.357  1.00  0.00    -0.058 A  
HETATM   18  O   UNL     1      -8.843   8.084  68.812  1.00  0.00    -0.137 OA 
HETATM   19  C   UNL     1      -5.608   7.819  65.536  1.00  0.00    -0.037 A  
HETATM   20  C   UNL     1      -7.352   5.122  67.768  1.00  0.00    -0.075 A  
HETATM   21  H   UNL     1      -4.545   7.621  67.839  1.00  0.00     0.000 HD 
HETATM   22  C   UNL     1      -7.203   3.870  68.433  1.00  0.00    -0.055 A  
HETATM   23  C   UNL     1      -6.040   8.086  64.206  1.00  0.00    -0.057 A  
HETATM   24  C   UNL     1      -7.394   8.308  64.144  1.00  0.00    -0.098 A  
HETATM   25  C   UNL     1      -6.365   3.961  69.518  1.00  0.00    -0.029 A  
HETATM   26  S   UNL     1      -8.131   8.203  65.679  1.00  0.00    -0.126 SA 
HETATM   27  S   UNL     1      -5.792   5.552  69.755  1.00  0.00    -0.017 SA 
ENDBRANCH  12  13
ENDBRANCH   6  12
TORSDOF 2
ENDMDL
MODEL      180
REMARK 921   NORMALIZED FREE ENERGY PREDICTED BY IDOCK:    7.45 KCAL/MOL
REMARK 922        TOTAL FREE ENERGY PREDICTED BY IDOCK:    7.34 KCAL/MOL
REMARK 923 INTER-LIGAND FREE ENERGY PREDICTED BY IDOCK:    7.46 KCAL/MOL
REMARK 924 INTRA-LIGAND FREE ENERGY PREDICTED BY IDOCK:   -0.11 KCAL/MOL
REMARK 927      BINDING AFFINITY PREDICTED BY RF-SCORE:    0.00 PKD
ROOT
HETATM    1  C   UNL     1     -11.133  15.854  70.571  1.00  0.00    -0.364 C  
HETATM    2  O   UNL     1      -9.984  15.017  70.643  1.00  0.00     0.249 OA 
HETATM    3  C   UNL     1     -10.805  15.044  71.803  1.00  0.00     0.478 C  
HETATM    4  C   UNL     1     -11.937  14.037  71.947  1.00  0.00     0.311 C  
HETATM    5  C   UNL     1     -11.641  12.739  71.175  1.00  0.00     1.395 C  
HETATM    6  C   UNL     1     -11.575  12.888  69.631  1.00  0.00    -0.248 C  
HETATM    7  C   UNL     1     -12.247  14.154  69.047  1.00  0.00    -0.274 C  
HETATM    8  N   UNL     1     -13.166  14.734  71.311  1.00  0.00    -0.361 N  
HETATM    9  C   UNL     1     -12.453  15.297  70.053  1.00  0.00    -0.293 C  
HETATM   10  C   UNL     1     -13.645  15.890  72.210  1.00  0.00    -0.286 C  
HETATM   11  C   UNL     1     -14.390  13.864  71.073  1.00  0.00     0.835 C  
ENDROOT
BRANCH   6  12
HETATM   12  O   UNL     1     -10.203  12.903  69.174  1.00  0.00     0.044 OA 
BRANCH  12  13
HETATM   13  C   UNL     1      -9.979  13.211  67.857  1.00  0.00    -0.233 C  
HETATM   14  C   UNL     1      -9.940  11.907  66.993  1.00  0.00    -0.202 C  
HETATM   15  C   UNL     1      -8.541  11.618  66.462  1.00  0.00    -0.164 A  
HETATM   16  O   UNL     1     -10.282  10.745  67.766  1.00  0.00    -0.172 OA 
HETATM   17  C   UNL     1     -10.992  12.055  65.898  1.00  0.00    -0.298 A  
HETATM   18  O   UNL     1      -9.909  14.366  67.454  1.00  0.00    -0.220 OA 
HETATM   19  C   UNL     1      -8.005  10.377  66.138  1.00  0.00    -0.138 A  
HETATM   20  C   UNL     1     -10.858  12.583  64.623  1.00  0.00    -0.343 A  
HETATM   21  H   UNL     1     -10.258   9.953  67.242  1.00  0.00     0.000 HD 
HETATM   22  C   UNL     1     -12.078  12.585  63.889  1.00  0.00    -0.581 A  
HETATM   23  C   UNL     1      -6.666  10.450  65.660  1.00  0.00    -0.127 A  
HETATM   24  C   UNL     1      -6.210  11.745  65.614  1.00  0.00     1.550 A  
HETATM   25  C   UNL     1     -13.120  12.065  64.619  1.00  0.00     0.689 A  
HETATM   26  S   UNL     1      -7.386  12.858  66.152  1.00  0.00     2.855 SA 
HETATM   27  S   UNL     1     -12.636  11.612  66.193  1.00  0.00     3.355 SA 
ENDBRANCH  12  13
ENDBRANCH   6  12
TORSDOF 2
ENDMDL
MODEL      181
REMARK 921   NORMALIZED FREE ENERGY PREDICTED BY IDOCK:    8.17 KCAL/MOL
REMARK 922        TOTAL FREE ENERGY PREDICTED BY IDOCK:    8.15 KCAL/MOL
REMARK 923 INTER-LIGAND FREE ENERGY PREDICTED BY IDOCK:    7.05 KCAL/MOL
REMARK 924 INTRA-LIGAND FREE ENERGY PREDICTED BY IDOCK:    1.09 KCAL/MOL
REMARK 927      BINDING AFFINITY PREDICTED BY RF-SCORE:    0.00 PKD
ROOT
HETATM    1  C   UNL     1      -7.179  15.514  68.612  1.00  0.00    -0.123 C  
HETATM    2  O   UNL     1      -8.537  15.114  68.765  1.00  0.00    -0.162 OA 
HETATM    3  C   UNL     1      -8.086  15.275  67.427  1.00  0.00    -0.182 C  
HETATM    4  C   UNL     1      -7.491  14.088  66.686  1.00  0.00     1.258 C  
HETATM    5  C   UNL     1      -8.048  12.754  67.214  1.00  0.00    -0.172 C  
HETATM    6  C   UNL     1      -7.663  12.409  68.679  1.00  0.00    -0.067 C  
HETATM    7  C   UNL     1      -6.441  13.168  69.250  1.00  0.00    -0.107 C  
HETATM    8  N   UNL     1      -5.974  14.156  66.989  1.00  0.00     0.914 N  
HETATM    9  C   UNL     1      -6.081  14.464  68.506  1.00  0.00    -0.091 C  
HETATM   10  C   UNL     1      -5.339  15.350  66.250  1.00  0.00     3.369 C  
HETATM   11  C   UNL     1      -5.149  12.942  66.593  1.00  0.00     1.196 C  
ENDROOT
BRANCH   6  12
HETATM   12  O   UNL     1      -8.766  12.671  69.576  1.00  0.00     1.088 OA 
BRANCH  12  13
HETATM   13  C   UNL     1     -10.015  12.274  69.175  1.00  0.00     0.340 C  
HETATM   14  C   UNL     1     -11.067  13.389  69.488  1.00  0.00    -0.040 C  
HETATM   15  C   UNL     1     -12.029  12.970  70.594  1.00  0.00    -0.138 A  
HETATM   16  O   UNL     1     -10.444  14.585  69.983  1.00  0.00    -0.438 OA 
HETATM   17  C   UNL     1     -11.760  13.743  68.176  1.00  0.00    -0.357 A  
HETATM   18  O   UNL     1     -10.212  11.219  68.584  1.00  0.00    -0.191 OA 
HETATM   19  C   UNL     1     -12.708  13.801  71.476  1.00  0.00    -0.432 A  
HETATM   20  C   UNL     1     -12.905  13.195  67.617  1.00  0.00     1.700 A  
HETATM   21  H   UNL     1     -11.082  15.262  70.174  1.00  0.00     0.000 HD 
HETATM   22  C   UNL     1     -13.236  13.763  66.353  1.00  0.00     1.193 A  
HETATM   23  C   UNL     1     -13.538  13.094  72.391  1.00  0.00    -0.667 A  
HETATM   24  C   UNL     1     -13.489  11.737  72.181  1.00  0.00    -0.168 A  
HETATM   25  C   UNL     1     -12.334  14.727  65.970  1.00  0.00     0.032 A  
HETATM   26  S   UNL     1     -12.443  11.326  70.897  1.00  0.00    -0.363 SA 
HETATM   27  S   UNL     1     -11.077  14.919  67.110  1.00  0.00    -0.337 SA 
ENDBRANCH  12  13
ENDBRANCH   6  12
TORSDOF 2
ENDMDL
MODEL      182
REMARK 921   NORMALIZED FREE ENERGY PREDICTED BY IDOCK:    8.62 KCAL/MOL
REMARK 922        TOTAL FREE ENERGY PREDICTED BY IDOCK:    8.64 KCAL/MOL
REMARK 923 INTER-LIGAND FREE ENERGY PREDICTED BY IDOCK:    6.90 KCAL/MOL
REMARK 924 INTRA-LIGAND FREE ENERGY PREDICTED BY IDOCK:    1.74 KCAL/MOL
REMARK 927      BINDING AFFINITY PREDICTED BY RF-SCORE:    0.00 PKD
ROOT
HETATM    1  C   UNL     1      -9.463  12.207  69.627  1.00  0.00     1.701 C  
HETATM    2  O   UNL     1      -8.128  12.661  69.827  1.00  0.00     1.311 OA 
HETATM    3  C   UNL     1      -8.264  11.355  69.283  1.00  0.00     0.222 C  
HETATM    4  C   UNL     1      -8.310  11.170  67.774  1.00  0.00    -0.123 C  
HETATM    5  C   UNL     1      -7.555  12.294  67.043  1.00  0.00    -0.071 C  
HETATM    6  C   UNL     1      -8.177  13.710  67.185  1.00  0.00    -0.107 C  
HETATM    7  C   UNL     1      -9.662  13.752  67.620  1.00  0.00    -0.227 C  
HETATM    8  N   UNL     1      -9.813  11.254  67.413  1.00  0.00    -0.180 N  
HETATM    9  C   UNL     1     -10.170  12.473  68.305  1.00  0.00    -0.234 C  
HETATM   10  C   UNL     1     -10.551   9.998  67.915  1.00  0.00    -0.250 C  
HETATM   11  C   UNL     1     -10.150  11.364  65.935  1.00  0.00    -0.243 C  
ENDROOT
BRANCH   6  12
HETATM   12  O   UNL     1      -7.443  14.501  68.148  1.00  0.00    -0.106 OA 
BRANCH  12  13
HETATM   13  C   UNL     1      -8.154  15.400  68.899  1.00  0.00    -0.185 C  
HETATM   14  C   UNL     1      -7.911  16.855  68.377  1.00  0.00    -0.232 C  
HETATM   15  C   UNL     1      -7.107  17.690  69.367  1.00  0.00    -0.033 A  
HETATM   16  O   UNL     1      -7.127  16.865  67.173  1.00  0.00    -0.149 OA 
HETATM   17  C   UNL     1      -9.275  17.451  68.039  1.00  0.00    -0.266 A  
HETATM   18  O   UNL     1      -8.920  15.054  69.790  1.00  0.00    -0.075 OA 
HETATM   19  C   UNL     1      -6.278  18.767  69.080  1.00  0.00    -0.257 A  
HETATM   20  C   UNL     1     -10.137  18.173  68.850  1.00  0.00    -0.354 A  
HETATM   21  H   UNL     1      -6.979  17.749  66.856  1.00  0.00     0.000 HD 
HETATM   22  C   UNL     1     -11.346  18.540  68.191  1.00  0.00     0.901 A  
HETATM   23  C   UNL     1      -5.674  19.336  70.236  1.00  0.00    -0.268 A  
HETATM   24  C   UNL     1      -6.064  18.693  71.385  1.00  0.00     0.907 A  
HETATM   25  C   UNL     1     -11.385  18.085  66.895  1.00  0.00     0.901 A  
HETATM   26  S   UNL     1      -7.142  17.410  71.067  1.00  0.00     4.632 SA 
HETATM   27  S   UNL     1      -9.989  17.191  66.487  1.00  0.00    -0.313 SA 
ENDBRANCH  12  13
ENDBRANCH   6  12
TORSDOF 2
ENDMDL
MODEL      183
REMARK 921   NORMALIZED FREE ENERGY PREDICTED BY IDOCK:    8.94 KCAL/MOL
REMARK 922        TOTAL FREE ENERGY PREDICTED BY IDOCK:    9.00 KCAL/MOL
REMARK 923 INTER-LIGAND FREE ENERGY PREDICTED BY IDOCK:    6.39 KCAL/MOL
REMARK 924 INTRA-LIGAND FREE ENERGY PREDICTED BY IDOCK:    2.61 KCAL/MOL
REMARK 927      BINDING AFFINITY PREDICTED BY RF-SCORE:    0.00 PKD
ROOT
HETATM    1  C   UNL     1      -8.571   9.416  65.948  1.00  0.00    -0.141 C  
HETATM    2  O   UNL     1      -8.305  10.647  65.284  1.00  0.00    -0.163 OA 
HETATM    3  C   UNL     1      -9.677  10.325  65.466  1.00  0.00    -0.265 C  
HETATM    4  C   UNL     1     -10.399  10.795  66.720  1.00  0.00    -0.243 C  
HETATM    5  C   UNL     1      -9.770  12.079  67.288  1.00  0.00    -0.190 C  
HETATM    6  C   UNL     1      -8.321  11.925  67.824  1.00  0.00    -0.149 C  
HETATM    7  C   UNL     1      -7.873  10.479  68.148  1.00  0.00    -0.109 C  
HETATM    8  N   UNL     1     -10.206   9.645  67.739  1.00  0.00    -0.191 N  
HETATM    9  C   UNL     1      -8.702   9.379  67.465  1.00  0.00    -0.122 C  
HETATM   10  C   UNL     1     -11.043   8.420  67.322  1.00  0.00     0.460 C  
HETATM   11  C   UNL     1     -10.599   9.941  69.177  1.00  0.00    -0.220 C  
ENDROOT
BRANCH   6  12
HETATM   12  O   UNL     1      -7.363  12.450  66.877  1.00  0.00    -0.066 OA 
BRANCH  12  13
HETATM   13  C   UNL     1      -6.706  13.604  67.217  1.00  0.00     0.192 C  
HETATM   14  C   UNL     1      -7.705  14.634  67.842  1.00  0.00    -0.141 C  
HETATM   15  C   UNL     1      -7.934  15.833  66.929  1.00  0.00    -0.250 A  
HETATM   16  O   UNL     1      -9.011  14.064  68.026  1.00  0.00    -0.167 OA 
HETATM   17  C   UNL     1      -7.170  15.007  69.221  1.00  0.00    -0.179 A  
HETATM   18  O   UNL     1      -5.493  13.730  67.102  1.00  0.00    -0.214 OA 
HETATM   19  C   UNL     1      -9.065  16.637  66.866  1.00  0.00    -0.248 A  
HETATM   20  C   UNL     1      -6.309  16.035  69.575  1.00  0.00    -0.182 A  
HETATM   21  H   UNL     1      -9.618  14.689  68.405  1.00  0.00     0.000 HD 
HETATM   22  C   UNL     1      -6.004  16.053  70.966  1.00  0.00     0.533 A  
HETATM   23  C   UNL     1      -8.958  17.684  65.906  1.00  0.00     0.089 A  
HETATM   24  C   UNL     1      -7.743  17.667  65.266  1.00  0.00     1.638 A  
HETATM   25  C   UNL     1      -6.633  15.037  71.645  1.00  0.00     1.251 A  
HETATM   26  S   UNL     1      -6.747  16.395  65.814  1.00  0.00     2.888 SA 
HETATM   27  S   UNL     1      -7.554  14.045  70.604  1.00  0.00     2.578 SA 
ENDBRANCH  12  13
ENDBRANCH   6  12
TORSDOF 2
ENDMDL
MODEL      184
REMARK 921   NORMALIZED FREE ENERGY PREDICTED BY IDOCK:   11.79 KCAL/MOL
REMARK 922        TOTAL FREE ENERGY PREDICTED BY IDOCK:   12.19 KCAL/MOL
REMARK 923 INTER-LIGAND FREE ENERGY PREDICTED BY IDOCK:   12.75 KCAL/MOL
REMARK 924 INTRA-LIGAND FREE ENERGY PREDICTED BY IDOCK:   -0.57 KCAL/MOL
REMARK 927      BINDING AFFINITY PREDICTED BY RF-SCORE:    0.00 PKD
ROOT
HETATM    1  C   UNL     1      -7.794  12.534  70.568  1.00  0.00     4.684 C  
HETATM    2  O   UNL     1      -8.565  11.378  70.258  1.00  0.00     1.818 OA 
HETATM    3  C   UNL     1      -8.659  12.452  69.332  1.00  0.00     1.191 C  
HETATM    4  C   UNL     1      -7.699  12.516  68.154  1.00  0.00    -0.141 C  
HETATM    5  C   UNL     1      -7.212  11.115  67.744  1.00  0.00    -0.091 C  
HETATM    6  C   UNL     1      -6.336  10.384  68.798  1.00  0.00    -0.047 C  
HETATM    7  C   UNL     1      -5.690  11.286  69.878  1.00  0.00    -0.092 C  
HETATM    8  N   UNL     1      -6.493  13.338  68.672  1.00  0.00    -0.080 N  
HETATM    9  C   UNL     1      -6.363  12.656  70.060  1.00  0.00     0.013 C  
HETATM   10  C   UNL     1      -6.893  14.816  68.844  1.00  0.00    -0.105 C  
HETATM   11  C   UNL     1      -5.252  13.347  67.795  1.00  0.00    -0.063 C  
ENDROOT
BRANCH   6  12
HETATM   12  O   UNL     1      -7.105   9.384  69.503  1.00  0.00    -0.056 OA 
BRANCH  12  13
HETATM   13  C   UNL     1      -7.652   8.369  68.761  1.00  0.00    -0.101 C  
HETATM   14  C   UNL     1      -8.809   7.678  69.557  1.00  0.00    -0.139 C  
HETATM   15  C   UNL     1      -8.442   6.261  69.980  1.00  0.00    -0.134 A  
HETATM   16  O   UNL     1      -9.092   8.362  70.788  1.00  0.00    -0.142 OA 
HETATM   17  C   UNL     1     -10.064   7.754  68.692  1.00  0.00    -0.199 A  
HETATM   18  O   UNL     1      -7.303   8.132  67.612  1.00  0.00    -0.089 OA 
HETATM   19  C   UNL     1      -8.927   5.559  71.077  1.00  0.00    -0.153 A  
HETATM   20  C   UNL     1     -10.532   6.849  67.751  1.00  0.00    -0.279 A  
HETATM   21  H   UNL     1      -9.794   7.943  71.271  1.00  0.00     0.000 HD 
HETATM   22  C   UNL     1     -11.732   7.278  67.114  1.00  0.00     1.671 A  
HETATM   23  C   UNL     1      -8.387   4.247  71.190  1.00  0.00    -0.097 A  
HETATM   24  C   UNL     1      -7.510   3.966  70.169  1.00  0.00    -0.045 A  
HETATM   25  C   UNL     1     -12.151   8.502  67.576  1.00  0.00     5.240 A  
HETATM   26  S   UNL     1      -7.339   5.279  69.093  1.00  0.00    -0.062 SA 
HETATM   27  S   UNL     1     -11.085   9.147  68.743  1.00  0.00     0.253 SA 
ENDBRANCH  12  13
ENDBRANCH   6  12
TORSDOF 2
ENDMDL
MODEL      185
REMARK 921   NORMALIZED FREE ENERGY PREDICTED BY IDOCK:   11.81 KCAL/MOL
REMARK 922        TOTAL FREE ENERGY PREDICTED BY IDOCK:   12.20 KCAL/MOL
REMARK 923 INTER-LIGAND FREE ENERGY PREDICTED BY IDOCK:    2.65 KCAL/MOL
REMARK 924 INTRA-LIGAND FREE ENERGY PREDICTED BY IDOCK:    9.55 KCAL/MOL
REMARK 927      BINDING AFFINITY PREDICTED BY RF-SCORE:    0.00 PKD
ROOT
HETATM    1  C   UNL     1     -10.369   7.912  68.929  1.00  0.00    -0.213 C  
HETATM    2  O   UNL     1      -9.249   8.133  69.780  1.00  0.00    -0.151 OA 
HETATM    3  C   UNL     1      -9.107   7.087  68.828  1.00  0.00    -0.133 C  
HETATM    4  C   UNL     1      -8.525   7.393  67.456  1.00  0.00    -0.116 C  
HETATM    5  C   UNL     1      -7.574   8.602  67.501  1.00  0.00    -0.094 C  
HETATM    6  C   UNL     1      -8.245   9.959  67.845  1.00  0.00    -0.113 C  
HETATM    7  C   UNL     1      -9.779  10.022  67.643  1.00  0.00    -0.185 C  
HETATM    8  N   UNL     1      -9.751   7.748  66.578  1.00  0.00    -0.212 N  
HETATM    9  C   UNL     1     -10.481   8.655  67.604  1.00  0.00    -0.244 C  
HETATM   10  C   UNL     1     -10.588   6.484  66.301  1.00  0.00     0.315 C  
HETATM   11  C   UNL     1      -9.456   8.353  65.216  1.00  0.00     0.468 C  
ENDROOT
BRANCH   6  12
HETATM   12  O   UNL     1      -7.996  10.323  69.222  1.00  0.00    -0.123 OA 
BRANCH  12  13
HETATM   13  C   UNL     1      -8.398  11.569  69.629  1.00  0.00     1.019 C  
HETATM   14  C   UNL     1      -9.489  12.131  68.658  1.00  0.00    -0.045 C  
HETATM   15  C   UNL     1      -8.971  13.308  67.839  1.00  0.00    -0.199 A  
HETATM   16  O   UNL     1      -9.887  11.156  67.681  1.00  0.00    -0.171 OA 
HETATM   17  C   UNL     1     -10.718  12.465  69.499  1.00  0.00     0.281 A  
HETATM   18  O   UNL     1      -7.989  12.088  70.660  1.00  0.00     3.475 OA 
HETATM   19  C   UNL     1      -9.402  13.711  66.581  1.00  0.00    -0.265 A  
HETATM   20  C   UNL     1     -11.048  13.655  70.129  1.00  0.00     0.289 A  
HETATM   21  H   UNL     1     -10.549  11.497  67.091  1.00  0.00     0.000 HD 
HETATM   22  C   UNL     1     -12.270  13.580  70.857  1.00  0.00    -0.387 A  
HETATM   23  C   UNL     1      -8.715  14.857  66.090  1.00  0.00     0.155 A  
HETATM   24  C   UNL     1      -7.782  15.315  66.988  1.00  0.00    -0.157 A  
HETATM   25  C   UNL     1     -12.844  12.334  70.773  1.00  0.00    -0.017 A  
HETATM   26  S   UNL     1      -7.733  14.365  68.404  1.00  0.00    -0.141 SA 
HETATM   27  S   UNL     1     -11.896  11.252  69.854  1.00  0.00    -0.388 SA 
ENDBRANCH  12  13
ENDBRANCH   6  12
TORSDOF 2
ENDMDL
MODEL      186
REMARK 921   NORMALIZED FREE ENERGY PREDICTED BY IDOCK:   12.74 KCAL/MOL
REMARK 922        TOTAL FREE ENERGY PREDICTED BY IDOCK:   13.25 KCAL/MOL
REMARK 923 INTER-LIGAND FREE ENERGY PREDICTED BY IDOCK:    8.16 KCAL/MOL
REMARK 924 INTRA-LIGAND FREE ENERGY PREDICTED BY IDOCK:    5.09 KCAL/MOL
REMARK 927      BINDING AFFINITY PREDICTED BY RF-SCORE:    0.00 PKD
ROOT
HETATM    1  C   UNL     1     -11.814   8.114  66.439  1.00  0.00     5.887 C  
HETATM    2  O   UNL     1     -11.576   6.825  66.994  1.00  0.00     0.009 OA 
HETATM    3  C   UNL     1     -10.725   7.204  65.920  1.00  0.00     2.079 C  
HETATM    4  C   UNL     1      -9.416   7.919  66.214  1.00  0.00    -0.151 C  
HETATM    5  C   UNL     1      -8.873   7.557  67.608  1.00  0.00    -0.128 C  
HETATM    6  C   UNL     1      -9.744   8.034  68.802  1.00  0.00    -0.156 C  
HETATM    7  C   UNL     1     -10.750   9.169  68.491  1.00  0.00    -0.160 C  
HETATM    8  N   UNL     1      -9.776   9.426  66.190  1.00  0.00    -0.246 N  
HETATM    9  C   UNL     1     -11.096   9.333  67.002  1.00  0.00     0.396 C  
HETATM   10  C   UNL     1     -10.074   9.876  64.747  1.00  0.00     0.088 C  
HETATM   11  C   UNL     1      -8.717  10.384  66.709  1.00  0.00    -0.127 C  
ENDROOT
BRANCH   6  12
HETATM   12  O   UNL     1     -10.515   6.939  69.347  1.00  0.00    -0.199 OA 
BRANCH  12  13
HETATM   13  C   UNL     1     -10.906   7.033  70.658  1.00  0.00    -0.246 C  
HETATM   14  C   UNL     1     -10.417   8.385  71.275  1.00  0.00    -0.216 C  
HETATM   15  C   UNL     1      -9.328   8.174  72.320  1.00  0.00    -0.224 A  
HETATM   16  O   UNL     1      -9.811   9.234  70.286  1.00  0.00    -0.190 OA 
HETATM   17  C   UNL     1     -11.647   9.113  71.811  1.00  0.00    -0.387 A  
HETATM   18  O   UNL     1     -11.608   6.187  71.198  1.00  0.00    -0.300 OA 
HETATM   19  C   UNL     1      -8.325   9.065  72.681  1.00  0.00     0.615 A  
HETATM   20  C   UNL     1     -12.216   9.051  73.074  1.00  0.00     0.803 A  
HETATM   21  H   UNL     1      -9.514  10.055  70.661  1.00  0.00     0.000 HD 
HETATM   22  C   UNL     1     -13.388   9.851  73.196  1.00  0.00     1.616 A  
HETATM   23  C   UNL     1      -7.465   8.564  73.699  1.00  0.00    -0.064 A  
HETATM   24  C   UNL     1      -7.837   7.306  74.107  1.00  0.00    -0.123 A  
HETATM   25  C   UNL     1     -13.693  10.501  72.024  1.00  0.00     0.021 A  
HETATM   26  S   UNL     1      -9.204   6.736  73.261  1.00  0.00    -0.139 SA 
HETATM   27  S   UNL     1     -12.595  10.119  70.775  1.00  0.00    -0.296 SA 
ENDBRANCH  12  13
ENDBRANCH   6  12
TORSDOF 2
ENDMDL
MODEL      187
REMARK 921   NORMALIZED FREE ENERGY PREDICTED BY IDOCK:   15.77 KCAL/MOL
REMARK 922        TOTAL FREE ENERGY PREDICTED BY IDOCK:   16.64 KCAL/MOL
REMARK 923 INTER-LIGAND FREE ENERGY PREDICTED BY IDOCK:    4.71 KCAL/MOL
REMARK 924 INTRA-LIGAND FREE ENERGY PREDICTED BY IDOCK:   11.92 KCAL/MOL
REMARK 927      BINDING AFFINITY PREDICTED BY RF-SCORE:    0.00 PKD
ROOT
HETATM    1  C   UNL     1      -8.904  15.747  69.153  1.00  0.00    -0.250 C  
HETATM    2  O   UNL     1      -9.259  15.049  67.963  1.00  0.00    -0.179 OA 
HETATM    3  C   UNL     1      -8.289  16.077  67.813  1.00  0.00    -0.150 C  
HETATM    4  C   UNL     1      -6.811  15.743  67.944  1.00  0.00    -0.145 C  
HETATM    5  C   UNL     1      -6.527  14.278  67.565  1.00  0.00    -0.064 C  
HETATM    6  C   UNL     1      -7.153  13.217  68.509  1.00  0.00    -0.105 C  
HETATM    7  C   UNL     1      -7.567  13.724  69.912  1.00  0.00     0.879 C  
HETATM    8  N   UNL     1      -6.494  15.946  69.446  1.00  0.00    -0.156 N  
HETATM    9  C   UNL     1      -7.755  15.246  70.018  1.00  0.00     0.172 C  
HETATM   10  C   UNL     1      -6.518  17.447  69.795  1.00  0.00    -0.073 C  
HETATM   11  C   UNL     1      -5.147  15.434  69.929  1.00  0.00    -0.099 C  
ENDROOT
BRANCH   6  12
HETATM   12  O   UNL     1      -8.337  12.635  67.916  1.00  0.00    -0.149 OA 
BRANCH  12  13
HETATM   13  C   UNL     1      -9.032  13.399  67.015  1.00  0.00    -0.224 C  
HETATM   14  C   UNL     1     -10.519  12.919  66.929  1.00  0.00    -0.246 C  
HETATM   15  C   UNL     1     -10.829  12.263  65.588  1.00  0.00    -0.285 A  
HETATM   16  O   UNL     1     -10.808  11.905  67.904  1.00  0.00    -0.196 OA 
HETATM   17  C   UNL     1     -11.404  14.122  67.242  1.00  0.00    -0.332 A  
HETATM   18  O   UNL     1      -8.533  14.362  66.445  1.00  0.00     0.072 OA 
HETATM   19  C   UNL     1     -11.792  11.296  65.329  1.00  0.00     0.644 A  
HETATM   20  C   UNL     1     -11.939  15.062  66.374  1.00  0.00     0.044 A  
HETATM   21  H   UNL     1     -11.711  11.613  67.852  1.00  0.00     0.000 HD 
HETATM   22  C   UNL     1     -12.696  16.069  67.040  1.00  0.00     3.024 A  
HETATM   23  C   UNL     1     -11.833  10.893  63.964  1.00  0.00     1.421 A  
HETATM   24  C   UNL     1     -10.910  11.571  63.204  1.00  0.00    -0.163 A  
HETATM   25  C   UNL     1     -12.718  15.880  68.401  1.00  0.00     1.627 A  
HETATM   26  S   UNL     1     -10.001  12.675  64.134  1.00  0.00    -0.044 SA 
HETATM   27  S   UNL     1     -11.801  14.520  68.875  1.00  0.00    -0.310 SA 
ENDBRANCH  12  13
ENDBRANCH   6  12
TORSDOF 2
ENDMDL
MODEL      188
REMARK 921   NORMALIZED FREE ENERGY PREDICTED BY IDOCK:   18.10 KCAL/MOL
REMARK 922        TOTAL FREE ENERGY PREDICTED BY IDOCK:   19.23 KCAL/MOL
REMARK 923 INTER-LIGAND FREE ENERGY PREDICTED BY IDOCK:    8.10 KCAL/MOL
REMARK 924 INTRA-LIGAND FREE ENERGY PREDICTED BY IDOCK:   11.13 KCAL/MOL
REMARK 927      BINDING AFFINITY PREDICTED BY RF-SCORE:    0.00 PKD
ROOT
HETATM    1  C   UNL     1     -10.494   9.564  71.657  1.00  0.00     0.035 C  
HETATM    2  O   UNL     1      -9.806   8.561  70.917  1.00  0.00    -0.174 OA 
HETATM    3  C   UNL     1     -10.160   8.215  72.250  1.00  0.00    -0.269 C  
HETATM    4  C   UNL     1     -11.498   7.543  72.521  1.00  0.00    -0.327 C  
HETATM    5  C   UNL     1     -11.986   6.740  71.302  1.00  0.00    -0.414 C  
HETATM    6  C   UNL     1     -12.332   7.587  70.047  1.00  0.00     0.729 C  
HETATM    7  C   UNL     1     -12.590   9.092  70.301  1.00  0.00     0.671 C  
HETATM    8  N   UNL     1     -12.480   8.712  72.781  1.00  0.00    -0.218 N  
HETATM    9  C   UNL     1     -12.015   9.632  71.620  1.00  0.00    -0.394 C  
HETATM   10  C   UNL     1     -12.169   9.375  74.137  1.00  0.00     9.880 C  
HETATM   11  C   UNL     1     -13.957   8.359  72.826  1.00  0.00     0.062 C  
ENDROOT
BRANCH   6  12
HETATM   12  O   UNL     1     -11.272   7.511  69.067  1.00  0.00     0.059 OA 
BRANCH  12  13
HETATM   13  C   UNL     1     -10.604   6.320  68.950  1.00  0.00    -0.268 C  
HETATM   14  C   UNL     1      -9.249   6.378  69.730  1.00  0.00    -0.144 C  
HETATM   15  C   UNL     1      -8.049   6.368  68.789  1.00  0.00    -0.114 A  
HETATM   16  O   UNL     1      -9.115   7.600  70.474  1.00  0.00    -0.150 OA 
HETATM   17  C   UNL     1      -9.250   5.229  70.733  1.00  0.00    -0.152 A  
HETATM   18  O   UNL     1     -11.082   5.350  68.374  1.00  0.00     0.121 OA 
HETATM   19  C   UNL     1      -6.792   6.912  69.024  1.00  0.00    -0.069 A  
HETATM   20  C   UNL     1      -8.793   3.929  70.572  1.00  0.00    -0.136 A  
HETATM   21  H   UNL     1      -8.292   7.636  70.948  1.00  0.00     0.000 HD 
HETATM   22  C   UNL     1      -8.992   3.121  71.729  1.00  0.00    -0.145 A  
HETATM   23  C   UNL     1      -5.887   6.727  67.941  1.00  0.00    -0.020 A  
HETATM   24  C   UNL     1      -6.466   6.033  66.905  1.00  0.00    -0.050 A  
HETATM   25  C   UNL     1      -9.602   3.818  72.745  1.00  0.00    -0.130 A  
HETATM   26  S   UNL     1      -8.086   5.618  67.239  1.00  0.00    -0.101 SA 
HETATM   27  S   UNL     1      -9.965   5.423  72.293  1.00  0.00    -0.182 SA 
ENDBRANCH  12  13
ENDBRANCH   6  12
TORSDOF 2
ENDMDL
MODEL      189
REMARK 921   NORMALIZED FREE ENERGY PREDICTED BY IDOCK:   21.16 KCAL/MOL
REMARK 922        TOTAL FREE ENERGY PREDICTED BY IDOCK:   22.66 KCAL/MOL
REMARK 923 INTER-LIGAND FREE ENERGY PREDICTED BY IDOCK:   16.95 KCAL/MOL
REMARK 924 INTRA-LIGAND FREE ENERGY PREDICTED BY IDOCK:    5.70 KCAL/MOL
REMARK 927      BINDING AFFINITY PREDICTED BY RF-SCORE:    0.00 PKD
ROOT
HETATM    1  C   UNL     1      -6.369  15.695  68.143  1.00  0.00    -0.125 C  
HETATM    2  O   UNL     1      -7.723  15.804  68.570  1.00  0.00    -0.127 OA 
HETATM    3  C   UNL     1      -7.528  15.523  67.190  1.00  0.00    -0.209 C  
HETATM    4  C   UNL     1      -7.463  14.078  66.719  1.00  0.00     0.899 C  
HETATM    5  C   UNL     1      -8.258  13.143  67.647  1.00  0.00    -0.175 C  
HETATM    6  C   UNL     1      -7.697  13.008  69.089  1.00  0.00     0.317 C  
HETATM    7  C   UNL     1      -6.219  13.427  69.278  1.00  0.00    -0.103 C  
HETATM    8  N   UNL     1      -5.961  13.707  66.796  1.00  0.00     1.558 N  
HETATM    9  C   UNL     1      -5.663  14.346  68.179  1.00  0.00    -0.129 C  
HETATM   10  C   UNL     1      -5.175  14.443  65.693  1.00  0.00     9.433 C  
HETATM   11  C   UNL     1      -5.617  12.236  66.632  1.00  0.00     0.430 C  
ENDROOT
BRANCH   6  12
HETATM   12  O   UNL     1      -8.472  13.800  70.019  1.00  0.00     1.543 OA 
BRANCH  12  13
HETATM   13  C   UNL     1      -9.781  14.050  69.698  1.00  0.00     0.793 C  
HETATM   14  C   UNL     1     -10.114  15.562  69.918  1.00  0.00    -0.272 C  
HETATM   15  C   UNL     1     -11.067  15.771  71.090  1.00  0.00    -0.245 A  
HETATM   16  O   UNL     1      -8.944  16.322  70.262  1.00  0.00     1.004 OA 
HETATM   17  C   UNL     1     -10.642  16.109  68.595  1.00  0.00    -0.283 A  
HETATM   18  O   UNL     1     -10.520  13.192  69.232  1.00  0.00     0.016 OA 
HETATM   19  C   UNL     1     -11.174  16.899  71.895  1.00  0.00     0.773 A  
HETATM   20  C   UNL     1     -11.948  16.165  68.132  1.00  0.00     0.347 A  
HETATM   21  H   UNL     1      -9.147  17.240  70.396  1.00  0.00     0.000 HD 
HETATM   22  C   UNL     1     -12.053  16.719  66.823  1.00  0.00     2.487 A  
HETATM   23  C   UNL     1     -12.171  16.777  72.904  1.00  0.00    -0.012 A  
HETATM   24  C   UNL     1     -12.816  15.566  72.841  1.00  0.00    -0.457 A  
HETATM   25  C   UNL     1     -10.825  17.068  66.312  1.00  0.00     0.034 A  
HETATM   26  S   UNL     1     -12.215  14.585  71.581  1.00  0.00    -0.297 SA 
HETATM   27  S   UNL     1      -9.553  16.696  67.389  1.00  0.00    -0.246 SA 
ENDBRANCH  12  13
ENDBRANCH   6  12
TORSDOF 2
ENDMDL
MODEL      190
REMARK 921   NORMALIZED FREE ENERGY PREDICTED BY IDOCK:   25.83 KCAL/MOL
REMARK 922        TOTAL FREE ENERGY PREDICTED BY IDOCK:   27.86 KCAL/MOL
REMARK 923 INTER-LIGAND FREE ENERGY PREDICTED BY IDOCK:   27.15 KCAL/MOL
REMARK 924 INTRA-LIGAND FREE ENERGY PREDICTED BY IDOCK:    0.71 KCAL/MOL
REMARK 927      BINDING AFFINITY PREDICTED BY RF-SCORE:    0.00 PKD
ROOT
HETATM    1  C   UNL     1      -7.313  16.977  64.660  1.00  0.00     6.340 C  
HETATM    2  O   UNL     1      -6.411  16.104  65.332  1.00  0.00     3.247 OA 
HETATM    3  C   UNL     1      -5.821  17.216  64.672  1.00  0.00     3.565 C  
HETATM    4  C   UNL     1      -5.619  18.519  65.429  1.00  0.00    -0.204 C  
HETATM    5  C   UNL     1      -5.459  18.277  66.940  1.00  0.00    -0.155 C  
HETATM    6  C   UNL     1      -6.715  17.713  67.657  1.00  0.00    -0.171 C  
HETATM    7  C   UNL     1      -8.058  17.898  66.909  1.00  0.00    -0.250 C  
HETATM    8  N   UNL     1      -6.920  19.323  65.182  1.00  0.00    -0.073 N  
HETATM    9  C   UNL     1      -7.924  18.160  65.400  1.00  0.00     1.044 C  
HETATM   10  C   UNL     1      -6.977  19.804  63.720  1.00  0.00     1.849 C  
HETATM   11  C   UNL     1      -7.119  20.568  66.032  1.00  0.00    -0.162 C  
ENDROOT
BRANCH   6  12
HETATM   12  O   UNL     1      -6.574  16.295  67.904  1.00  0.00    -0.118 OA 
BRANCH  12  13
HETATM   13  C   UNL     1      -7.720  15.572  68.110  1.00  0.00    -0.123 C  
HETATM   14  C   UNL     1      -7.752  15.010  69.570  1.00  0.00    -0.168 C  
HETATM   15  C   UNL     1      -7.597  13.494  69.600  1.00  0.00     0.707 A  
HETATM   16  O   UNL     1      -6.655  15.503  70.355  1.00  0.00     0.001 OA 
HETATM   17  C   UNL     1      -9.040  15.507  70.221  1.00  0.00     0.761 A  
HETATM   18  O   UNL     1      -8.601  15.480  67.264  1.00  0.00    -0.171 OA 
HETATM   19  C   UNL     1      -7.069  12.724  70.629  1.00  0.00     2.581 A  
HETATM   20  C   UNL     1     -10.291  14.909  70.249  1.00  0.00     0.108 A  
HETATM   21  H   UNL     1      -6.674  15.162  71.241  1.00  0.00     0.000 HD 
HETATM   22  C   UNL     1     -11.268  15.692  70.930  1.00  0.00    -0.407 A  
HETATM   23  C   UNL     1      -7.071  11.329  70.346  1.00  0.00     1.033 A  
HETATM   24  C   UNL     1      -7.612  11.059  69.113  1.00  0.00    -0.113 A  
HETATM   25  C   UNL     1     -10.745  16.872  71.400  1.00  0.00     1.646 A  
HETATM   26  S   UNL     1      -8.105  12.478  68.305  1.00  0.00    -0.154 SA 
HETATM   27  S   UNL     1      -9.097  17.052  70.992  1.00  0.00     6.541 SA 
ENDBRANCH  12  13
ENDBRANCH   6  12
TORSDOF 2
ENDMDL
MODEL      191
REMARK 921   NORMALIZED FREE ENERGY PREDICTED BY IDOCK:   27.81 KCAL/MOL
REMARK 922        TOTAL FREE ENERGY PREDICTED BY IDOCK:   30.08 KCAL/MOL
REMARK 923 INTER-LIGAND FREE ENERGY PREDICTED BY IDOCK:   30.97 KCAL/MOL
REMARK 924 INTRA-LIGAND FREE ENERGY PREDICTED BY IDOCK:   -0.89 KCAL/MOL
REMARK 927      BINDING AFFINITY PREDICTED BY RF-SCORE:    0.00 PKD
ROOT
HETATM    1  C   UNL     1     -11.827   8.124  66.442  1.00  0.00     5.887 C  
HETATM    2  O   UNL     1     -11.557   6.862  67.043  1.00  0.00     0.072 OA 
HETATM    3  C   UNL     1     -10.742   7.205  65.930  1.00  0.00     2.079 C  
HETATM    4  C   UNL     1      -9.434   7.947  66.156  1.00  0.00    -0.088 C  
HETATM    5  C   UNL     1      -8.848   7.650  67.548  1.00  0.00    -0.124 C  
HETATM    6  C   UNL     1      -9.690   8.167  68.745  1.00  0.00    -0.153 C  
HETATM    7  C   UNL     1     -10.718   9.276  68.416  1.00  0.00    -0.192 C  
HETATM    8  N   UNL     1      -9.814   9.447  66.079  1.00  0.00    -0.288 N  
HETATM    9  C   UNL     1     -11.109   9.374  66.932  1.00  0.00     0.408 C  
HETATM   10  C   UNL     1     -10.159   9.833  64.628  1.00  0.00     0.376 C  
HETATM   11  C   UNL     1      -8.753  10.439  66.527  1.00  0.00    -0.136 C  
ENDROOT
BRANCH   6  12
HETATM   12  O   UNL     1     -10.431   7.087  69.358  1.00  0.00    -0.200 OA 
BRANCH  12  13
HETATM   13  C   UNL     1     -10.768   7.223  70.680  1.00  0.00    -0.235 C  
HETATM   14  C   UNL     1     -12.317   7.377  70.832  1.00  0.00    -0.201 C  
HETATM   15  C   UNL     1     -12.708   8.779  71.288  1.00  0.00    -0.230 A  
HETATM   16  O   UNL     1     -12.996   7.201  69.578  1.00  0.00     1.528 OA 
HETATM   17  C   UNL     1     -12.795   6.273  71.770  1.00  0.00     0.255 A  
HETATM   18  O   UNL     1      -9.942   7.144  71.581  1.00  0.00    -0.178 OA 
HETATM   19  C   UNL     1     -13.904   9.440  71.039  1.00  0.00    -0.011 A  
HETATM   20  C   UNL     1     -12.927   6.296  73.150  1.00  0.00     1.942 A  
HETATM   21  H   UNL     1     -13.937   7.296  69.670  1.00  0.00     0.000 HD 
HETATM   22  C   UNL     1     -13.375   5.055  73.688  1.00  0.00     4.796 A  
HETATM   23  C   UNL     1     -13.957  10.742  71.612  1.00  0.00     0.617 A  
HETATM   24  C   UNL     1     -12.807  11.044  72.300  1.00  0.00     0.246 A  
HETATM   25  C   UNL     1     -13.570   4.110  72.710  1.00  0.00     3.021 A  
HETATM   26  S   UNL     1     -11.674   9.770  72.244  1.00  0.00     0.996 SA 
HETATM   27  S   UNL     1     -13.179   4.704  71.158  1.00  0.00    10.779 SA 
ENDBRANCH  12  13
ENDBRANCH   6  12
TORSDOF 2
ENDMDL
MODEL      192
REMARK 921   NORMALIZED FREE ENERGY PREDICTED BY IDOCK:   29.56 KCAL/MOL
REMARK 922        TOTAL FREE ENERGY PREDICTED BY IDOCK:   32.04 KCAL/MOL
REMARK 923 INTER-LIGAND FREE ENERGY PREDICTED BY IDOCK:   31.79 KCAL/MOL
REMARK 924 INTRA-LIGAND FREE ENERGY PREDICTED BY IDOCK:    0.25 KCAL/MOL
REMARK 927      BINDING AFFINITY PREDICTED BY RF-SCORE:    0.00 PKD
ROOT
HETATM    1  C   UNL     1      -9.281  19.132  72.163  1.00  0.00     6.329 C  
HETATM    2  O   UNL     1     -10.306  18.783  71.238  1.00  0.00     2.036 OA 
HETATM    3  C   UNL     1      -9.649  20.020  70.996  1.00  0.00     1.938 C  
HETATM    4  C   UNL     1      -8.419  20.055  70.103  1.00  0.00     1.255 C  
HETATM    5  C   UNL     1      -8.436  18.914  69.070  1.00  0.00    -0.174 C  
HETATM    6  C   UNL     1      -8.327  17.483  69.663  1.00  0.00     0.966 C  
HETATM    7  C   UNL     1      -7.764  17.392  71.102  1.00  0.00     6.571 C  
HETATM    8  N   UNL     1      -7.226  19.845  71.068  1.00  0.00     0.675 N  
HETATM    9  C   UNL     1      -7.844  18.698  71.910  1.00  0.00     8.104 C  
HETATM   10  C   UNL     1      -7.025  21.096  71.944  1.00  0.00     3.300 C  
HETATM   11  C   UNL     1      -5.875  19.573  70.426  1.00  0.00    -0.248 C  
ENDROOT
BRANCH   6  12
HETATM   12  O   UNL     1      -9.619  16.835  69.685  1.00  0.00     0.010 OA 
BRANCH  12  13
HETATM   13  C   UNL     1      -9.680  15.565  70.196  1.00  0.00     0.115 C  
HETATM   14  C   UNL     1     -11.091  14.942  69.936  1.00  0.00    -0.259 C  
HETATM   15  C   UNL     1     -11.886  14.772  71.225  1.00  0.00    -0.335 A  
HETATM   16  O   UNL     1     -11.907  15.795  69.116  1.00  0.00    -0.381 OA 
HETATM   17  C   UNL     1     -10.880  13.639  69.170  1.00  0.00    -0.152 A  
HETATM   18  O   UNL     1      -8.712  15.012  70.703  1.00  0.00     1.013 OA 
HETATM   19  C   UNL     1     -13.269  14.766  71.365  1.00  0.00    -0.442 A  
HETATM   20  C   UNL     1     -10.701  12.355  69.664  1.00  0.00     0.384 A  
HETATM   21  H   UNL     1     -12.764  15.417  68.958  1.00  0.00     0.000 HD 
HETATM   22  C   UNL     1     -10.498  11.387  68.639  1.00  0.00    -0.224 A  
HETATM   23  C   UNL     1     -13.697  14.578  72.710  1.00  0.00    -0.466 A  
HETATM   24  C   UNL     1     -12.635  14.430  73.568  1.00  0.00    -0.028 A  
HETATM   25  C   UNL     1     -10.520  11.951  67.386  1.00  0.00    -0.217 A  
HETATM   26  S   UNL     1     -11.137  14.526  72.757  1.00  0.00     2.287 SA 
HETATM   27  S   UNL     1     -10.746  13.642  67.448  1.00  0.00    -0.268 SA 
ENDBRANCH  12  13
ENDBRANCH   6  12
TORSDOF 2
ENDMDL
MODEL      193
REMARK 921   NORMALIZED FREE ENERGY PREDICTED BY IDOCK:   32.99 KCAL/MOL
REMARK 922        TOTAL FREE ENERGY PREDICTED BY IDOCK:   35.87 KCAL/MOL
REMARK 923 INTER-LIGAND FREE ENERGY PREDICTED BY IDOCK:   34.97 KCAL/MOL
REMARK 924 INTRA-LIGAND FREE ENERGY PREDICTED BY IDOCK:    0.89 KCAL/MOL
REMARK 927      BINDING AFFINITY PREDICTED BY RF-SCORE:    0.00 PKD
ROOT
HETATM    1  C   UNL     1     -10.516  17.722  69.387  1.00  0.00     0.161 C  
HETATM    2  O   UNL     1      -9.872  16.473  69.616  1.00  0.00    -0.147 OA 
HETATM    3  C   UNL     1     -11.283  16.484  69.788  1.00  0.00    -0.161 C  
HETATM    4  C   UNL     1     -12.187  16.160  68.608  1.00  0.00     0.496 C  
HETATM    5  C   UNL     1     -11.486  15.238  67.594  1.00  0.00    -0.287 C  
HETATM    6  C   UNL     1     -10.265  15.862  66.866  1.00  0.00    -0.277 C  
HETATM    7  C   UNL     1     -10.186  17.408  66.887  1.00  0.00    -0.322 C  
HETATM    8  N   UNL     1     -12.464  17.528  67.938  1.00  0.00     3.198 N  
HETATM    9  C   UNL     1     -11.015  18.081  67.994  1.00  0.00    -0.022 C  
HETATM   10  C   UNL     1     -13.389  18.378  68.830  1.00  0.00    14.321 C  
HETATM   11  C   UNL     1     -13.132  17.491  66.572  1.00  0.00     9.632 C  
ENDROOT
BRANCH   6  12
HETATM   12  O   UNL     1      -9.026  15.379  67.433  1.00  0.00    -0.182 OA 
BRANCH  12  13
HETATM   13  C   UNL     1      -8.995  14.081  67.872  1.00  0.00    -0.188 C  
HETATM   14  C   UNL     1      -9.106  13.096  66.661  1.00  0.00    -0.173 C  
HETATM   15  C   UNL     1     -10.435  12.351  66.652  1.00  0.00    -0.229 A  
HETATM   16  O   UNL     1      -9.071  13.791  65.404  1.00  0.00    -0.061 OA 
HETATM   17  C   UNL     1      -7.889  12.177  66.709  1.00  0.00     0.004 A  
HETATM   18  O   UNL     1      -8.822  13.787  69.048  1.00  0.00     0.074 OA 
HETATM   19  C   UNL     1     -11.103  11.836  65.548  1.00  0.00    -0.336 A  
HETATM   20  C   UNL     1      -7.743  10.954  67.345  1.00  0.00    -0.108 A  
HETATM   21  H   UNL     1      -9.139  13.194  64.668  1.00  0.00     0.000 HD 
HETATM   22  C   UNL     1      -6.440  10.399  67.195  1.00  0.00    -0.072 A  
HETATM   23  C   UNL     1     -12.325  11.187  65.881  1.00  0.00     2.782 A  
HETATM   24  C   UNL     1     -12.561  11.206  67.234  1.00  0.00     3.472 A  
HETATM   25  C   UNL     1      -5.616  11.211  66.453  1.00  0.00    -0.138 A  
HETATM   26  S   UNL     1     -11.321  12.007  68.089  1.00  0.00    -0.317 SA 
HETATM   27  S   UNL     1      -6.399  12.651  65.974  1.00  0.00     3.854 SA 
ENDBRANCH  12  13
ENDBRANCH   6  12
TORSDOF 2
ENDMDL
MODEL      194
REMARK 921   NORMALIZED FREE ENERGY PREDICTED BY IDOCK:   34.66 KCAL/MOL
REMARK 922        TOTAL FREE ENERGY PREDICTED BY IDOCK:   37.73 KCAL/MOL
REMARK 923 INTER-LIGAND FREE ENERGY PREDICTED BY IDOCK:   24.61 KCAL/MOL
REMARK 924 INTRA-LIGAND FREE ENERGY PREDICTED BY IDOCK:   13.12 KCAL/MOL
REMARK 927      BINDING AFFINITY PREDICTED BY RF-SCORE:    0.00 PKD
ROOT
HETATM    1  C   UNL     1      -7.424  16.691  68.335  1.00  0.00    -0.194 C  
HETATM    2  O   UNL     1      -7.782  16.086  69.573  1.00  0.00    -0.217 OA 
HETATM    3  C   UNL     1      -7.465  17.470  69.629  1.00  0.00     0.516 C  
HETATM    4  C   UNL     1      -8.569  18.502  69.453  1.00  0.00     0.410 C  
HETATM    5  C   UNL     1      -9.936  17.949  69.895  1.00  0.00     0.758 C  
HETATM    6  C   UNL     1     -10.487  16.780  69.035  1.00  0.00    -0.336 C  
HETATM    7  C   UNL     1      -9.863  16.628  67.626  1.00  0.00    -0.256 C  
HETATM    8  N   UNL     1      -8.607  18.782  67.930  1.00  0.00    -0.290 N  
HETATM    9  C   UNL     1      -8.497  17.310  67.449  1.00  0.00    -0.200 C  
HETATM   10  C   UNL     1      -7.355  19.572  67.505  1.00  0.00    -0.238 C  
HETATM   11  C   UNL     1      -9.792  19.583  67.418  1.00  0.00    -0.358 C  
ENDROOT
BRANCH   6  12
HETATM   12  O   UNL     1     -10.298  15.513  69.707  1.00  0.00    -0.275 OA 
BRANCH  12  13
HETATM   13  C   UNL     1      -9.208  14.764  69.347  1.00  0.00     0.041 C  
HETATM   14  C   UNL     1      -8.995  13.593  70.363  1.00  0.00     4.086 C  
HETATM   15  C   UNL     1      -7.737  13.788  71.202  1.00  0.00     4.675 A  
HETATM   16  O   UNL     1     -10.063  13.519  71.322  1.00  0.00     4.687 OA 
HETATM   17  C   UNL     1      -9.005  12.292  69.566  1.00  0.00     1.548 A  
HETATM   18  O   UNL     1      -8.574  14.975  68.321  1.00  0.00    -0.147 OA 
HETATM   19  C   UNL     1      -7.498  13.303  72.482  1.00  0.00     9.175 A  
HETATM   20  C   UNL     1      -7.943  11.619  68.980  1.00  0.00     0.060 A  
HETATM   21  H   UNL     1      -9.934  12.808  71.939  1.00  0.00     0.000 HD 
HETATM   22  C   UNL     1      -8.344  10.443  68.284  1.00  0.00    -0.119 A  
HETATM   23  C   UNL     1      -6.215  13.658  72.987  1.00  0.00     1.465 A  
HETATM   24  C   UNL     1      -5.494  14.393  72.078  1.00  0.00    -0.125 A  
HETATM   25  C   UNL     1      -9.703  10.245  68.347  1.00  0.00    -0.156 A  
HETATM   26  S   UNL     1      -6.363  14.658  70.634  1.00  0.00     0.042 SA 
HETATM   27  S   UNL     1     -10.493  11.490  69.208  1.00  0.00     0.060 SA 
ENDBRANCH  12  13
ENDBRANCH   6  12
TORSDOF 2
ENDMDL
MODEL      195
REMARK 921   NORMALIZED FREE ENERGY PREDICTED BY IDOCK:   36.82 KCAL/MOL
REMARK 922        TOTAL FREE ENERGY PREDICTED BY IDOCK:   40.14 KCAL/MOL
REMARK 923 INTER-LIGAND FREE ENERGY PREDICTED BY IDOCK:   25.52 KCAL/MOL
REMARK 924 INTRA-LIGAND FREE ENERGY PREDICTED BY IDOCK:   14.62 KCAL/MOL
REMARK 927      BINDING AFFINITY PREDICTED BY RF-SCORE:    0.00 PKD
ROOT
HETATM    1  C   UNL     1      -9.053  15.793  68.934  1.00  0.00    -0.225 C  
HETATM    2  O   UNL     1      -9.427  15.234  67.679  1.00  0.00    -0.203 OA 
HETATM    3  C   UNL     1      -8.061  15.607  67.809  1.00  0.00    -0.146 C  
HETATM    4  C   UNL     1      -7.049  14.591  68.317  1.00  0.00    -0.113 C  
HETATM    5  C   UNL     1      -7.484  13.150  67.996  1.00  0.00    -0.132 C  
HETATM    6  C   UNL     1      -8.771  12.670  68.720  1.00  0.00     0.174 C  
HETATM    7  C   UNL     1      -9.179  13.479  69.976  1.00  0.00     2.749 C  
HETATM    8  N   UNL     1      -7.036  14.783  69.854  1.00  0.00    -0.143 N  
HETATM    9  C   UNL     1      -8.571  14.888  70.060  1.00  0.00     0.539 C  
HETATM   10  C   UNL     1      -6.361  16.120  70.215  1.00  0.00     0.134 C  
HETATM   11  C   UNL     1      -6.307  13.723  70.663  1.00  0.00     0.071 C  
ENDROOT
BRANCH   6  12
HETATM   12  O   UNL     1      -9.907  12.699  67.825  1.00  0.00    -0.201 OA 
BRANCH  12  13
HETATM   13  C   UNL     1      -9.662  12.966  66.503  1.00  0.00    -0.257 C  
HETATM   14  C   UNL     1     -10.593  14.120  66.001  1.00  0.00    -0.297 C  
HETATM   15  C   UNL     1     -11.636  13.619  65.009  1.00  0.00    -0.332 A  
HETATM   16  O   UNL     1     -11.358  14.692  67.074  1.00  0.00    -0.333 OA 
HETATM   17  C   UNL     1      -9.694  15.220  65.443  1.00  0.00    -0.208 A  
HETATM   18  O   UNL     1      -8.773  12.409  65.872  1.00  0.00     0.176 OA 
HETATM   19  C   UNL     1     -12.890  14.163  64.762  1.00  0.00    -0.085 A  
HETATM   20  C   UNL     1      -9.229  15.394  64.148  1.00  0.00     6.740 A  
HETATM   21  H   UNL     1     -11.924  15.392  66.770  1.00  0.00     0.000 HD 
HETATM   22  C   UNL     1      -8.377  16.527  64.010  1.00  0.00    12.628 A  
HETATM   23  C   UNL     1     -13.623  13.460  63.765  1.00  0.00     2.934 A  
HETATM   24  C   UNL     1     -12.909  12.401  63.258  1.00  0.00    -0.039 A  
HETATM   25  C   UNL     1      -8.205  17.191  65.201  1.00  0.00     2.833 A  
HETATM   26  S   UNL     1     -11.373  12.257  63.988  1.00  0.00    -0.440 SA 
HETATM   27  S   UNL     1      -9.034  16.430  66.485  1.00  0.00    -0.304 SA 
ENDBRANCH  12  13
ENDBRANCH   6  12
TORSDOF 2
ENDMDL
MODEL      196
REMARK 921   NORMALIZED FREE ENERGY PREDICTED BY IDOCK:   39.36 KCAL/MOL
REMARK 922        TOTAL FREE ENERGY PREDICTED BY IDOCK:   42.99 KCAL/MOL
REMARK 923 INTER-LIGAND FREE ENERGY PREDICTED BY IDOCK:   31.44 KCAL/MOL
REMARK 924 INTRA-LIGAND FREE ENERGY PREDICTED BY IDOCK:   11.55 KCAL/MOL
REMARK 927      BINDING AFFINITY PREDICTED BY RF-SCORE:    0.00 PKD
ROOT
HETATM    1  C   UNL     1     -11.099  11.521  69.696  1.00  0.00    -0.143 C  
HETATM    2  O   UNL     1      -9.727  11.188  69.510  1.00  0.00     0.058 OA 
HETATM    3  C   UNL     1     -10.603  10.094  69.753  1.00  0.00    -0.260 C  
HETATM    4  C   UNL     1     -11.260   9.383  68.580  1.00  0.00     0.181 C  
HETATM    5  C   UNL     1     -10.408   9.491  67.303  1.00  0.00    -0.319 C  
HETATM    6  C   UNL     1     -10.255  10.925  66.728  1.00  0.00    -0.231 C  
HETATM    7  C   UNL     1     -11.308  11.956  67.202  1.00  0.00    -0.393 C  
HETATM    8  N   UNL     1     -12.595  10.138  68.360  1.00  0.00     2.457 N  
HETATM    9  C   UNL     1     -12.040  11.580  68.500  1.00  0.00    -0.088 C  
HETATM   10  C   UNL     1     -13.572   9.833  69.512  1.00  0.00     3.026 C  
HETATM   11  C   UNL     1     -13.353   9.816  67.083  1.00  0.00    15.903 C  
ENDROOT
BRANCH   6  12
HETATM   12  O   UNL     1      -8.960  11.477  67.060  1.00  0.00    -0.164 OA 
BRANCH  12  13
HETATM   13  C   UNL     1      -8.903  12.378  68.091  1.00  0.00    -0.191 C  
HETATM   14  C   UNL     1      -7.434  12.876  68.296  1.00  0.00    -0.125 C  
HETATM   15  C   UNL     1      -6.838  12.368  69.604  1.00  0.00     0.149 A  
HETATM   16  O   UNL     1      -6.554  12.375  67.277  1.00  0.00    -0.150 OA 
HETATM   17  C   UNL     1      -7.448  14.398  68.180  1.00  0.00    -0.128 A  
HETATM   18  O   UNL     1      -9.903  12.767  68.681  1.00  0.00    -0.173 OA 
HETATM   19  C   UNL     1      -5.495  12.144  69.884  1.00  0.00    -0.100 A  
HETATM   20  C   UNL     1      -7.625  15.347  69.175  1.00  0.00    -0.198 A  
HETATM   21  H   UNL     1      -5.662  12.676  67.402  1.00  0.00     0.000 HD 
HETATM   22  C   UNL     1      -7.610  16.683  68.680  1.00  0.00    -0.214 A  
HETATM   23  C   UNL     1      -5.268  11.672  71.208  1.00  0.00    -0.061 A  
HETATM   24  C   UNL     1      -6.439  11.557  71.917  1.00  0.00     3.519 A  
HETATM   25  C   UNL     1      -7.430  16.725  67.318  1.00  0.00    -0.171 A  
HETATM   26  S   UNL     1      -7.797  12.009  70.989  1.00  0.00     8.151 SA 
HETATM   27  S   UNL     1      -7.316  15.164  66.637  1.00  0.00     1.101 SA 
ENDBRANCH  12  13
ENDBRANCH   6  12
TORSDOF 2
ENDMDL
MODEL      197
REMARK 921   NORMALIZED FREE ENERGY PREDICTED BY IDOCK:   54.79 KCAL/MOL
REMARK 922        TOTAL FREE ENERGY PREDICTED BY IDOCK:   60.22 KCAL/MOL
REMARK 923 INTER-LIGAND FREE ENERGY PREDICTED BY IDOCK:   58.50 KCAL/MOL
REMARK 924 INTRA-LIGAND FREE ENERGY PREDICTED BY IDOCK:    1.71 KCAL/MOL
REMARK 927      BINDING AFFINITY PREDICTED BY RF-SCORE:    0.00 PKD
ROOT
HETATM    1  C   UNL     1      -9.270  19.120  72.214  1.00  0.00     6.454 C  
HETATM    2  O   UNL     1     -10.237  18.482  71.387  1.00  0.00     2.659 OA 
HETATM    3  C   UNL     1      -9.750  19.732  70.919  1.00  0.00     1.810 C  
HETATM    4  C   UNL     1      -8.534  19.771  70.006  1.00  0.00     1.027 C  
HETATM    5  C   UNL     1      -8.397  18.474  69.189  1.00  0.00     0.025 C  
HETATM    6  C   UNL     1      -8.100  17.197  70.020  1.00  0.00     1.864 C  
HETATM    7  C   UNL     1      -7.532  17.435  71.441  1.00  0.00     7.010 C  
HETATM    8  N   UNL     1      -7.325  19.892  70.967  1.00  0.00     0.832 N  
HETATM    9  C   UNL     1      -7.787  18.840  72.010  1.00  0.00     7.754 C  
HETATM   10  C   UNL     1      -7.294  21.294  71.607  1.00  0.00     4.506 C  
HETATM   11  C   UNL     1      -5.949  19.691  70.353  1.00  0.00    -0.258 C  
ENDROOT
BRANCH   6  12
HETATM   12  O   UNL     1      -9.294  16.399  70.183  1.00  0.00     0.634 OA 
BRANCH  12  13
HETATM   13  C   UNL     1      -9.197  15.263  70.945  1.00  0.00     2.060 C  
HETATM   14  C   UNL     1      -8.070  14.331  70.387  1.00  0.00     1.859 C  
HETATM   15  C   UNL     1      -8.638  13.057  69.773  1.00  0.00     2.328 A  
HETATM   16  O   UNL     1      -7.342  14.956  69.318  1.00  0.00    -0.152 OA 
HETATM   17  C   UNL     1      -7.086  14.077  71.525  1.00  0.00     2.848 A  
HETATM   18  O   UNL     1      -9.864  15.090  71.957  1.00  0.00     2.177 OA 
HETATM   19  C   UNL     1      -8.072  12.285  68.765  1.00  0.00     0.054 A  
HETATM   20  C   UNL     1      -7.087  13.062  72.470  1.00  0.00     7.544 A  
HETATM   21  H   UNL     1      -6.658  14.390  68.979  1.00  0.00     0.000 HD 
HETATM   22  C   UNL     1      -6.017  13.169  73.404  1.00  0.00     1.439 A  
HETATM   23  C   UNL     1      -8.855  11.148  68.419  1.00  0.00    -0.157 A  
HETATM   24  C   UNL     1      -9.997  11.065  69.178  1.00  0.00    -0.121 A  
HETATM   25  C   UNL     1      -5.225  14.265  73.157  1.00  0.00    -0.295 A  
HETATM   26  S   UNL     1     -10.122  12.352  70.291  1.00  0.00     3.895 SA 
HETATM   27  S   UNL     1      -5.791  15.179  71.831  1.00  0.00     0.710 SA 
ENDBRANCH  12  13
ENDBRANCH   6  12
TORSDOF 2
ENDMDL
MODEL      198
REMARK 921   NORMALIZED FREE ENERGY PREDICTED BY IDOCK:   62.29 KCAL/MOL
REMARK 922        TOTAL FREE ENERGY PREDICTED BY IDOCK:   68.59 KCAL/MOL
REMARK 923 INTER-LIGAND FREE ENERGY PREDICTED BY IDOCK:   55.77 KCAL/MOL
REMARK 924 INTRA-LIGAND FREE ENERGY PREDICTED BY IDOCK:   12.83 KCAL/MOL
REMARK 927      BINDING AFFINITY PREDICTED BY RF-SCORE:    0.00 PKD
ROOT
HETATM    1  C   UNL     1     -11.816  14.864  69.833  1.00  0.00    -0.311 C  
HETATM    2  O   UNL     1     -11.294  13.548  69.992  1.00  0.00    -0.121 OA 
HETATM    3  C   UNL     1     -12.674  13.632  69.659  1.00  0.00     0.271 C  
HETATM    4  C   UNL     1     -13.097  13.628  68.198  1.00  0.00     2.738 C  
HETATM    5  C   UNL     1     -12.079  12.883  67.316  1.00  0.00    -0.275 C  
HETATM    6  C   UNL     1     -10.679  13.547  67.215  1.00  0.00    -0.267 C  
HETATM    7  C   UNL     1     -10.615  15.045  67.601  1.00  0.00    -0.267 C  
HETATM    8  N   UNL     1     -13.118  15.122  67.791  1.00  0.00     2.428 N  
HETATM    9  C   UNL     1     -11.785  15.538  68.468  1.00  0.00    -0.337 C  
HETATM   10  C   UNL     1     -14.302  15.840  68.469  1.00  0.00     9.881 C  
HETATM   11  C   UNL     1     -13.255  15.418  66.306  1.00  0.00     2.907 C  
ENDROOT
BRANCH   6  12
HETATM   12  O   UNL     1      -9.723  12.864  68.057  1.00  0.00    -0.211 OA 
BRANCH  12  13
HETATM   13  C   UNL     1     -10.208  11.920  68.925  1.00  0.00    -0.075 C  
HETATM   14  C   UNL     1      -9.423  11.972  70.277  1.00  0.00     4.143 C  
HETATM   15  C   UNL     1      -8.555  10.735  70.480  1.00  0.00     2.295 A  
HETATM   16  O   UNL     1      -8.500  13.072  70.316  1.00  0.00     2.692 OA 
HETATM   17  C   UNL     1     -10.445  12.192  71.389  1.00  0.00     7.684 A  
HETATM   18  O   UNL     1     -11.174  11.216  68.660  1.00  0.00    -0.211 OA 
HETATM   19  C   UNL     1      -7.384  10.643  71.223  1.00  0.00     2.698 A  
HETATM   20  C   UNL     1     -11.138  11.251  72.136  1.00  0.00     6.100 A  
HETATM   21  H   UNL     1      -8.023  13.104  71.137  1.00  0.00     0.000 HD 
HETATM   22  C   UNL     1     -12.041  11.837  73.070  1.00  0.00     6.394 A  
HETATM   23  C   UNL     1      -6.815   9.338  71.217  1.00  0.00    -0.037 A  
HETATM   24  C   UNL     1      -7.569   8.455  70.482  1.00  0.00    -0.074 A  
HETATM   25  C   UNL     1     -12.023  13.210  73.012  1.00  0.00     3.563 A  
HETATM   26  S   UNL     1      -8.945   9.200  69.802  1.00  0.00    -0.175 SA 
HETATM   27  S   UNL     1     -10.953  13.787  71.814  1.00  0.00     4.332 SA 
ENDBRANCH  12  13
ENDBRANCH   6  12
TORSDOF 2
ENDMDL
MODEL      199
REMARK 921   NORMALIZED FREE ENERGY PREDICTED BY IDOCK:   74.60 KCAL/MOL
REMARK 922        TOTAL FREE ENERGY PREDICTED BY IDOCK:   82.34 KCAL/MOL
REMARK 923 INTER-LIGAND FREE ENERGY PREDICTED BY IDOCK:   60.28 KCAL/MOL
REMARK 924 INTRA-LIGAND FREE ENERGY PREDICTED BY IDOCK:   22.06 KCAL/MOL
REMARK 927      BINDING AFFINITY PREDICTED BY RF-SCORE:    0.00 PKD
ROOT
HETATM    1  C   UNL     1      -9.108  13.582  71.877  1.00  0.00    13.457 C  
HETATM    2  O   UNL     1      -9.262  13.555  70.461  1.00  0.00     3.884 OA 
HETATM    3  C   UNL     1     -10.447  13.344  71.218  1.00  0.00     5.596 C  
HETATM    4  C   UNL     1     -11.313  14.532  71.607  1.00  0.00     0.446 C  
HETATM    5  C   UNL     1     -11.173  15.688  70.601  1.00  0.00    -0.382 C  
HETATM    6  C   UNL     1      -9.770  16.352  70.548  1.00  0.00     1.619 C  
HETATM    7  C   UNL     1      -8.863  16.109  71.779  1.00  0.00     7.764 C  
HETATM    8  N   UNL     1     -10.762  14.988  72.980  1.00  0.00     1.585 N  
HETATM    9  C   UNL     1      -9.252  14.894  72.636  1.00  0.00     7.397 C  
HETATM   10  C   UNL     1     -11.123  13.956  74.066  1.00  0.00     4.952 C  
HETATM   11  C   UNL     1     -11.265  16.325  73.502  1.00  0.00     1.627 C  
ENDROOT
BRANCH   6  12
HETATM   12  O   UNL     1      -9.028  15.897  69.394  1.00  0.00    -0.248 OA 
BRANCH  12  13
HETATM   13  C   UNL     1      -8.799  14.550  69.282  1.00  0.00     0.118 C  
HETATM   14  C   UNL     1      -9.571  13.969  68.051  1.00  0.00    -0.217 C  
HETATM   15  C   UNL     1     -10.713  13.053  68.476  1.00  0.00    -0.255 A  
HETATM   16  O   UNL     1     -10.204  15.004  67.281  1.00  0.00    -0.239 OA 
HETATM   17  C   UNL     1      -8.545  13.289  67.149  1.00  0.00    -0.193 A  
HETATM   18  O   UNL     1      -8.025  13.950  70.017  1.00  0.00     0.940 OA 
HETATM   19  C   UNL     1     -11.885  12.790  67.776  1.00  0.00    -0.387 A  
HETATM   20  C   UNL     1      -8.110  11.973  67.158  1.00  0.00    -0.177 A  
HETATM   21  H   UNL     1     -10.673  14.651  66.534  1.00  0.00     0.000 HD 
HETATM   22  C   UNL     1      -7.109  11.709  66.179  1.00  0.00     0.361 A  
HETATM   23  C   UNL     1     -12.750  11.881  68.447  1.00  0.00     1.750 A  
HETATM   24  C   UNL     1     -12.217  11.455  69.640  1.00  0.00    -0.249 A  
HETATM   25  C   UNL     1      -6.796  12.830  65.448  1.00  0.00     6.300 A  
HETATM   26  S   UNL     1     -10.691  12.155  69.946  1.00  0.00     1.019 SA 
HETATM   27  S   UNL     1      -7.677  14.199  65.964  1.00  0.00     3.812 SA 
ENDBRANCH  12  13
ENDBRANCH   6  12
TORSDOF 2
ENDMDL
MODEL      200
REMARK 921   NORMALIZED FREE ENERGY PREDICTED BY IDOCK:   86.73 KCAL/MOL
REMARK 922        TOTAL FREE ENERGY PREDICTED BY IDOCK:   95.89 KCAL/MOL
REMARK 923 INTER-LIGAND FREE ENERGY PREDICTED BY IDOCK:   93.12 KCAL/MOL
REMARK 924 INTRA-LIGAND FREE ENERGY PREDICTED BY IDOCK:    2.77 KCAL/MOL
REMARK 927      BINDING AFFINITY PREDICTED BY RF-SCORE:    0.00 PKD
ROOT
HETATM    1  C   UNL     1      -6.676  13.527  67.977  1.00  0.00    -0.138 C  
HETATM    2  O   UNL     1      -6.140  14.846  67.985  1.00  0.00    -0.129 OA 
HETATM    3  C   UNL     1      -5.414  13.887  67.228  1.00  0.00     0.566 C  
HETATM    4  C   UNL     1      -5.738  13.689  65.755  1.00  0.00     7.939 C  
HETATM    5  C   UNL     1      -6.318  14.968  65.126  1.00  0.00    13.507 C  
HETATM    6  C   UNL     1      -7.703  15.406  65.676  1.00  0.00     3.758 C  
HETATM    7  C   UNL     1      -8.515  14.309  66.407  1.00  0.00     0.396 C  
HETATM    8  N   UNL     1      -6.820  12.581  65.736  1.00  0.00     2.999 N  
HETATM    9  C   UNL     1      -7.683  13.118  66.909  1.00  0.00     0.254 C  
HETATM   10  C   UNL     1      -6.197  11.224  66.116  1.00  0.00    -0.014 C  
HETATM   11  C   UNL     1      -7.531  12.351  64.413  1.00  0.00     6.088 C  
ENDROOT
BRANCH   6  12
HETATM   12  O   UNL     1      -7.564  16.504  66.606  1.00  0.00    -0.230 OA 
BRANCH  12  13
HETATM   13  C   UNL     1      -8.038  17.728  66.213  1.00  0.00    -0.234 C  
HETATM   14  C   UNL     1      -8.177  17.783  64.656  1.00  0.00     5.856 C  
HETATM   15  C   UNL     1      -7.161  18.728  64.026  1.00  0.00     4.547 A  
HETATM   16  O   UNL     1      -7.909  16.507  64.052  1.00  0.00     9.070 OA 
HETATM   17  C   UNL     1      -9.626  18.142  64.340  1.00  0.00     7.033 A  
HETATM   18  O   UNL     1      -8.369  18.594  67.014  1.00  0.00    -0.257 OA 
HETATM   19  C   UNL     1      -6.629  18.657  62.744  1.00  0.00     5.871 A  
HETATM   20  C   UNL     1     -10.197  19.394  64.166  1.00  0.00     7.111 A  
HETATM   21  H   UNL     1      -7.993  16.539  63.106  1.00  0.00     0.000 HD 
HETATM   22  C   UNL     1     -11.598  19.337  63.914  1.00  0.00     8.762 A  
HETATM   23  C   UNL     1      -5.704  19.701  62.459  1.00  0.00    -0.212 A  
HETATM   24  C   UNL     1      -5.558  20.558  63.524  1.00  0.00    -0.241 A  
HETATM   25  C   UNL     1     -12.069  18.046  63.907  1.00  0.00     8.908 A  
HETATM   26  S   UNL     1      -6.523  20.098  64.853  1.00  0.00    -0.263 SA 
HETATM   27  S   UNL     1     -10.836  16.913  64.239  1.00  0.00     2.173 SA 
ENDBRANCH  12  13
ENDBRANCH   6  12
TORSDOF 2
ENDMDL
MODEL      201
REMARK 921   NORMALIZED FREE ENERGY PREDICTED BY IDOCK:   89.23 KCAL/MOL
REMARK 922        TOTAL FREE ENERGY PREDICTED BY IDOCK:   98.68 KCAL/MOL
REMARK 923 INTER-LIGAND FREE ENERGY PREDICTED BY IDOCK:   75.68 KCAL/MOL
REMARK 924 INTRA-LIGAND FREE ENERGY PREDICTED BY IDOCK:   23.00 KCAL/MOL
REMARK 927      BINDING AFFINITY PREDICTED BY RF-SCORE:    0.00 PKD
ROOT
HETATM    1  C   UNL     1      -9.108  13.582  71.877  1.00  0.00    13.457 C  
HETATM    2  O   UNL     1      -9.262  13.555  70.461  1.00  0.00     3.884 OA 
HETATM    3  C   UNL     1     -10.447  13.344  71.218  1.00  0.00     5.596 C  
HETATM    4  C   UNL     1     -11.313  14.532  71.607  1.00  0.00     0.446 C  
HETATM    5  C   UNL     1     -11.173  15.688  70.601  1.00  0.00    -0.382 C  
HETATM    6  C   UNL     1      -9.770  16.352  70.548  1.00  0.00     1.619 C  
HETATM    7  C   UNL     1      -8.863  16.109  71.779  1.00  0.00     7.764 C  
HETATM    8  N   UNL     1     -10.762  14.988  72.980  1.00  0.00     1.585 N  
HETATM    9  C   UNL     1      -9.252  14.894  72.636  1.00  0.00     7.397 C  
HETATM   10  C   UNL     1     -11.123  13.956  74.066  1.00  0.00     4.952 C  
HETATM   11  C   UNL     1     -11.265  16.325  73.502  1.00  0.00     1.627 C  
ENDROOT
BRANCH   6  12
HETATM   12  O   UNL     1      -9.028  15.897  69.394  1.00  0.00    -0.248 OA 
BRANCH  12  13
HETATM   13  C   UNL     1      -8.799  14.550  69.282  1.00  0.00     0.118 C  
HETATM   14  C   UNL     1      -7.267  14.249  69.386  1.00  0.00    -0.051 C  
HETATM   15  C   UNL     1      -6.688  13.773  68.059  1.00  0.00    -0.139 A  
HETATM   16  O   UNL     1      -6.513  15.429  69.708  1.00  0.00    -0.155 OA 
HETATM   17  C   UNL     1      -7.075  13.257  70.530  1.00  0.00     1.760 A  
HETATM   18  O   UNL     1      -9.707  13.733  69.195  1.00  0.00     0.065 OA 
HETATM   19  C   UNL     1      -5.378  13.911  67.616  1.00  0.00     0.057 A  
HETATM   20  C   UNL     1      -7.072  11.871  70.492  1.00  0.00     2.043 A  
HETATM   21  H   UNL     1      -5.583  15.247  69.772  1.00  0.00     0.000 HD 
HETATM   22  C   UNL     1      -6.894  11.279  71.775  1.00  0.00     4.365 A  
HETATM   23  C   UNL     1      -5.158  13.350  66.327  1.00  0.00     3.477 A  
HETATM   24  C   UNL     1      -6.299  12.781  65.816  1.00  0.00     4.852 A  
HETATM   25  C   UNL     1      -6.772  12.223  72.766  1.00  0.00     7.064 A  
HETATM   26  S   UNL     1      -7.623  12.933  66.882  1.00  0.00     0.376 SA 
HETATM   27  S   UNL     1      -6.909  13.813  72.157  1.00  0.00     4.153 SA 
ENDBRANCH  12  13
ENDBRANCH   6  12
TORSDOF 2
ENDMDL
