MODEL        1
REMARK 921   NORMALIZED FREE ENERGY PREDICTED BY IDOCK:   -6.65 KCAL/MOL
REMARK 922        TOTAL FREE ENERGY PREDICTED BY IDOCK:   -7.77 KCAL/MOL
REMARK 923 INTER-LIGAND FREE ENERGY PREDICTED BY IDOCK:   -7.42 KCAL/MOL
REMARK 924 INTRA-LIGAND FREE ENERGY PREDICTED BY IDOCK:   -0.34 KCAL/MOL
REMARK 927      BINDING AFFINITY PREDICTED BY RF-SCORE:    0.00 PKD
ROOT
HETATM    1 CL   UNL     1     -10.424  16.146  66.552  1.00  0.00    -0.303 Cl 
HETATM    2  C   UNL     1     -11.184  14.922  65.609  1.00  0.00    -0.347 C  
HETATM    3  C   UNL     1     -11.298  13.634  65.983  1.00  0.00    -0.312 C  
HETATM    4  C   UNL     1     -11.735  15.334  64.283  1.00  0.00    -0.215 C  
HETATM    5  N   UNL     1     -11.880  12.730  65.113  1.00  0.00    -0.367 N  
HETATM    6  C   UNL     1     -12.327  13.020  63.859  1.00  0.00    -0.375 C  
HETATM    7  O   UNL     1     -11.775  16.503  63.911  1.00  0.00    -1.148 OA 
HETATM    8  H   UNL     1     -11.983  11.769  65.435  1.00  0.00     0.000 HD 
HETATM    9  O   UNL     1     -12.806  12.178  63.108  1.00  0.00    -0.662 OA 
HETATM   10  N   UNL     1     -12.201  14.326  63.484  1.00  0.00    -1.080 N  
HETATM   11  H   UNL     1     -12.476  14.569  62.532  1.00  0.00     0.000 HD 
ENDROOT
BRANCH   3  12
HETATM   12  C   UNL     1     -10.759  13.049  67.274  1.00  0.00    -0.250 C  
BRANCH  12  13
HETATM   13  N   UNL     1     -11.810  12.852  68.273  1.00  0.00    -0.342 NA 
HETATM   14  C   UNL     1     -11.829  13.358  70.560  1.00  0.00    -0.236 C  
HETATM   15  C   UNL     1     -12.267  11.903  70.412  1.00  0.00    -0.399 C  
HETATM   16  C   UNL     1     -12.099  13.962  69.183  1.00  0.00    -0.338 C  
HETATM   17  C   UNL     1     -11.937  11.662  68.957  1.00  0.00    -0.305 C  
HETATM   18  N   UNL     1     -11.796  10.481  68.461  1.00  0.00    -0.745 NA 
HETATM   19  H2  UNL     1     -11.569  10.421  67.469  1.00  0.00     0.000 HD 
HETATM   20  H1  UNL     1     -11.891   9.600  68.968  1.00  0.00     0.000 HD 
ENDBRANCH  12  13
ENDBRANCH   3  12
TORSDOF 2
ENDMDL
MODEL        2
REMARK 921   NORMALIZED FREE ENERGY PREDICTED BY IDOCK:   -6.27 KCAL/MOL
REMARK 922        TOTAL FREE ENERGY PREDICTED BY IDOCK:   -7.35 KCAL/MOL
REMARK 923 INTER-LIGAND FREE ENERGY PREDICTED BY IDOCK:   -7.02 KCAL/MOL
REMARK 924 INTRA-LIGAND FREE ENERGY PREDICTED BY IDOCK:   -0.33 KCAL/MOL
REMARK 927      BINDING AFFINITY PREDICTED BY RF-SCORE:    0.00 PKD
ROOT
HETATM    1 CL   UNL     1     -11.761  11.534  66.612  1.00  0.00    -0.107 Cl 
HETATM    2  C   UNL     1     -11.610  13.059  65.828  1.00  0.00    -0.356 C  
HETATM    3  C   UNL     1     -11.051  14.150  66.386  1.00  0.00    -0.320 C  
HETATM    4  C   UNL     1     -12.154  13.164  64.440  1.00  0.00    -0.410 C  
HETATM    5  N   UNL     1     -11.039  15.336  65.676  1.00  0.00    -0.329 N  
HETATM    6  C   UNL     1     -11.590  15.524  64.445  1.00  0.00    -0.258 C  
HETATM    7  O   UNL     1     -12.578  12.197  63.814  1.00  0.00    -0.590 OA 
HETATM    8  H   UNL     1     -10.581  16.137  66.109  1.00  0.00     0.000 HD 
HETATM    9  O   UNL     1     -11.586  16.605  63.866  1.00  0.00    -1.204 OA 
HETATM   10  N   UNL     1     -12.162  14.416  63.888  1.00  0.00    -0.980 N  
HETATM   11  H   UNL     1     -12.631  14.531  62.990  1.00  0.00     0.000 HD 
ENDROOT
BRANCH   3  12
HETATM   12  C   UNL     1     -10.491  14.220  67.793  1.00  0.00    -0.245 C  
BRANCH  12  13
HETATM   13  N   UNL     1     -11.530  14.488  68.788  1.00  0.00    -0.277 NA 
HETATM   14  C   UNL     1     -11.468  15.829  70.707  1.00  0.00    -0.423 C  
HETATM   15  C   UNL     1     -11.996  14.459  71.126  1.00  0.00    -0.383 C  
HETATM   16  C   UNL     1     -11.731  15.877  69.203  1.00  0.00    -0.363 C  
HETATM   17  C   UNL     1     -11.714  13.660  69.875  1.00  0.00    -0.276 C  
HETATM   18  N   UNL     1     -11.655  12.373  69.870  1.00  0.00    -0.499 NA 
HETATM   19  H2  UNL     1     -11.454  11.924  68.976  1.00  0.00     0.000 HD 
HETATM   20  H1  UNL     1     -11.792  11.760  70.674  1.00  0.00     0.000 HD 
ENDBRANCH  12  13
ENDBRANCH   3  12
TORSDOF 2
ENDMDL
MODEL        3
REMARK 921   NORMALIZED FREE ENERGY PREDICTED BY IDOCK:   -6.27 KCAL/MOL
REMARK 922        TOTAL FREE ENERGY PREDICTED BY IDOCK:   -7.34 KCAL/MOL
REMARK 923 INTER-LIGAND FREE ENERGY PREDICTED BY IDOCK:   -7.01 KCAL/MOL
REMARK 924 INTRA-LIGAND FREE ENERGY PREDICTED BY IDOCK:   -0.33 KCAL/MOL
REMARK 927      BINDING AFFINITY PREDICTED BY RF-SCORE:    0.00 PKD
ROOT
HETATM    1 CL   UNL     1      -9.681  16.432  66.043  1.00  0.00    -0.349 Cl 
HETATM    2  C   UNL     1     -10.710  15.162  65.504  1.00  0.00    -0.365 C  
HETATM    3  C   UNL     1     -10.756  13.934  66.054  1.00  0.00    -0.287 C  
HETATM    4  C   UNL     1     -11.594  15.456  64.336  1.00  0.00    -0.264 C  
HETATM    5  N   UNL     1     -11.583  12.977  65.495  1.00  0.00    -0.332 N  
HETATM    6  C   UNL     1     -12.350  13.151  64.384  1.00  0.00    -0.360 C  
HETATM    7  O   UNL     1     -11.700  16.576  63.844  1.00  0.00    -1.148 OA 
HETATM    8  H   UNL     1     -11.622  12.066  65.952  1.00  0.00     0.000 HD 
HETATM    9  O   UNL     1     -13.045  12.262  63.903  1.00  0.00    -0.772 OA 
HETATM   10  N   UNL     1     -12.294  14.396  63.827  1.00  0.00    -1.079 N  
HETATM   11  H   UNL     1     -12.814  14.547  62.963  1.00  0.00     0.000 HD 
ENDROOT
BRANCH   3  12
HETATM   12  C   UNL     1      -9.898  13.464  67.213  1.00  0.00    -0.233 C  
BRANCH  12  13
HETATM   13  N   UNL     1     -10.441  13.882  68.506  1.00  0.00    -0.246 NA 
HETATM   14  C   UNL     1     -12.035  15.521  69.012  1.00  0.00    -0.323 C  
HETATM   15  C   UNL     1     -10.822  15.777  69.903  1.00  0.00    -0.330 C  
HETATM   16  C   UNL     1     -11.891  14.055  68.610  1.00  0.00    -0.361 C  
HETATM   17  C   UNL     1      -9.815  14.843  69.272  1.00  0.00    -0.159 C  
HETATM   18  N   UNL     1      -8.545  14.966  69.448  1.00  0.00    -0.404 NA 
HETATM   19  H2  UNL     1      -7.945  14.289  68.975  1.00  0.00     0.000 HD 
HETATM   20  H1  UNL     1      -8.082  15.677  70.014  1.00  0.00     0.000 HD 
ENDBRANCH  12  13
ENDBRANCH   3  12
TORSDOF 2
ENDMDL
MODEL        4
REMARK 921   NORMALIZED FREE ENERGY PREDICTED BY IDOCK:   -6.23 KCAL/MOL
REMARK 922        TOTAL FREE ENERGY PREDICTED BY IDOCK:   -7.30 KCAL/MOL
REMARK 923 INTER-LIGAND FREE ENERGY PREDICTED BY IDOCK:   -7.13 KCAL/MOL
REMARK 924 INTRA-LIGAND FREE ENERGY PREDICTED BY IDOCK:   -0.17 KCAL/MOL
REMARK 927      BINDING AFFINITY PREDICTED BY RF-SCORE:    0.00 PKD
ROOT
HETATM    1 CL   UNL     1     -10.805  16.191  66.727  1.00  0.00    -0.228 Cl 
HETATM    2  C   UNL     1     -11.513  14.935  65.786  1.00  0.00    -0.281 C  
HETATM    3  C   UNL     1     -11.829  13.715  66.259  1.00  0.00    -0.392 C  
HETATM    4  C   UNL     1     -11.773  15.234  64.345  1.00  0.00    -0.285 C  
HETATM    5  N   UNL     1     -12.341  12.769  65.389  1.00  0.00    -0.483 N  
HETATM    6  C   UNL     1     -12.524  12.945  64.052  1.00  0.00    -0.326 C  
HETATM    7  O   UNL     1     -11.621  16.350  63.856  1.00  0.00    -1.100 OA 
HETATM    8  H   UNL     1     -12.602  11.865  65.782  1.00  0.00     0.000 HD 
HETATM    9  O   UNL     1     -12.951  12.065  63.312  1.00  0.00    -0.736 OA 
HETATM   10  N   UNL     1     -12.195  14.182  63.577  1.00  0.00    -1.090 N  
HETATM   11  H   UNL     1     -12.270  14.334  62.572  1.00  0.00     0.000 HD 
ENDROOT
BRANCH   3  12
HETATM   12  C   UNL     1     -11.593  13.242  67.680  1.00  0.00    -0.346 C  
BRANCH  12  13
HETATM   13  N   UNL     1     -10.529  12.240  67.758  1.00  0.00    -0.206 NA 
HETATM   14  C   UNL     1      -9.232  11.284  66.059  1.00  0.00    -0.224 C  
HETATM   15  C   UNL     1      -9.807  10.140  66.890  1.00  0.00    -0.244 C  
HETATM   16  C   UNL     1      -9.304  12.489  66.996  1.00  0.00    -0.210 C  
HETATM   17  C   UNL     1     -10.810  10.891  67.736  1.00  0.00    -0.259 C  
HETATM   18  N   UNL     1     -11.790  10.308  68.336  1.00  0.00    -0.717 NA 
HETATM   19  H2  UNL     1     -12.417  10.901  68.879  1.00  0.00     0.000 HD 
HETATM   20  H1  UNL     1     -11.997   9.309  68.319  1.00  0.00     0.000 HD 
ENDBRANCH  12  13
ENDBRANCH   3  12
TORSDOF 2
ENDMDL
MODEL        5
REMARK 921   NORMALIZED FREE ENERGY PREDICTED BY IDOCK:   -6.13 KCAL/MOL
REMARK 922        TOTAL FREE ENERGY PREDICTED BY IDOCK:   -7.19 KCAL/MOL
REMARK 923 INTER-LIGAND FREE ENERGY PREDICTED BY IDOCK:   -6.80 KCAL/MOL
REMARK 924 INTRA-LIGAND FREE ENERGY PREDICTED BY IDOCK:   -0.39 KCAL/MOL
REMARK 927      BINDING AFFINITY PREDICTED BY RF-SCORE:    0.00 PKD
ROOT
HETATM    1 CL   UNL     1     -10.966  11.230  65.518  1.00  0.00    -0.251 Cl 
HETATM    2  C   UNL     1     -11.101  12.874  65.026  1.00  0.00    -0.292 C  
HETATM    3  C   UNL     1     -10.366  13.883  65.531  1.00  0.00    -0.333 C  
HETATM    4  C   UNL     1     -12.119  13.185  63.977  1.00  0.00    -0.446 C  
HETATM    5  N   UNL     1     -10.606  15.173  65.095  1.00  0.00    -0.401 N  
HETATM    6  C   UNL     1     -11.571  15.538  64.206  1.00  0.00    -0.194 C  
HETATM    7  O   UNL     1     -12.753  12.318  63.383  1.00  0.00    -0.727 OA 
HETATM    8  H   UNL     1     -10.012  15.912  65.470  1.00  0.00     0.000 HD 
HETATM    9  O   UNL     1     -11.770  16.701  63.874  1.00  0.00    -1.153 OA 
HETATM   10  N   UNL     1     -12.318  14.512  63.704  1.00  0.00    -1.104 N  
HETATM   11  H   UNL     1     -13.084  14.753  63.076  1.00  0.00     0.000 HD 
ENDROOT
BRANCH   3  12
HETATM   12  C   UNL     1      -9.325  13.741  66.624  1.00  0.00    -0.264 C  
BRANCH  12  13
HETATM   13  N   UNL     1      -9.872  14.036  67.949  1.00  0.00    -0.227 NA 
HETATM   14  C   UNL     1     -12.041  13.744  68.781  1.00  0.00    -0.344 C  
HETATM   15  C   UNL     1     -11.627  15.182  69.085  1.00  0.00    -0.343 C  
HETATM   16  C   UNL     1     -10.714  13.016  68.578  1.00  0.00    -0.255 C  
HETATM   17  C   UNL     1     -10.364  15.285  68.261  1.00  0.00    -0.234 C  
HETATM   18  N   UNL     1      -9.852  16.414  67.911  1.00  0.00    -0.235 NA 
HETATM   19  H2  UNL     1      -9.000  16.380  67.350  1.00  0.00     0.000 HD 
HETATM   20  H1  UNL     1     -10.216  17.338  68.142  1.00  0.00     0.000 HD 
ENDBRANCH  12  13
ENDBRANCH   3  12
TORSDOF 2
ENDMDL
MODEL        6
REMARK 921   NORMALIZED FREE ENERGY PREDICTED BY IDOCK:   -5.99 KCAL/MOL
REMARK 922        TOTAL FREE ENERGY PREDICTED BY IDOCK:   -7.04 KCAL/MOL
REMARK 923 INTER-LIGAND FREE ENERGY PREDICTED BY IDOCK:   -6.70 KCAL/MOL
REMARK 924 INTRA-LIGAND FREE ENERGY PREDICTED BY IDOCK:   -0.34 KCAL/MOL
REMARK 927      BINDING AFFINITY PREDICTED BY RF-SCORE:    0.00 PKD
ROOT
HETATM    1 CL   UNL     1     -10.286  14.134  68.731  1.00  0.00    -0.238 Cl 
HETATM    2  C   UNL     1     -10.890  14.238  67.122  1.00  0.00    -0.296 C  
HETATM    3  C   UNL     1     -10.584  15.222  66.256  1.00  0.00    -0.309 C  
HETATM    4  C   UNL     1     -11.827  13.161  66.680  1.00  0.00    -0.391 C  
HETATM    5  N   UNL     1     -11.179  15.228  65.008  1.00  0.00    -0.401 N  
HETATM    6  C   UNL     1     -12.102  14.328  64.570  1.00  0.00    -0.480 C  
HETATM    7  O   UNL     1     -12.074  12.170  67.360  1.00  0.00    -0.553 OA 
HETATM    8  H   UNL     1     -10.903  15.967  64.361  1.00  0.00     0.000 HD 
HETATM    9  O   UNL     1     -12.629  14.392  63.465  1.00  0.00    -0.784 OA 
HETATM   10  N   UNL     1     -12.414  13.337  65.455  1.00  0.00    -0.476 N  
HETATM   11  H   UNL     1     -13.140  12.675  65.183  1.00  0.00     0.000 HD 
ENDROOT
BRANCH   3  12
HETATM   12  C   UNL     1      -9.685  16.405  66.562  1.00  0.00    -0.269 C  
BRANCH  12  13
HETATM   13  N   UNL     1     -10.448  17.604  66.906  1.00  0.00    -0.318 NA 
HETATM   14  C   UNL     1      -9.881  19.866  66.683  1.00  0.00    -0.555 C  
HETATM   15  C   UNL     1     -10.352  19.654  68.120  1.00  0.00    -0.561 C  
HETATM   16  C   UNL     1     -10.489  18.689  65.923  1.00  0.00    -0.356 C  
HETATM   17  C   UNL     1     -10.405  18.144  68.173  1.00  0.00    -0.379 C  
HETATM   18  N   UNL     1     -10.402  17.486  69.281  1.00  0.00    -0.332 NA 
HETATM   19  H2  UNL     1     -10.435  16.469  69.213  1.00  0.00     0.000 HD 
HETATM   20  H1  UNL     1     -10.370  17.886  70.219  1.00  0.00     0.000 HD 
ENDBRANCH  12  13
ENDBRANCH   3  12
TORSDOF 2
ENDMDL
MODEL        7
REMARK 921   NORMALIZED FREE ENERGY PREDICTED BY IDOCK:   -5.83 KCAL/MOL
REMARK 922        TOTAL FREE ENERGY PREDICTED BY IDOCK:   -6.86 KCAL/MOL
REMARK 923 INTER-LIGAND FREE ENERGY PREDICTED BY IDOCK:   -6.78 KCAL/MOL
REMARK 924 INTRA-LIGAND FREE ENERGY PREDICTED BY IDOCK:   -0.08 KCAL/MOL
REMARK 927      BINDING AFFINITY PREDICTED BY RF-SCORE:    0.00 PKD
ROOT
HETATM    1 CL   UNL     1     -10.676  15.891  66.482  1.00  0.00    -0.293 Cl 
HETATM    2  C   UNL     1     -11.452  14.660  65.562  1.00  0.00    -0.341 C  
HETATM    3  C   UNL     1     -11.579  13.379  65.958  1.00  0.00    -0.344 C  
HETATM    4  C   UNL     1     -12.004  15.056  64.231  1.00  0.00    -0.295 C  
HETATM    5  N   UNL     1     -12.174  12.468  65.104  1.00  0.00    -0.465 N  
HETATM    6  C   UNL     1     -12.622  12.742  63.848  1.00  0.00    -0.289 C  
HETATM    7  O   UNL     1     -12.033  16.220  63.840  1.00  0.00    -1.003 OA 
HETATM    8  H   UNL     1     -12.285  11.513  65.443  1.00  0.00     0.000 HD 
HETATM    9  O   UNL     1     -13.113  11.893  63.112  1.00  0.00    -0.605 OA 
HETATM   10  N   UNL     1     -12.484  14.040  63.450  1.00  0.00    -1.123 N  
HETATM   11  H   UNL     1     -12.760  14.271  62.496  1.00  0.00     0.000 HD 
ENDROOT
BRANCH   3  12
HETATM   12  C   UNL     1     -11.041  12.810  67.256  1.00  0.00    -0.276 C  
BRANCH  12  13
HETATM   13  N   UNL     1     -11.444  11.417  67.457  1.00  0.00    -0.477 NA 
HETATM   14  C   UNL     1     -10.917   9.931  69.189  1.00  0.00    -0.233 C  
HETATM   15  C   UNL     1     -10.611   9.222  67.872  1.00  0.00    -0.288 C  
HETATM   16  C   UNL     1     -11.902  11.029  68.792  1.00  0.00    -0.282 C  
HETATM   17  C   UNL     1     -10.731  10.376  66.903  1.00  0.00    -0.207 C  
HETATM   18  N   UNL     1     -10.214  10.351  65.723  1.00  0.00    -0.255 NA 
HETATM   19  H2  UNL     1     -10.345  11.181  65.144  1.00  0.00     0.000 HD 
HETATM   20  H1  UNL     1      -9.687   9.580  65.313  1.00  0.00     0.000 HD 
ENDBRANCH  12  13
ENDBRANCH   3  12
TORSDOF 2
ENDMDL
MODEL        8
REMARK 921   NORMALIZED FREE ENERGY PREDICTED BY IDOCK:   -5.82 KCAL/MOL
REMARK 922        TOTAL FREE ENERGY PREDICTED BY IDOCK:   -6.85 KCAL/MOL
REMARK 923 INTER-LIGAND FREE ENERGY PREDICTED BY IDOCK:   -6.57 KCAL/MOL
REMARK 924 INTRA-LIGAND FREE ENERGY PREDICTED BY IDOCK:   -0.28 KCAL/MOL
REMARK 927      BINDING AFFINITY PREDICTED BY RF-SCORE:    0.00 PKD
ROOT
HETATM    1 CL   UNL     1     -10.691  15.982  66.666  1.00  0.00    -0.289 Cl 
HETATM    2  C   UNL     1     -11.475  14.763  65.738  1.00  0.00    -0.322 C  
HETATM    3  C   UNL     1     -11.761  13.527  66.190  1.00  0.00    -0.365 C  
HETATM    4  C   UNL     1     -11.843  15.113  64.333  1.00  0.00    -0.305 C  
HETATM    5  N   UNL     1     -12.343  12.614  65.329  1.00  0.00    -0.488 N  
HETATM    6  C   UNL     1     -12.627  12.839  64.017  1.00  0.00    -0.291 C  
HETATM    7  O   UNL     1     -11.723  16.246  63.874  1.00  0.00    -0.986 OA 
HETATM    8  H   UNL     1     -12.578  11.697  65.708  1.00  0.00     0.000 HD 
HETATM    9  O   UNL     1     -13.114  11.987  63.281  1.00  0.00    -0.701 OA 
HETATM   10  N   UNL     1     -12.329  14.091  63.563  1.00  0.00    -1.118 N  
HETATM   11  H   UNL     1     -12.479  14.280  62.572  1.00  0.00     0.000 HD 
ENDROOT
BRANCH   3  12
HETATM   12  C   UNL     1     -11.419  13.003  67.571  1.00  0.00    -0.328 C  
BRANCH  12  13
HETATM   13  N   UNL     1     -10.495  11.869  67.518  1.00  0.00    -0.205 NA 
HETATM   14  C   UNL     1      -9.578  10.591  69.253  1.00  0.00    -0.199 C  
HETATM   15  C   UNL     1      -8.423  11.045  68.364  1.00  0.00    -0.144 C  
HETATM   16  C   UNL     1     -10.803  10.702  68.347  1.00  0.00    -0.237 C  
HETATM   17  C   UNL     1      -9.130  12.057  67.490  1.00  0.00    -0.177 C  
HETATM   18  N   UNL     1      -8.500  12.964  66.827  1.00  0.00    -0.411 NA 
HETATM   19  H2  UNL     1      -9.065  13.604  66.269  1.00  0.00     0.000 HD 
HETATM   20  H1  UNL     1      -7.489  13.102  66.806  1.00  0.00     0.000 HD 
ENDBRANCH  12  13
ENDBRANCH   3  12
TORSDOF 2
ENDMDL
MODEL        9
REMARK 921   NORMALIZED FREE ENERGY PREDICTED BY IDOCK:   -5.79 KCAL/MOL
REMARK 922        TOTAL FREE ENERGY PREDICTED BY IDOCK:   -6.81 KCAL/MOL
REMARK 923 INTER-LIGAND FREE ENERGY PREDICTED BY IDOCK:   -6.49 KCAL/MOL
REMARK 924 INTRA-LIGAND FREE ENERGY PREDICTED BY IDOCK:   -0.32 KCAL/MOL
REMARK 927      BINDING AFFINITY PREDICTED BY RF-SCORE:    0.00 PKD
ROOT
HETATM    1 CL   UNL     1      -8.986  16.739  68.530  1.00  0.00    -0.236 Cl 
HETATM    2  C   UNL     1     -10.254  15.851  67.777  1.00  0.00    -0.260 C  
HETATM    3  C   UNL     1     -11.243  15.222  68.441  1.00  0.00    -0.309 C  
HETATM    4  C   UNL     1     -10.233  15.772  66.285  1.00  0.00    -0.303 C  
HETATM    5  N   UNL     1     -12.174  14.492  67.726  1.00  0.00    -0.623 N  
HETATM    6  C   UNL     1     -12.166  14.309  66.377  1.00  0.00    -0.401 C  
HETATM    7  O   UNL     1      -9.438  16.404  65.594  1.00  0.00    -0.486 OA 
HETATM    8  H   UNL     1     -12.929  14.054  68.253  1.00  0.00     0.000 HD 
HETATM    9  O   UNL     1     -12.995  13.624  65.789  1.00  0.00    -0.435 OA 
HETATM   10  N   UNL     1     -11.158  14.943  65.710  1.00  0.00    -0.337 N  
HETATM   11  H   UNL     1     -11.088  14.786  64.705  1.00  0.00     0.000 HD 
ENDROOT
BRANCH   3  12
HETATM   12  C   UNL     1     -11.385  15.172  69.950  1.00  0.00    -0.284 C  
BRANCH  12  13
HETATM   13  N   UNL     1     -12.586  14.448  70.367  1.00  0.00    -0.348 NA 
HETATM   14  C   UNL     1     -13.627  14.338  72.462  1.00  0.00    -0.620 C  
HETATM   15  C   UNL     1     -13.429  12.904  71.977  1.00  0.00    -0.568 C  
HETATM   16  C   UNL     1     -13.565  15.169  71.182  1.00  0.00    -0.456 C  
HETATM   17  C   UNL     1     -12.523  13.137  70.790  1.00  0.00    -0.308 C  
HETATM   18  N   UNL     1     -11.798  12.205  70.275  1.00  0.00    -0.515 NA 
HETATM   19  H2  UNL     1     -11.215  12.462  69.478  1.00  0.00     0.000 HD 
HETATM   20  H1  UNL     1     -11.752  11.235  70.588  1.00  0.00     0.000 HD 
ENDBRANCH  12  13
ENDBRANCH   3  12
TORSDOF 2
ENDMDL
MODEL       10
REMARK 921   NORMALIZED FREE ENERGY PREDICTED BY IDOCK:   -5.79 KCAL/MOL
REMARK 922        TOTAL FREE ENERGY PREDICTED BY IDOCK:   -6.81 KCAL/MOL
REMARK 923 INTER-LIGAND FREE ENERGY PREDICTED BY IDOCK:   -6.37 KCAL/MOL
REMARK 924 INTRA-LIGAND FREE ENERGY PREDICTED BY IDOCK:   -0.43 KCAL/MOL
REMARK 927      BINDING AFFINITY PREDICTED BY RF-SCORE:    0.00 PKD
ROOT
HETATM    1 CL   UNL     1     -10.135  13.902  68.546  1.00  0.00    -0.236 Cl 
HETATM    2  C   UNL     1     -10.323  15.345  67.626  1.00  0.00    -0.262 C  
HETATM    3  C   UNL     1     -10.205  15.414  66.286  1.00  0.00    -0.290 C  
HETATM    4  C   UNL     1     -10.622  16.597  68.384  1.00  0.00    -0.343 C  
HETATM    5  N   UNL     1     -10.321  16.644  65.664  1.00  0.00    -0.328 N  
HETATM    6  C   UNL     1     -10.509  17.833  66.299  1.00  0.00    -0.307 C  
HETATM    7  O   UNL     1     -10.855  16.609  69.589  1.00  0.00    -0.341 OA 
HETATM    8  H   UNL     1     -10.261  16.661  64.646  1.00  0.00     0.000 HD 
HETATM    9  O   UNL     1     -10.573  18.905  65.707  1.00  0.00    -0.532 OA 
HETATM   10  N   UNL     1     -10.620  17.757  67.657  1.00  0.00    -0.391 N  
HETATM   11  H   UNL     1     -10.709  18.634  68.171  1.00  0.00     0.000 HD 
ENDROOT
BRANCH   3  12
HETATM   12  C   UNL     1      -9.867  14.247  65.379  1.00  0.00    -0.221 C  
BRANCH  12  13
HETATM   13  N   UNL     1     -11.032  13.406  65.102  1.00  0.00    -0.294 NA 
HETATM   14  C   UNL     1     -11.222  11.484  63.778  1.00  0.00    -0.456 C  
HETATM   15  C   UNL     1     -12.327  12.445  63.346  1.00  0.00    -0.603 C  
HETATM   16  C   UNL     1     -10.858  11.955  65.184  1.00  0.00    -0.300 C  
HETATM   17  C   UNL     1     -11.901  13.700  64.073  1.00  0.00    -0.400 C  
HETATM   18  N   UNL     1     -12.315  14.873  63.738  1.00  0.00    -1.071 NA 
HETATM   19  H2  UNL     1     -11.967  15.659  64.287  1.00  0.00     0.000 HD 
HETATM   20  H1  UNL     1     -12.959  15.090  62.977  1.00  0.00     0.000 HD 
ENDBRANCH  12  13
ENDBRANCH   3  12
TORSDOF 2
ENDMDL
MODEL       11
REMARK 921   NORMALIZED FREE ENERGY PREDICTED BY IDOCK:   -5.74 KCAL/MOL
REMARK 922        TOTAL FREE ENERGY PREDICTED BY IDOCK:   -6.75 KCAL/MOL
REMARK 923 INTER-LIGAND FREE ENERGY PREDICTED BY IDOCK:   -6.56 KCAL/MOL
REMARK 924 INTRA-LIGAND FREE ENERGY PREDICTED BY IDOCK:   -0.19 KCAL/MOL
REMARK 927      BINDING AFFINITY PREDICTED BY RF-SCORE:    0.00 PKD
ROOT
HETATM    1 CL   UNL     1     -12.731  15.361  70.409  1.00  0.00    -0.434 Cl 
HETATM    2  C   UNL     1     -12.660  13.689  70.809  1.00  0.00    -0.325 C  
HETATM    3  C   UNL     1     -11.957  12.770  70.120  1.00  0.00    -0.296 C  
HETATM    4  C   UNL     1     -13.450  13.242  71.996  1.00  0.00    -0.507 C  
HETATM    5  N   UNL     1     -12.024  11.444  70.506  1.00  0.00    -0.376 N  
HETATM    6  C   UNL     1     -12.788  10.957  71.523  1.00  0.00    -0.454 C  
HETATM    7  O   UNL     1     -14.028  14.024  72.746  1.00  0.00    -0.669 OA 
HETATM    8  H   UNL     1     -11.456  10.775  69.986  1.00  0.00     0.000 HD 
HETATM    9  O   UNL     1     -12.842   9.766  71.809  1.00  0.00    -0.370 OA 
HETATM   10  N   UNL     1     -13.503  11.892  72.213  1.00  0.00    -0.548 N  
HETATM   11  H   UNL     1     -14.127  11.558  72.947  1.00  0.00     0.000 HD 
ENDROOT
BRANCH   3  12
HETATM   12  C   UNL     1     -11.139  13.051  68.874  1.00  0.00    -0.262 C  
BRANCH  12  13
HETATM   13  N   UNL     1     -11.685  12.382  67.693  1.00  0.00    -0.386 NA 
HETATM   14  C   UNL     1     -10.584  11.390  65.880  1.00  0.00    -0.317 C  
HETATM   15  C   UNL     1     -11.625  12.350  65.309  1.00  0.00    -0.419 C  
HETATM   16  C   UNL     1     -11.084  11.108  67.295  1.00  0.00    -0.302 C  
HETATM   17  C   UNL     1     -12.033  13.091  66.563  1.00  0.00    -0.391 C  
HETATM   18  N   UNL     1     -12.622  14.236  66.534  1.00  0.00    -0.500 NA 
HETATM   19  H2  UNL     1     -12.853  14.659  67.433  1.00  0.00     0.000 HD 
HETATM   20  H1  UNL     1     -12.880  14.760  65.697  1.00  0.00     0.000 HD 
ENDBRANCH  12  13
ENDBRANCH   3  12
TORSDOF 2
ENDMDL
MODEL       12
REMARK 921   NORMALIZED FREE ENERGY PREDICTED BY IDOCK:   -5.73 KCAL/MOL
REMARK 922        TOTAL FREE ENERGY PREDICTED BY IDOCK:   -6.74 KCAL/MOL
REMARK 923 INTER-LIGAND FREE ENERGY PREDICTED BY IDOCK:   -6.53 KCAL/MOL
REMARK 924 INTRA-LIGAND FREE ENERGY PREDICTED BY IDOCK:   -0.21 KCAL/MOL
REMARK 927      BINDING AFFINITY PREDICTED BY RF-SCORE:    0.00 PKD
ROOT
HETATM    1 CL   UNL     1      -9.465  15.406  65.929  1.00  0.00    -0.377 Cl 
HETATM    2  C   UNL     1     -10.346  14.916  67.324  1.00  0.00    -0.251 C  
HETATM    3  C   UNL     1     -11.612  14.457  67.303  1.00  0.00    -0.379 C  
HETATM    4  C   UNL     1      -9.647  15.028  68.640  1.00  0.00    -0.219 C  
HETATM    5  N   UNL     1     -12.234  14.149  68.499  1.00  0.00    -0.561 N  
HETATM    6  C   UNL     1     -11.688  14.306  69.736  1.00  0.00    -0.309 C  
HETATM    7  O   UNL     1      -8.461  15.329  68.743  1.00  0.00    -0.157 OA 
HETATM    8  H   UNL     1     -13.181  13.773  68.450  1.00  0.00     0.000 HD 
HETATM    9  O   UNL     1     -12.291  14.050  70.772  1.00  0.00    -0.328 OA 
HETATM   10  N   UNL     1     -10.407  14.778  69.751  1.00  0.00    -0.439 N  
HETATM   11  H   UNL     1      -9.983  14.958  70.661  1.00  0.00     0.000 HD 
ENDROOT
BRANCH   3  12
HETATM   12  C   UNL     1     -12.470  14.322  66.061  1.00  0.00    -0.369 C  
BRANCH  12  13
HETATM   13  N   UNL     1     -12.215  13.070  65.347  1.00  0.00    -0.446 NA 
HETATM   14  C   UNL     1     -10.226  11.862  65.088  1.00  0.00    -0.314 C  
HETATM   15  C   UNL     1     -10.826  12.054  63.698  1.00  0.00    -0.510 C  
HETATM   16  C   UNL     1     -11.415  12.051  66.029  1.00  0.00    -0.338 C  
HETATM   17  C   UNL     1     -11.913  13.059  64.002  1.00  0.00    -0.456 C  
HETATM   18  N   UNL     1     -12.456  13.794  63.094  1.00  0.00    -1.074 NA 
HETATM   19  H2  UNL     1     -13.178  14.446  63.400  1.00  0.00     0.000 HD 
HETATM   20  H1  UNL     1     -12.232  13.785  62.099  1.00  0.00     0.000 HD 
ENDBRANCH  12  13
ENDBRANCH   3  12
TORSDOF 2
ENDMDL
MODEL       13
REMARK 921   NORMALIZED FREE ENERGY PREDICTED BY IDOCK:   -5.69 KCAL/MOL
REMARK 922        TOTAL FREE ENERGY PREDICTED BY IDOCK:   -6.70 KCAL/MOL
REMARK 923 INTER-LIGAND FREE ENERGY PREDICTED BY IDOCK:   -6.38 KCAL/MOL
REMARK 924 INTRA-LIGAND FREE ENERGY PREDICTED BY IDOCK:   -0.32 KCAL/MOL
REMARK 927      BINDING AFFINITY PREDICTED BY RF-SCORE:    0.00 PKD
ROOT
HETATM    1 CL   UNL     1     -13.012  14.144  65.279  1.00  0.00    -0.391 Cl 
HETATM    2  C   UNL     1     -11.771  13.150  64.618  1.00  0.00    -0.361 C  
HETATM    3  C   UNL     1     -10.463  13.268  64.914  1.00  0.00    -0.371 C  
HETATM    4  C   UNL     1     -12.192  12.100  63.642  1.00  0.00    -0.562 C  
HETATM    5  N   UNL     1      -9.552  12.447  64.274  1.00  0.00    -0.517 N  
HETATM    6  C   UNL     1      -9.857  11.529  63.315  1.00  0.00    -0.409 C  
HETATM    7  O   UNL     1     -13.369  11.848  63.399  1.00  0.00    -0.569 OA 
HETATM    8  H   UNL     1      -8.572  12.536  64.542  1.00  0.00     0.000 HD 
HETATM    9  O   UNL     1      -9.011  10.845  62.750  1.00  0.00    -0.250 OA 
HETATM   10  N   UNL     1     -11.183  11.420  63.015  1.00  0.00    -0.844 N  
HETATM   11  H   UNL     1     -11.444  10.780  62.264  1.00  0.00     0.000 HD 
ENDROOT
BRANCH   3  12
HETATM   12  C   UNL     1      -9.870  14.303  65.850  1.00  0.00    -0.298 C  
BRANCH  12  13
HETATM   13  N   UNL     1     -10.094  13.969  67.257  1.00  0.00    -0.247 NA 
HETATM   14  C   UNL     1     -11.510  12.369  68.217  1.00  0.00    -0.360 C  
HETATM   15  C   UNL     1     -11.785  13.699  68.916  1.00  0.00    -0.377 C  
HETATM   16  C   UNL     1     -10.114  12.551  67.623  1.00  0.00    -0.217 C  
HETATM   17  C   UNL     1     -11.024  14.646  68.016  1.00  0.00    -0.267 C  
HETATM   18  N   UNL     1     -11.251  15.914  67.990  1.00  0.00    -0.340 NA 
HETATM   19  H2  UNL     1     -10.688  16.469  67.345  1.00  0.00     0.000 HD 
HETATM   20  H1  UNL     1     -11.939  16.414  68.552  1.00  0.00     0.000 HD 
ENDBRANCH  12  13
ENDBRANCH   3  12
TORSDOF 2
ENDMDL
MODEL       14
REMARK 921   NORMALIZED FREE ENERGY PREDICTED BY IDOCK:   -5.67 KCAL/MOL
REMARK 922        TOTAL FREE ENERGY PREDICTED BY IDOCK:   -6.67 KCAL/MOL
REMARK 923 INTER-LIGAND FREE ENERGY PREDICTED BY IDOCK:   -6.35 KCAL/MOL
REMARK 924 INTRA-LIGAND FREE ENERGY PREDICTED BY IDOCK:   -0.32 KCAL/MOL
REMARK 927      BINDING AFFINITY PREDICTED BY RF-SCORE:    0.00 PKD
ROOT
HETATM    1 CL   UNL     1      -7.476  16.494  68.410  1.00  0.00    -0.177 Cl 
HETATM    2  C   UNL     1      -8.543  17.550  67.567  1.00  0.00    -0.221 C  
HETATM    3  C   UNL     1      -9.364  17.167  66.571  1.00  0.00    -0.265 C  
HETATM    4  C   UNL     1      -8.532  18.988  67.972  1.00  0.00    -0.301 C  
HETATM    5  N   UNL     1     -10.134  18.120  65.930  1.00  0.00    -0.245 N  
HETATM    6  C   UNL     1     -10.112  19.457  66.191  1.00  0.00    -0.452 C  
HETATM    7  O   UNL     1      -7.901  19.404  68.940  1.00  0.00    -0.354 OA 
HETATM    8  H   UNL     1     -10.770  17.797  65.202  1.00  0.00     0.000 HD 
HETATM    9  O   UNL     1     -10.789  20.271  65.574  1.00  0.00    -0.236 OA 
HETATM   10  N   UNL     1      -9.272  19.839  67.197  1.00  0.00    -0.326 N  
HETATM   11  H   UNL     1      -9.190  20.838  67.385  1.00  0.00     0.000 HD 
ENDROOT
BRANCH   3  12
HETATM   12  C   UNL     1      -9.465  15.759  66.016  1.00  0.00    -0.357 C  
BRANCH  12  13
HETATM   13  N   UNL     1     -10.852  15.310  65.899  1.00  0.00    -0.335 NA 
HETATM   14  C   UNL     1     -11.713  13.180  65.442  1.00  0.00    -0.383 C  
HETATM   15  C   UNL     1     -12.379  14.157  64.476  1.00  0.00    -0.419 C  
HETATM   16  C   UNL     1     -11.225  14.071  66.583  1.00  0.00    -0.323 C  
HETATM   17  C   UNL     1     -11.534  15.389  64.703  1.00  0.00    -0.337 C  
HETATM   18  N   UNL     1     -11.482  16.363  63.861  1.00  0.00    -1.618 NA 
HETATM   19  H2  UNL     1     -10.879  17.149  64.101  1.00  0.00     0.000 HD 
HETATM   20  H1  UNL     1     -11.987  16.421  62.976  1.00  0.00     0.000 HD 
ENDBRANCH  12  13
ENDBRANCH   3  12
TORSDOF 2
ENDMDL
MODEL       15
REMARK 921   NORMALIZED FREE ENERGY PREDICTED BY IDOCK:   -5.65 KCAL/MOL
REMARK 922        TOTAL FREE ENERGY PREDICTED BY IDOCK:   -6.65 KCAL/MOL
REMARK 923 INTER-LIGAND FREE ENERGY PREDICTED BY IDOCK:   -6.28 KCAL/MOL
REMARK 924 INTRA-LIGAND FREE ENERGY PREDICTED BY IDOCK:   -0.37 KCAL/MOL
REMARK 927      BINDING AFFINITY PREDICTED BY RF-SCORE:    0.00 PKD
ROOT
HETATM    1 CL   UNL     1     -11.759  12.261  67.588  1.00  0.00    -0.415 Cl 
HETATM    2  C   UNL     1     -11.608  13.597  66.513  1.00  0.00    -0.366 C  
HETATM    3  C   UNL     1     -10.894  14.709  66.775  1.00  0.00    -0.312 C  
HETATM    4  C   UNL     1     -12.337  13.505  65.212  1.00  0.00    -0.467 C  
HETATM    5  N   UNL     1     -10.896  15.741  65.855  1.00  0.00    -0.303 N  
HETATM    6  C   UNL     1     -11.602  15.759  64.691  1.00  0.00    -0.218 C  
HETATM    7  O   UNL     1     -12.918  12.489  64.842  1.00  0.00    -0.821 OA 
HETATM    8  H   UNL     1     -10.320  16.556  66.065  1.00  0.00     0.000 HD 
HETATM    9  O   UNL     1     -11.600  16.712  63.920  1.00  0.00    -1.204 OA 
HETATM   10  N   UNL     1     -12.329  14.633  64.435  1.00  0.00    -0.618 N  
HETATM   11  H   UNL     1     -12.913  14.631  63.598  1.00  0.00     0.000 HD 
ENDROOT
BRANCH   3  12
HETATM   12  C   UNL     1     -10.134  14.974  68.060  1.00  0.00    -0.223 C  
BRANCH  12  13
HETATM   13  N   UNL     1      -8.981  15.850  67.848  1.00  0.00    -0.181 NA 
HETATM   14  C   UNL     1      -7.048  16.134  69.140  1.00  0.00    -0.209 C  
HETATM   15  C   UNL     1      -7.630  17.521  68.880  1.00  0.00    -0.225 C  
HETATM   16  C   UNL     1      -7.647  15.273  68.029  1.00  0.00    -0.125 C  
HETATM   17  C   UNL     1      -8.976  17.152  68.300  1.00  0.00    -0.248 C  
HETATM   18  N   UNL     1      -9.965  17.976  68.258  1.00  0.00    -0.349 NA 
HETATM   19  H2  UNL     1     -10.835  17.631  67.852  1.00  0.00     0.000 HD 
HETATM   20  H1  UNL     1      -9.961  18.940  68.593  1.00  0.00     0.000 HD 
ENDBRANCH  12  13
ENDBRANCH   3  12
TORSDOF 2
ENDMDL
MODEL       16
REMARK 921   NORMALIZED FREE ENERGY PREDICTED BY IDOCK:   -5.63 KCAL/MOL
REMARK 922        TOTAL FREE ENERGY PREDICTED BY IDOCK:   -6.63 KCAL/MOL
REMARK 923 INTER-LIGAND FREE ENERGY PREDICTED BY IDOCK:   -6.28 KCAL/MOL
REMARK 924 INTRA-LIGAND FREE ENERGY PREDICTED BY IDOCK:   -0.35 KCAL/MOL
REMARK 927      BINDING AFFINITY PREDICTED BY RF-SCORE:    0.00 PKD
ROOT
HETATM    1 CL   UNL     1     -10.068  16.336  66.442  1.00  0.00    -0.298 Cl 
HETATM    2  C   UNL     1     -11.020  15.097  65.720  1.00  0.00    -0.349 C  
HETATM    3  C   UNL     1     -11.206  13.873  66.250  1.00  0.00    -0.309 C  
HETATM    4  C   UNL     1     -11.665  15.414  64.409  1.00  0.00    -0.258 C  
HETATM    5  N   UNL     1     -11.947  12.941  65.546  1.00  0.00    -0.410 N  
HETATM    6  C   UNL     1     -12.490  13.135  64.313  1.00  0.00    -0.288 C  
HETATM    7  O   UNL     1     -11.642  16.535  63.909  1.00  0.00    -1.175 OA 
HETATM    8  H   UNL     1     -12.098  12.034  65.987  1.00  0.00     0.000 HD 
HETATM    9  O   UNL     1     -13.113  12.267  63.711  1.00  0.00    -0.780 OA 
HETATM   10  N   UNL     1     -12.293  14.375  63.778  1.00  0.00    -1.079 N  
HETATM   11  H   UNL     1     -12.640  14.540  62.833  1.00  0.00     0.000 HD 
ENDROOT
BRANCH   3  12
HETATM   12  C   UNL     1     -10.592  13.381  67.546  1.00  0.00    -0.250 C  
BRANCH  12  13
HETATM   13  N   UNL     1      -9.152  13.153  67.423  1.00  0.00    -0.199 NA 
HETATM   14  C   UNL     1      -7.873  11.269  67.972  1.00  0.00    -0.115 C  
HETATM   15  C   UNL     1      -7.208  12.477  68.628  1.00  0.00    -0.103 C  
HETATM   16  C   UNL     1      -8.712  11.879  66.850  1.00  0.00    -0.191 C  
HETATM   17  C   UNL     1      -8.277  13.526  68.421  1.00  0.00    -0.141 C  
HETATM   18  N   UNL     1      -8.331  14.611  69.113  1.00  0.00    -0.332 NA 
HETATM   19  H2  UNL     1      -9.093  15.256  68.902  1.00  0.00     0.000 HD 
HETATM   20  H1  UNL     1      -7.683  14.887  69.852  1.00  0.00     0.000 HD 
ENDBRANCH  12  13
ENDBRANCH   3  12
TORSDOF 2
ENDMDL
MODEL       17
REMARK 921   NORMALIZED FREE ENERGY PREDICTED BY IDOCK:   -5.62 KCAL/MOL
REMARK 922        TOTAL FREE ENERGY PREDICTED BY IDOCK:   -6.62 KCAL/MOL
REMARK 923 INTER-LIGAND FREE ENERGY PREDICTED BY IDOCK:   -6.15 KCAL/MOL
REMARK 924 INTRA-LIGAND FREE ENERGY PREDICTED BY IDOCK:   -0.47 KCAL/MOL
REMARK 927      BINDING AFFINITY PREDICTED BY RF-SCORE:    0.00 PKD
ROOT
HETATM    1 CL   UNL     1     -11.037   9.405  69.851  1.00  0.00    -0.242 Cl 
HETATM    2  C   UNL     1     -11.944  10.671  70.584  1.00  0.00    -0.367 C  
HETATM    3  C   UNL     1     -11.903  11.960  70.197  1.00  0.00    -0.308 C  
HETATM    4  C   UNL     1     -12.819  10.297  71.737  1.00  0.00    -0.460 C  
HETATM    5  N   UNL     1     -12.635  12.897  70.903  1.00  0.00    -0.320 N  
HETATM    6  C   UNL     1     -13.385  12.641  72.010  1.00  0.00    -0.454 C  
HETATM    7  O   UNL     1     -13.003   9.135  72.086  1.00  0.00    -0.372 OA 
HETATM    8  H   UNL     1     -12.611  13.860  70.567  1.00  0.00     0.000 HD 
HETATM    9  O   UNL     1     -13.992  13.511  72.625  1.00  0.00    -0.752 OA 
HETATM   10  N   UNL     1     -13.416  11.334  72.402  1.00  0.00    -0.442 N  
HETATM   11  H   UNL     1     -13.925  11.112  73.258  1.00  0.00     0.000 HD 
ENDROOT
BRANCH   3  12
HETATM   12  C   UNL     1     -11.040  12.507  69.077  1.00  0.00    -0.234 C  
BRANCH  12  13
HETATM   13  N   UNL     1     -11.830  12.880  67.903  1.00  0.00    -0.353 NA 
HETATM   14  C   UNL     1     -11.162  13.227  65.686  1.00  0.00    -0.304 C  
HETATM   15  C   UNL     1     -11.977  14.446  66.111  1.00  0.00    -0.381 C  
HETATM   16  C   UNL     1     -11.597  12.137  66.663  1.00  0.00    -0.350 C  
HETATM   17  C   UNL     1     -12.084  14.201  67.598  1.00  0.00    -0.302 C  
HETATM   18  N   UNL     1     -12.373  15.134  68.439  1.00  0.00    -0.509 NA 
HETATM   19  H2  UNL     1     -12.417  14.870  69.423  1.00  0.00     0.000 HD 
HETATM   20  H1  UNL     1     -12.561  16.111  68.213  1.00  0.00     0.000 HD 
ENDBRANCH  12  13
ENDBRANCH   3  12
TORSDOF 2
ENDMDL
MODEL       18
REMARK 921   NORMALIZED FREE ENERGY PREDICTED BY IDOCK:   -5.60 KCAL/MOL
REMARK 922        TOTAL FREE ENERGY PREDICTED BY IDOCK:   -6.60 KCAL/MOL
REMARK 923 INTER-LIGAND FREE ENERGY PREDICTED BY IDOCK:   -6.48 KCAL/MOL
REMARK 924 INTRA-LIGAND FREE ENERGY PREDICTED BY IDOCK:   -0.12 KCAL/MOL
REMARK 927      BINDING AFFINITY PREDICTED BY RF-SCORE:    0.00 PKD
ROOT
HETATM    1 CL   UNL     1      -9.943  14.987  68.684  1.00  0.00    -0.214 Cl 
HETATM    2  C   UNL     1     -10.625  14.766  67.120  1.00  0.00    -0.285 C  
HETATM    3  C   UNL     1     -10.103  15.267  65.984  1.00  0.00    -0.318 C  
HETATM    4  C   UNL     1     -11.890  13.975  67.038  1.00  0.00    -0.428 C  
HETATM    5  N   UNL     1     -10.775  15.070  64.791  1.00  0.00    -0.580 N  
HETATM    6  C   UNL     1     -11.971  14.433  64.656  1.00  0.00    -0.464 C  
HETATM    7  O   UNL     1     -12.375  13.390  68.002  1.00  0.00    -0.199 OA 
HETATM    8  H   UNL     1     -10.340  15.432  63.943  1.00  0.00     0.000 HD 
HETATM    9  O   UNL     1     -12.548  14.311  63.581  1.00  0.00    -0.831 OA 
HETATM   10  N   UNL     1     -12.498  13.935  65.812  1.00  0.00    -0.485 N  
HETATM   11  H   UNL     1     -13.418  13.497  65.758  1.00  0.00     0.000 HD 
ENDROOT
BRANCH   3  12
HETATM   12  C   UNL     1      -8.853  16.122  65.901  1.00  0.00    -0.161 C  
BRANCH  12  13
HETATM   13  N   UNL     1      -9.113  17.516  66.258  1.00  0.00    -0.433 NA 
HETATM   14  C   UNL     1      -9.875  18.439  68.272  1.00  0.00    -0.383 C  
HETATM   15  C   UNL     1     -10.759  18.989  67.156  1.00  0.00    -0.541 C  
HETATM   16  C   UNL     1      -8.606  17.993  67.546  1.00  0.00    -0.244 C  
HETATM   17  C   UNL     1     -10.332  18.107  66.005  1.00  0.00    -0.353 C  
HETATM   18  N   UNL     1     -11.048  17.951  64.945  1.00  0.00    -0.560 NA 
HETATM   19  H2  UNL     1     -10.677  17.331  64.225  1.00  0.00     0.000 HD 
HETATM   20  H1  UNL     1     -11.951  18.389  64.758  1.00  0.00     0.000 HD 
ENDBRANCH  12  13
ENDBRANCH   3  12
TORSDOF 2
ENDMDL
MODEL       19
REMARK 921   NORMALIZED FREE ENERGY PREDICTED BY IDOCK:   -5.58 KCAL/MOL
REMARK 922        TOTAL FREE ENERGY PREDICTED BY IDOCK:   -6.58 KCAL/MOL
REMARK 923 INTER-LIGAND FREE ENERGY PREDICTED BY IDOCK:   -6.28 KCAL/MOL
REMARK 924 INTRA-LIGAND FREE ENERGY PREDICTED BY IDOCK:   -0.30 KCAL/MOL
REMARK 927      BINDING AFFINITY PREDICTED BY RF-SCORE:    0.00 PKD
ROOT
HETATM    1 CL   UNL     1     -10.906  10.521  68.758  1.00  0.00    -0.244 Cl 
HETATM    2  C   UNL     1     -11.590  12.022  69.249  1.00  0.00    -0.321 C  
HETATM    3  C   UNL     1     -11.555  13.151  68.515  1.00  0.00    -0.326 C  
HETATM    4  C   UNL     1     -12.250  12.060  70.589  1.00  0.00    -0.316 C  
HETATM    5  N   UNL     1     -12.089  14.312  69.043  1.00  0.00    -0.475 N  
HETATM    6  C   UNL     1     -12.629  14.437  70.287  1.00  0.00    -0.323 C  
HETATM    7  O   UNL     1     -12.426  11.057  71.275  1.00  0.00    -0.370 OA 
HETATM    8  H   UNL     1     -12.078  15.143  68.452  1.00  0.00     0.000 HD 
HETATM    9  O   UNL     1     -13.062  15.497  70.726  1.00  0.00    -0.478 OA 
HETATM   10  N   UNL     1     -12.655  13.292  71.028  1.00  0.00    -0.354 N  
HETATM   11  H   UNL     1     -13.004  13.359  71.984  1.00  0.00     0.000 HD 
ENDROOT
BRANCH   3  12
HETATM   12  C   UNL     1     -10.891  13.290  67.159  1.00  0.00    -0.258 C  
BRANCH  12  13
HETATM   13  N   UNL     1     -11.598  12.541  66.119  1.00  0.00    -0.375 NA 
HETATM   14  C   UNL     1     -10.955  12.037  63.924  1.00  0.00    -0.465 C  
HETATM   15  C   UNL     1     -12.353  12.646  63.860  1.00  0.00    -0.546 C  
HETATM   16  C   UNL     1     -10.838  11.543  65.365  1.00  0.00    -0.259 C  
HETATM   17  C   UNL     1     -12.497  13.158  65.275  1.00  0.00    -0.495 C  
HETATM   18  N   UNL     1     -13.356  14.059  65.606  1.00  0.00    -0.678 NA 
HETATM   19  H2  UNL     1     -13.373  14.342  66.586  1.00  0.00     0.000 HD 
HETATM   20  H1  UNL     1     -14.021  14.515  64.981  1.00  0.00     0.000 HD 
ENDBRANCH  12  13
ENDBRANCH   3  12
TORSDOF 2
ENDMDL
MODEL       20
REMARK 921   NORMALIZED FREE ENERGY PREDICTED BY IDOCK:   -5.57 KCAL/MOL
REMARK 922        TOTAL FREE ENERGY PREDICTED BY IDOCK:   -6.57 KCAL/MOL
REMARK 923 INTER-LIGAND FREE ENERGY PREDICTED BY IDOCK:   -6.25 KCAL/MOL
REMARK 924 INTRA-LIGAND FREE ENERGY PREDICTED BY IDOCK:   -0.32 KCAL/MOL
REMARK 927      BINDING AFFINITY PREDICTED BY RF-SCORE:    0.00 PKD
ROOT
HETATM    1 CL   UNL     1     -13.020  14.150  65.456  1.00  0.00    -0.442 Cl 
HETATM    2  C   UNL     1     -11.962  12.840  65.099  1.00  0.00    -0.424 C  
HETATM    3  C   UNL     1     -11.014  12.377  65.937  1.00  0.00    -0.288 C  
HETATM    4  C   UNL     1     -12.109  12.195  63.760  1.00  0.00    -0.525 C  
HETATM    5  N   UNL     1     -10.184  11.355  65.514  1.00  0.00    -0.252 N  
HETATM    6  C   UNL     1     -10.209  10.779  64.280  1.00  0.00    -0.354 C  
HETATM    7  O   UNL     1     -13.015  12.476  62.979  1.00  0.00    -0.451 OA 
HETATM    8  H   UNL     1      -9.498  11.003  66.181  1.00  0.00     0.000 HD 
HETATM    9  O   UNL     1      -9.430   9.897  63.937  1.00  0.00    -0.273 OA 
HETATM   10  N   UNL     1     -11.166  11.258  63.433  1.00  0.00    -0.779 N  
HETATM   11  H   UNL     1     -11.181  10.888  62.483  1.00  0.00     0.000 HD 
ENDROOT
BRANCH   3  12
HETATM   12  C   UNL     1     -10.710  12.946  67.309  1.00  0.00    -0.245 C  
BRANCH  12  13
HETATM   13  N   UNL     1     -11.775  12.662  68.272  1.00  0.00    -0.328 NA 
HETATM   14  C   UNL     1     -11.852  13.029  70.584  1.00  0.00    -0.069 C  
HETATM   15  C   UNL     1     -12.247  11.575  70.341  1.00  0.00    -0.442 C  
HETATM   16  C   UNL     1     -12.112  13.708  69.240  1.00  0.00    -0.314 C  
HETATM   17  C   UNL     1     -11.883  11.430  68.881  1.00  0.00    -0.347 C  
HETATM   18  N   UNL     1     -11.700  10.285  68.320  1.00  0.00    -0.719 NA 
HETATM   19  H2  UNL     1     -11.452  10.291  67.330  1.00  0.00     0.000 HD 
HETATM   20  H1  UNL     1     -11.780   9.373  68.771  1.00  0.00     0.000 HD 
ENDBRANCH  12  13
ENDBRANCH   3  12
TORSDOF 2
ENDMDL
MODEL       21
REMARK 921   NORMALIZED FREE ENERGY PREDICTED BY IDOCK:   -5.56 KCAL/MOL
REMARK 922        TOTAL FREE ENERGY PREDICTED BY IDOCK:   -6.56 KCAL/MOL
REMARK 923 INTER-LIGAND FREE ENERGY PREDICTED BY IDOCK:   -6.35 KCAL/MOL
REMARK 924 INTRA-LIGAND FREE ENERGY PREDICTED BY IDOCK:   -0.20 KCAL/MOL
REMARK 927      BINDING AFFINITY PREDICTED BY RF-SCORE:    0.00 PKD
ROOT
HETATM    1 CL   UNL     1     -12.206  12.656  70.389  1.00  0.00    -0.412 Cl 
HETATM    2  C   UNL     1     -12.346  14.003  71.452  1.00  0.00    -0.326 C  
HETATM    3  C   UNL     1     -11.628  15.137  71.343  1.00  0.00    -0.373 C  
HETATM    4  C   UNL     1     -13.325  13.881  72.575  1.00  0.00    -0.554 C  
HETATM    5  N   UNL     1     -11.789  16.128  72.294  1.00  0.00    -0.521 N  
HETATM    6  C   UNL     1     -12.599  16.049  73.386  1.00  0.00    -0.561 C  
HETATM    7  O   UNL     1     -14.098  12.933  72.686  1.00  0.00    -0.562 OA 
HETATM    8  H   UNL     1     -11.257  16.989  72.168  1.00  0.00     0.000 HD 
HETATM    9  O   UNL     1     -12.685  16.941  74.223  1.00  0.00    -0.529 OA 
HETATM   10  N   UNL     1     -13.318  14.894  73.495  1.00  0.00    -0.286 N  
HETATM   11  H   UNL     1     -13.896  14.777  74.327  1.00  0.00     0.000 HD 
ENDROOT
BRANCH   3  12
HETATM   12  C   UNL     1     -10.570  15.402  70.290  1.00  0.00    -0.277 C  
BRANCH  12  13
HETATM   13  N   UNL     1     -11.146  15.914  69.045  1.00  0.00    -0.272 NA 
HETATM   14  C   UNL     1     -10.699  15.321  66.824  1.00  0.00    -0.313 C  
HETATM   15  C   UNL     1     -10.595  16.842  66.919  1.00  0.00    -0.219 C  
HETATM   16  C   UNL     1     -11.551  14.937  68.032  1.00  0.00    -0.341 C  
HETATM   17  C   UNL     1     -10.628  17.027  68.419  1.00  0.00    -0.375 C  
HETATM   18  N   UNL     1     -10.211  18.100  68.997  1.00  0.00    -0.433 NA 
HETATM   19  H2  UNL     1     -10.269  18.128  70.015  1.00  0.00     0.000 HD 
HETATM   20  H1  UNL     1      -9.827  18.924  68.533  1.00  0.00     0.000 HD 
ENDBRANCH  12  13
ENDBRANCH   3  12
TORSDOF 2
ENDMDL
MODEL       22
REMARK 921   NORMALIZED FREE ENERGY PREDICTED BY IDOCK:   -5.55 KCAL/MOL
REMARK 922        TOTAL FREE ENERGY PREDICTED BY IDOCK:   -6.54 KCAL/MOL
REMARK 923 INTER-LIGAND FREE ENERGY PREDICTED BY IDOCK:   -6.26 KCAL/MOL
REMARK 924 INTRA-LIGAND FREE ENERGY PREDICTED BY IDOCK:   -0.29 KCAL/MOL
REMARK 927      BINDING AFFINITY PREDICTED BY RF-SCORE:    0.00 PKD
ROOT
HETATM    1 CL   UNL     1     -11.562  11.632  67.558  1.00  0.00    -0.369 Cl 
HETATM    2  C   UNL     1     -10.819  11.443  66.017  1.00  0.00    -0.249 C  
HETATM    3  C   UNL     1     -10.829  12.378  65.048  1.00  0.00    -0.295 C  
HETATM    4  C   UNL     1     -10.133  10.143  65.750  1.00  0.00    -0.254 C  
HETATM    5  N   UNL     1     -10.245  12.087  63.828  1.00  0.00    -0.390 N  
HETATM    6  C   UNL     1      -9.678  10.897  63.489  1.00  0.00    -0.342 C  
HETATM    7  O   UNL     1      -9.978   9.281  66.611  1.00  0.00    -0.221 OA 
HETATM    8  H   UNL     1     -10.238  12.825  63.124  1.00  0.00     0.000 HD 
HETATM    9  O   UNL     1      -9.201  10.672  62.382  1.00  0.00    -0.259 OA 
HETATM   10  N   UNL     1      -9.678   9.951  64.474  1.00  0.00    -0.412 N  
HETATM   11  H   UNL     1      -9.309   9.030  64.240  1.00  0.00     0.000 HD 
ENDROOT
BRANCH   3  12
HETATM   12  C   UNL     1     -11.512  13.728  65.144  1.00  0.00    -0.321 C  
BRANCH  12  13
HETATM   13  N   UNL     1     -10.554  14.821  65.312  1.00  0.00    -0.365 NA 
HETATM   14  C   UNL     1     -10.068  16.122  67.198  1.00  0.00    -0.269 C  
HETATM   15  C   UNL     1     -10.334  17.081  66.040  1.00  0.00    -0.324 C  
HETATM   16  C   UNL     1      -9.710  14.807  66.508  1.00  0.00    -0.278 C  
HETATM   17  C   UNL     1     -10.891  16.124  65.011  1.00  0.00    -0.363 C  
HETATM   18  N   UNL     1     -11.590  16.515  64.003  1.00  0.00    -1.544 NA 
HETATM   19  H2  UNL     1     -11.927  15.793  63.366  1.00  0.00     0.000 HD 
HETATM   20  H1  UNL     1     -11.840  17.480  63.780  1.00  0.00     0.000 HD 
ENDBRANCH  12  13
ENDBRANCH   3  12
TORSDOF 2
ENDMDL
MODEL       23
REMARK 921   NORMALIZED FREE ENERGY PREDICTED BY IDOCK:   -5.52 KCAL/MOL
REMARK 922        TOTAL FREE ENERGY PREDICTED BY IDOCK:   -6.51 KCAL/MOL
REMARK 923 INTER-LIGAND FREE ENERGY PREDICTED BY IDOCK:   -6.59 KCAL/MOL
REMARK 924 INTRA-LIGAND FREE ENERGY PREDICTED BY IDOCK:    0.08 KCAL/MOL
REMARK 927      BINDING AFFINITY PREDICTED BY RF-SCORE:    0.00 PKD
ROOT
HETATM    1 CL   UNL     1     -10.983  11.244  66.788  1.00  0.00    -0.341 Cl 
HETATM    2  C   UNL     1     -11.586  12.465  67.841  1.00  0.00    -0.356 C  
HETATM    3  C   UNL     1     -11.995  13.683  67.438  1.00  0.00    -0.376 C  
HETATM    4  C   UNL     1     -11.638  12.138  69.298  1.00  0.00    -0.318 C  
HETATM    5  N   UNL     1     -12.406  14.602  68.387  1.00  0.00    -0.606 N  
HETATM    6  C   UNL     1     -12.400  14.400  69.734  1.00  0.00    -0.285 C  
HETATM    7  O   UNL     1     -11.391  11.020  69.740  1.00  0.00    -0.255 OA 
HETATM    8  H   UNL     1     -12.742  15.504  68.051  1.00  0.00     0.000 HD 
HETATM    9  O   UNL     1     -12.743  15.257  70.541  1.00  0.00    -0.384 OA 
HETATM   10  N   UNL     1     -11.977  13.166  70.135  1.00  0.00    -0.444 N  
HETATM   11  H   UNL     1     -11.909  12.997  71.139  1.00  0.00     0.000 HD 
ENDROOT
BRANCH   3  12
HETATM   12  C   UNL     1     -11.969  14.184  66.007  1.00  0.00    -0.413 C  
BRANCH  12  13
HETATM   13  N   UNL     1     -10.798  15.019  65.736  1.00  0.00    -0.337 NA 
HETATM   14  C   UNL     1      -9.820  16.708  67.030  1.00  0.00    -0.260 C  
HETATM   15  C   UNL     1     -10.038  17.276  65.629  1.00  0.00    -0.069 C  
HETATM   16  C   UNL     1      -9.825  15.196  66.816  1.00  0.00    -0.241 C  
HETATM   17  C   UNL     1     -10.904  16.195  65.025  1.00  0.00    -0.363 C  
HETATM   18  N   UNL     1     -11.635  16.391  63.982  1.00  0.00    -1.542 NA 
HETATM   19  H2  UNL     1     -12.189  15.600  63.652  1.00  0.00     0.000 HD 
HETATM   20  H1  UNL     1     -11.713  17.261  63.456  1.00  0.00     0.000 HD 
ENDBRANCH  12  13
ENDBRANCH   3  12
TORSDOF 2
ENDMDL
MODEL       24
REMARK 921   NORMALIZED FREE ENERGY PREDICTED BY IDOCK:   -5.49 KCAL/MOL
REMARK 922        TOTAL FREE ENERGY PREDICTED BY IDOCK:   -6.48 KCAL/MOL
REMARK 923 INTER-LIGAND FREE ENERGY PREDICTED BY IDOCK:   -6.17 KCAL/MOL
REMARK 924 INTRA-LIGAND FREE ENERGY PREDICTED BY IDOCK:   -0.31 KCAL/MOL
REMARK 927      BINDING AFFINITY PREDICTED BY RF-SCORE:    0.00 PKD
ROOT
HETATM    1 CL   UNL     1     -12.476  13.110  70.827  1.00  0.00    -0.416 Cl 
HETATM    2  C   UNL     1     -11.917  14.481  69.948  1.00  0.00    -0.328 C  
HETATM    3  C   UNL     1     -11.675  14.488  68.623  1.00  0.00    -0.329 C  
HETATM    4  C   UNL     1     -11.677  15.733  70.727  1.00  0.00    -0.399 C  
HETATM    5  N   UNL     1     -11.172  15.637  68.039  1.00  0.00    -0.341 N  
HETATM    6  C   UNL     1     -10.852  16.783  68.701  1.00  0.00    -0.336 C  
HETATM    7  O   UNL     1     -11.974  15.850  71.912  1.00  0.00    -0.414 OA 
HETATM    8  H   UNL     1     -11.030  15.624  67.029  1.00  0.00     0.000 HD 
HETATM    9  O   UNL     1     -10.377  17.766  68.145  1.00  0.00    -0.355 OA 
HETATM   10  N   UNL     1     -11.093  16.766  70.044  1.00  0.00    -0.410 N  
HETATM   11  H   UNL     1     -10.816  17.587  70.581  1.00  0.00     0.000 HD 
ENDROOT
BRANCH   3  12
HETATM   12  C   UNL     1     -11.830  13.295  67.701  1.00  0.00    -0.357 C  
BRANCH  12  13
HETATM   13  N   UNL     1     -11.603  13.647  66.299  1.00  0.00    -0.334 NA 
HETATM   14  C   UNL     1     -11.955  12.391  64.354  1.00  0.00    -0.482 C  
HETATM   15  C   UNL     1     -10.528  12.932  64.294  1.00  0.00    -0.430 C  
HETATM   16  C   UNL     1     -12.658  13.323  65.338  1.00  0.00    -0.468 C  
HETATM   17  C   UNL     1     -10.374  13.460  65.702  1.00  0.00    -0.290 C  
HETATM   18  N   UNL     1      -9.225  13.688  66.238  1.00  0.00    -0.478 NA 
HETATM   19  H2  UNL     1      -9.224  14.039  67.196  1.00  0.00     0.000 HD 
HETATM   20  H1  UNL     1      -8.316  13.550  65.795  1.00  0.00     0.000 HD 
ENDBRANCH  12  13
ENDBRANCH   3  12
TORSDOF 2
ENDMDL
MODEL       25
REMARK 921   NORMALIZED FREE ENERGY PREDICTED BY IDOCK:   -5.49 KCAL/MOL
REMARK 922        TOTAL FREE ENERGY PREDICTED BY IDOCK:   -6.47 KCAL/MOL
REMARK 923 INTER-LIGAND FREE ENERGY PREDICTED BY IDOCK:   -6.23 KCAL/MOL
REMARK 924 INTRA-LIGAND FREE ENERGY PREDICTED BY IDOCK:   -0.25 KCAL/MOL
REMARK 927      BINDING AFFINITY PREDICTED BY RF-SCORE:    0.00 PKD
ROOT
HETATM    1 CL   UNL     1      -9.594  15.380  65.722  1.00  0.00    -0.381 Cl 
HETATM    2  C   UNL     1     -10.464  15.517  67.201  1.00  0.00    -0.286 C  
HETATM    3  C   UNL     1     -10.058  16.246  68.258  1.00  0.00    -0.243 C  
HETATM    4  C   UNL     1     -11.746  14.757  67.306  1.00  0.00    -0.347 C  
HETATM    5  N   UNL     1     -10.816  16.232  69.415  1.00  0.00    -0.309 N  
HETATM    6  C   UNL     1     -11.947  15.498  69.607  1.00  0.00    -0.359 C  
HETATM    7  O   UNL     1     -12.247  14.159  66.358  1.00  0.00    -0.444 OA 
HETATM    8  H   UNL     1     -10.502  16.819  70.187  1.00  0.00     0.000 HD 
HETATM    9  O   UNL     1     -12.569  15.491  70.664  1.00  0.00    -0.416 OA 
HETATM   10  N   UNL     1     -12.348  14.756  68.535  1.00  0.00    -0.594 N  
HETATM   11  H   UNL     1     -13.161  14.153  68.659  1.00  0.00     0.000 HD 
ENDROOT
BRANCH   3  12
HETATM   12  C   UNL     1      -8.767  17.039  68.327  1.00  0.00    -0.241 C  
BRANCH  12  13
HETATM   13  N   UNL     1      -8.948  18.427  67.901  1.00  0.00    -0.278 NA 
HETATM   14  C   UNL     1     -10.882  19.548  67.202  1.00  0.00    -0.555 C  
HETATM   15  C   UNL     1      -9.806  19.797  66.148  1.00  0.00    -0.544 C  
HETATM   16  C   UNL     1     -10.090  19.162  68.450  1.00  0.00    -0.418 C  
HETATM   17  C   UNL     1      -8.753  18.807  66.591  1.00  0.00    -0.303 C  
HETATM   18  N   UNL     1      -7.814  18.395  65.811  1.00  0.00    -0.510 NA 
HETATM   19  H2  UNL     1      -7.153  17.723  66.200  1.00  0.00     0.000 HD 
HETATM   20  H1  UNL     1      -7.669  18.677  64.841  1.00  0.00     0.000 HD 
ENDBRANCH  12  13
ENDBRANCH   3  12
TORSDOF 2
ENDMDL
MODEL       26
REMARK 921   NORMALIZED FREE ENERGY PREDICTED BY IDOCK:   -5.47 KCAL/MOL
REMARK 922        TOTAL FREE ENERGY PREDICTED BY IDOCK:   -6.46 KCAL/MOL
REMARK 923 INTER-LIGAND FREE ENERGY PREDICTED BY IDOCK:   -6.11 KCAL/MOL
REMARK 924 INTRA-LIGAND FREE ENERGY PREDICTED BY IDOCK:   -0.34 KCAL/MOL
REMARK 927      BINDING AFFINITY PREDICTED BY RF-SCORE:    0.00 PKD
ROOT
HETATM    1 CL   UNL     1     -11.054  12.142  68.228  1.00  0.00    -0.263 Cl 
HETATM    2  C   UNL     1     -11.847  12.612  69.681  1.00  0.00    -0.311 C  
HETATM    3  C   UNL     1     -12.330  11.752  70.598  1.00  0.00    -0.328 C  
HETATM    4  C   UNL     1     -12.016  14.078  69.917  1.00  0.00    -0.336 C  
HETATM    5  N   UNL     1     -13.001  12.250  71.700  1.00  0.00    -0.367 N  
HETATM    6  C   UNL     1     -13.263  13.566  71.934  1.00  0.00    -0.422 C  
HETATM    7  O   UNL     1     -11.512  14.933  69.194  1.00  0.00    -0.270 OA 
HETATM    8  H   UNL     1     -13.326  11.578  72.393  1.00  0.00     0.000 HD 
HETATM    9  O   UNL     1     -13.891  13.960  72.910  1.00  0.00    -0.662 OA 
HETATM   10  N   UNL     1     -12.777  14.432  70.998  1.00  0.00    -0.326 N  
HETATM   11  H   UNL     1     -12.999  15.420  71.113  1.00  0.00     0.000 HD 
ENDROOT
BRANCH   3  12
HETATM   12  C   UNL     1     -12.276  10.240  70.489  1.00  0.00    -0.301 C  
BRANCH  12  13
HETATM   13  N   UNL     1     -11.562   9.631  71.612  1.00  0.00    -0.379 NA 
HETATM   14  C   UNL     1     -10.318   7.649  71.708  1.00  0.00    -0.233 C  
HETATM   15  C   UNL     1     -11.320   7.614  72.860  1.00  0.00    -0.394 C  
HETATM   16  C   UNL     1     -10.207   9.134  71.366  1.00  0.00    -0.332 C  
HETATM   17  C   UNL     1     -12.200   8.787  72.495  1.00  0.00    -0.277 C  
HETATM   18  N   UNL     1     -13.390   8.938  72.967  1.00  0.00    -0.911 NA 
HETATM   19  H2  UNL     1     -13.908   9.760  72.657  1.00  0.00     0.000 HD 
HETATM   20  H1  UNL     1     -13.862   8.313  73.621  1.00  0.00     0.000 HD 
ENDBRANCH  12  13
ENDBRANCH   3  12
TORSDOF 2
ENDMDL
MODEL       27
REMARK 921   NORMALIZED FREE ENERGY PREDICTED BY IDOCK:   -5.46 KCAL/MOL
REMARK 922        TOTAL FREE ENERGY PREDICTED BY IDOCK:   -6.44 KCAL/MOL
REMARK 923 INTER-LIGAND FREE ENERGY PREDICTED BY IDOCK:   -6.32 KCAL/MOL
REMARK 924 INTRA-LIGAND FREE ENERGY PREDICTED BY IDOCK:   -0.12 KCAL/MOL
REMARK 927      BINDING AFFINITY PREDICTED BY RF-SCORE:    0.00 PKD
ROOT
HETATM    1 CL   UNL     1     -13.154  13.731  65.544  1.00  0.00    -0.369 Cl 
HETATM    2  C   UNL     1     -11.859  12.821  64.867  1.00  0.00    -0.379 C  
HETATM    3  C   UNL     1     -10.613  12.775  65.376  1.00  0.00    -0.287 C  
HETATM    4  C   UNL     1     -12.153  12.047  63.623  1.00  0.00    -0.527 C  
HETATM    5  N   UNL     1      -9.640  12.053  64.708  1.00  0.00    -0.443 N  
HETATM    6  C   UNL     1      -9.817  11.395  63.529  1.00  0.00    -0.375 C  
HETATM    7  O   UNL     1     -13.282  11.942  63.154  1.00  0.00    -0.539 OA 
HETATM    8  H   UNL     1      -8.715  12.009  65.133  1.00  0.00     0.000 HD 
HETATM    9  O   UNL     1      -8.916  10.795  62.955  1.00  0.00    -0.206 OA 
HETATM   10  N   UNL     1     -11.080  11.452  63.015  1.00  0.00    -0.840 N  
HETATM   11  H   UNL     1     -11.238  11.015  62.107  1.00  0.00     0.000 HD 
ENDROOT
BRANCH   3  12
HETATM   12  C   UNL     1     -10.143  13.532  66.603  1.00  0.00    -0.277 C  
BRANCH  12  13
HETATM   13  N   UNL     1     -10.472  14.956  66.533  1.00  0.00    -0.289 NA 
HETATM   14  C   UNL     1      -9.140  16.832  66.972  1.00  0.00    -0.239 C  
HETATM   15  C   UNL     1     -10.431  16.994  67.770  1.00  0.00    -0.349 C  
HETATM   16  C   UNL     1      -9.513  15.842  65.870  1.00  0.00    -0.337 C  
HETATM   17  C   UNL     1     -11.032  15.617  67.605  1.00  0.00    -0.315 C  
HETATM   18  N   UNL     1     -11.944  15.157  68.390  1.00  0.00    -0.549 NA 
HETATM   19  H2  UNL     1     -12.283  14.214  68.201  1.00  0.00     0.000 HD 
HETATM   20  H1  UNL     1     -12.359  15.647  69.183  1.00  0.00     0.000 HD 
ENDBRANCH  12  13
ENDBRANCH   3  12
TORSDOF 2
ENDMDL
MODEL       28
REMARK 921   NORMALIZED FREE ENERGY PREDICTED BY IDOCK:   -5.42 KCAL/MOL
REMARK 922        TOTAL FREE ENERGY PREDICTED BY IDOCK:   -6.40 KCAL/MOL
REMARK 923 INTER-LIGAND FREE ENERGY PREDICTED BY IDOCK:   -6.05 KCAL/MOL
REMARK 924 INTRA-LIGAND FREE ENERGY PREDICTED BY IDOCK:   -0.35 KCAL/MOL
REMARK 927      BINDING AFFINITY PREDICTED BY RF-SCORE:    0.00 PKD
ROOT
HETATM    1 CL   UNL     1      -9.022  13.084  67.981  1.00  0.00    -0.193 Cl 
HETATM    2  C   UNL     1      -9.803  14.194  66.922  1.00  0.00    -0.265 C  
HETATM    3  C   UNL     1     -10.970  13.955  66.294  1.00  0.00    -0.298 C  
HETATM    4  C   UNL     1      -9.117  15.500  66.684  1.00  0.00    -0.279 C  
HETATM    5  N   UNL     1     -11.470  14.903  65.420  1.00  0.00    -0.341 N  
HETATM    6  C   UNL     1     -10.857  16.074  65.094  1.00  0.00    -0.395 C  
HETATM    7  O   UNL     1      -8.111  15.847  67.296  1.00  0.00    -0.155 OA 
HETATM    8  H   UNL     1     -12.371  14.709  64.985  1.00  0.00     0.000 HD 
HETATM    9  O   UNL     1     -11.323  16.871  64.287  1.00  0.00    -1.202 OA 
HETATM   10  N   UNL     1      -9.671  16.307  65.727  1.00  0.00    -0.308 N  
HETATM   11  H   UNL     1      -9.158  17.150  65.468  1.00  0.00     0.000 HD 
ENDROOT
BRANCH   3  12
HETATM   12  C   UNL     1     -11.768  12.670  66.397  1.00  0.00    -0.405 C  
BRANCH  12  13
HETATM   13  N   UNL     1     -11.407  11.710  65.353  1.00  0.00    -0.213 NA 
HETATM   14  C   UNL     1      -9.308  11.169  64.465  1.00  0.00    -0.191 C  
HETATM   15  C   UNL     1     -10.234  11.474  63.291  1.00  0.00    -0.432 C  
HETATM   16  C   UNL     1     -10.265  10.829  65.606  1.00  0.00    -0.257 C  
HETATM   17  C   UNL     1     -11.421  12.060  64.020  1.00  0.00    -0.404 C  
HETATM   18  N   UNL     1     -12.306  12.791  63.435  1.00  0.00    -0.712 NA 
HETATM   19  H2  UNL     1     -13.068  13.145  64.014  1.00  0.00     0.000 HD 
HETATM   20  H1  UNL     1     -12.317  13.050  62.448  1.00  0.00     0.000 HD 
ENDBRANCH  12  13
ENDBRANCH   3  12
TORSDOF 2
ENDMDL
MODEL       29
REMARK 921   NORMALIZED FREE ENERGY PREDICTED BY IDOCK:   -5.41 KCAL/MOL
REMARK 922        TOTAL FREE ENERGY PREDICTED BY IDOCK:   -6.39 KCAL/MOL
REMARK 923 INTER-LIGAND FREE ENERGY PREDICTED BY IDOCK:   -6.08 KCAL/MOL
REMARK 924 INTRA-LIGAND FREE ENERGY PREDICTED BY IDOCK:   -0.31 KCAL/MOL
REMARK 927      BINDING AFFINITY PREDICTED BY RF-SCORE:    0.00 PKD
ROOT
HETATM    1 CL   UNL     1     -11.193  16.135  68.289  1.00  0.00    -0.357 Cl 
HETATM    2  C   UNL     1     -11.377  14.513  68.837  1.00  0.00    -0.274 C  
HETATM    3  C   UNL     1     -11.092  13.423  68.100  1.00  0.00    -0.258 C  
HETATM    4  C   UNL     1     -11.905  14.323  70.222  1.00  0.00    -0.307 C  
HETATM    5  N   UNL     1     -11.337  12.170  68.631  1.00  0.00    -0.255 N  
HETATM    6  C   UNL     1     -11.893  11.925  69.849  1.00  0.00    -0.343 C  
HETATM    7  O   UNL     1     -12.086  15.254  71.001  1.00  0.00    -0.287 OA 
HETATM    8  H   UNL     1     -11.080  11.363  68.063  1.00  0.00     0.000 HD 
HETATM    9  O   UNL     1     -12.123  10.795  70.266  1.00  0.00    -0.291 OA 
HETATM   10  N   UNL     1     -12.187  13.034  70.588  1.00  0.00    -0.448 N  
HETATM   11  H   UNL     1     -12.652  12.892  71.484  1.00  0.00     0.000 HD 
ENDROOT
BRANCH   3  12
HETATM   12  C   UNL     1     -10.589  13.444  66.669  1.00  0.00    -0.282 C  
BRANCH  12  13
HETATM   13  N   UNL     1     -11.318  12.507  65.814  1.00  0.00    -0.320 NA 
HETATM   14  C   UNL     1     -10.816  11.728  63.663  1.00  0.00    -0.508 C  
HETATM   15  C   UNL     1     -12.257  12.231  63.640  1.00  0.00    -0.665 C  
HETATM   16  C   UNL     1     -10.546  11.460  65.142  1.00  0.00    -0.293 C  
HETATM   17  C   UNL     1     -12.326  12.934  64.976  1.00  0.00    -0.485 C  
HETATM   18  N   UNL     1     -13.222  13.817  65.253  1.00  0.00    -0.702 NA 
HETATM   19  H2  UNL     1     -13.182  14.240  66.180  1.00  0.00     0.000 HD 
HETATM   20  H1  UNL     1     -13.968  14.133  64.633  1.00  0.00     0.000 HD 
ENDBRANCH  12  13
ENDBRANCH   3  12
TORSDOF 2
ENDMDL
MODEL       30
REMARK 921   NORMALIZED FREE ENERGY PREDICTED BY IDOCK:   -5.39 KCAL/MOL
REMARK 922        TOTAL FREE ENERGY PREDICTED BY IDOCK:   -6.37 KCAL/MOL
REMARK 923 INTER-LIGAND FREE ENERGY PREDICTED BY IDOCK:   -6.24 KCAL/MOL
REMARK 924 INTRA-LIGAND FREE ENERGY PREDICTED BY IDOCK:   -0.13 KCAL/MOL
REMARK 927      BINDING AFFINITY PREDICTED BY RF-SCORE:    0.00 PKD
ROOT
HETATM    1 CL   UNL     1     -12.149  14.521  67.615  1.00  0.00    -0.339 Cl 
HETATM    2  C   UNL     1     -11.456  13.741  66.246  1.00  0.00    -0.335 C  
HETATM    3  C   UNL     1     -10.971  14.385  65.168  1.00  0.00    -0.373 C  
HETATM    4  C   UNL     1     -11.411  12.248  66.268  1.00  0.00    -0.380 C  
HETATM    5  N   UNL     1     -10.490  13.645  64.103  1.00  0.00    -0.558 N  
HETATM    6  C   UNL     1     -10.497  12.286  64.021  1.00  0.00    -0.399 C  
HETATM    7  O   UNL     1     -11.727  11.585  67.252  1.00  0.00    -0.576 OA 
HETATM    8  H   UNL     1     -10.100  14.159  63.314  1.00  0.00     0.000 HD 
HETATM    9  O   UNL     1     -10.090  11.672  63.041  1.00  0.00    -0.370 OA 
HETATM   10  N   UNL     1     -10.996  11.640  65.114  1.00  0.00    -0.287 N  
HETATM   11  H   UNL     1     -11.065  10.623  65.068  1.00  0.00     0.000 HD 
ENDROOT
BRANCH   3  12
HETATM   12  C   UNL     1     -10.979  15.889  64.973  1.00  0.00    -0.412 C  
BRANCH  12  13
HETATM   13  N   UNL     1      -9.825  16.533  65.600  1.00  0.00    -0.550 NA 
HETATM   14  C   UNL     1      -8.953  16.290  67.760  1.00  0.00    -0.193 C  
HETATM   15  C   UNL     1      -9.131  17.785  67.507  1.00  0.00    -0.244 C  
HETATM   16  C   UNL     1      -8.903  15.686  66.358  1.00  0.00    -0.330 C  
HETATM   17  C   UNL     1      -9.938  17.755  66.229  1.00  0.00    -0.318 C  
HETATM   18  N   UNL     1     -10.632  18.760  65.820  1.00  0.00    -0.572 NA 
HETATM   19  H2  UNL     1     -11.147  18.640  64.948  1.00  0.00     0.000 HD 
HETATM   20  H1  UNL     1     -10.715  19.664  66.286  1.00  0.00     0.000 HD 
ENDBRANCH  12  13
ENDBRANCH   3  12
TORSDOF 2
ENDMDL
MODEL       31
REMARK 921   NORMALIZED FREE ENERGY PREDICTED BY IDOCK:   -5.39 KCAL/MOL
REMARK 922        TOTAL FREE ENERGY PREDICTED BY IDOCK:   -6.36 KCAL/MOL
REMARK 923 INTER-LIGAND FREE ENERGY PREDICTED BY IDOCK:   -5.92 KCAL/MOL
REMARK 924 INTRA-LIGAND FREE ENERGY PREDICTED BY IDOCK:   -0.44 KCAL/MOL
REMARK 927      BINDING AFFINITY PREDICTED BY RF-SCORE:    0.00 PKD
ROOT
HETATM    1 CL   UNL     1     -13.126  14.282  65.408  1.00  0.00    -0.282 Cl 
HETATM    2  C   UNL     1     -11.918  13.304  64.669  1.00  0.00    -0.394 C  
HETATM    3  C   UNL     1     -10.596  13.552  64.730  1.00  0.00    -0.417 C  
HETATM    4  C   UNL     1     -12.388  12.112  63.901  1.00  0.00    -0.487 C  
HETATM    5  N   UNL     1      -9.724  12.724  64.045  1.00  0.00    -0.514 N  
HETATM    6  C   UNL     1     -10.089  11.673  63.260  1.00  0.00    -0.423 C  
HETATM    7  O   UNL     1     -13.560  11.747  63.886  1.00  0.00    -0.382 OA 
HETATM    8  H   UNL     1      -8.727  12.917  64.136  1.00  0.00     0.000 HD 
HETATM    9  O   UNL     1      -9.282  10.986  62.645  1.00  0.00    -0.304 OA 
HETATM   10  N   UNL     1     -11.431  11.431  63.198  1.00  0.00    -0.873 N  
HETATM   11  H   UNL     1     -11.745  10.685  62.578  1.00  0.00     0.000 HD 
ENDROOT
BRANCH   3  12
HETATM   12  C   UNL     1      -9.962  14.738  65.431  1.00  0.00    -0.334 C  
BRANCH  12  13
HETATM   13  N   UNL     1      -9.855  14.532  66.876  1.00  0.00    -0.255 NA 
HETATM   14  C   UNL     1      -9.286  16.041  68.574  1.00  0.00    -0.213 C  
HETATM   15  C   UNL     1      -8.405  14.807  68.748  1.00  0.00    -0.168 C  
HETATM   16  C   UNL     1     -10.469  15.532  67.752  1.00  0.00    -0.273 C  
HETATM   17  C   UNL     1      -8.687  14.081  67.453  1.00  0.00    -0.207 C  
HETATM   18  N   UNL     1      -7.908  13.170  66.981  1.00  0.00    -0.397 NA 
HETATM   19  H2  UNL     1      -8.181  12.742  66.097  1.00  0.00     0.000 HD 
HETATM   20  H1  UNL     1      -7.043  12.837  67.408  1.00  0.00     0.000 HD 
ENDBRANCH  12  13
ENDBRANCH   3  12
TORSDOF 2
ENDMDL
MODEL       32
REMARK 921   NORMALIZED FREE ENERGY PREDICTED BY IDOCK:   -5.28 KCAL/MOL
REMARK 922        TOTAL FREE ENERGY PREDICTED BY IDOCK:   -6.24 KCAL/MOL
REMARK 923 INTER-LIGAND FREE ENERGY PREDICTED BY IDOCK:   -6.20 KCAL/MOL
REMARK 924 INTRA-LIGAND FREE ENERGY PREDICTED BY IDOCK:   -0.03 KCAL/MOL
REMARK 927      BINDING AFFINITY PREDICTED BY RF-SCORE:    0.00 PKD
ROOT
HETATM    1 CL   UNL     1     -10.897  11.461  64.880  1.00  0.00    -0.346 Cl 
HETATM    2  C   UNL     1     -11.303  11.785  66.521  1.00  0.00    -0.305 C  
HETATM    3  C   UNL     1     -11.800  12.955  66.966  1.00  0.00    -0.374 C  
HETATM    4  C   UNL     1     -11.068  10.686  67.506  1.00  0.00    -0.300 C  
HETATM    5  N   UNL     1     -12.034  13.114  68.319  1.00  0.00    -0.335 N  
HETATM    6  C   UNL     1     -11.764  12.188  69.280  1.00  0.00    -0.328 C  
HETATM    7  O   UNL     1     -10.724   9.555  67.176  1.00  0.00    -0.255 OA 
HETATM    8  H   UNL     1     -12.441  13.999  68.623  1.00  0.00     0.000 HD 
HETATM    9  O   UNL     1     -11.957  12.387  70.475  1.00  0.00    -0.330 OA 
HETATM   10  N   UNL     1     -11.254  11.008  68.824  1.00  0.00    -0.242 N  
HETATM   11  H   UNL     1     -10.991  10.310  69.519  1.00  0.00     0.000 HD 
ENDROOT
BRANCH   3  12
HETATM   12  C   UNL     1     -12.058  14.176  66.105  1.00  0.00    -0.435 C  
BRANCH  12  13
HETATM   13  N   UNL     1     -10.870  15.020  65.975  1.00  0.00    -0.327 NA 
HETATM   14  C   UNL     1     -10.146  16.817  67.291  1.00  0.00    -0.281 C  
HETATM   15  C   UNL     1     -10.133  17.284  65.838  1.00  0.00    -0.226 C  
HETATM   16  C   UNL     1     -10.094  15.294  67.186  1.00  0.00    -0.240 C  
HETATM   17  C   UNL     1     -10.870  16.143  65.175  1.00  0.00    -0.361 C  
HETATM   18  N   UNL     1     -11.419  16.250  64.014  1.00  0.00    -1.521 NA 
HETATM   19  H2  UNL     1     -11.899  15.426  63.653  1.00  0.00     0.000 HD 
HETATM   20  H1  UNL     1     -11.419  17.081  63.423  1.00  0.00     0.000 HD 
ENDBRANCH  12  13
ENDBRANCH   3  12
TORSDOF 2
ENDMDL
MODEL       33
REMARK 921   NORMALIZED FREE ENERGY PREDICTED BY IDOCK:   -5.26 KCAL/MOL
REMARK 922        TOTAL FREE ENERGY PREDICTED BY IDOCK:   -6.22 KCAL/MOL
REMARK 923 INTER-LIGAND FREE ENERGY PREDICTED BY IDOCK:   -5.75 KCAL/MOL
REMARK 924 INTRA-LIGAND FREE ENERGY PREDICTED BY IDOCK:   -0.48 KCAL/MOL
REMARK 927      BINDING AFFINITY PREDICTED BY RF-SCORE:    0.00 PKD
ROOT
HETATM    1 CL   UNL     1     -13.691   9.182  72.583  1.00  0.00    -0.485 Cl 
HETATM    2  C   UNL     1     -12.199   9.514  71.791  1.00  0.00    -0.387 C  
HETATM    3  C   UNL     1     -11.984  10.570  70.983  1.00  0.00    -0.364 C  
HETATM    4  C   UNL     1     -11.083   8.547  72.016  1.00  0.00    -0.342 C  
HETATM    5  N   UNL     1     -10.758  10.698  70.356  1.00  0.00    -0.416 N  
HETATM    6  C   UNL     1      -9.729   9.812  70.450  1.00  0.00    -0.184 C  
HETATM    7  O   UNL     1     -11.153   7.622  72.820  1.00  0.00    -0.326 OA 
HETATM    8  H   UNL     1     -10.613  11.524  69.776  1.00  0.00     0.000 HD 
HETATM    9  O   UNL     1      -8.669   9.950  69.849  1.00  0.00    -0.205 OA 
HETATM   10  N   UNL     1      -9.955   8.741  71.265  1.00  0.00    -0.236 N  
HETATM   11  H   UNL     1      -9.226   8.029  71.318  1.00  0.00     0.000 HD 
ENDROOT
BRANCH   3  12
HETATM   12  C   UNL     1     -13.020  11.616  70.621  1.00  0.00     0.093 C  
BRANCH  12  13
HETATM   13  N   UNL     1     -12.767  12.896  71.284  1.00  0.00    -0.340 NA 
HETATM   14  C   UNL     1     -14.183  14.734  71.601  1.00  0.00    -0.618 C  
HETATM   15  C   UNL     1     -12.884  15.260  70.995  1.00  0.00    -0.505 C  
HETATM   16  C   UNL     1     -13.785  13.392  72.213  1.00  0.00    -0.607 C  
HETATM   17  C   UNL     1     -12.217  13.961  70.604  1.00  0.00    -0.373 C  
HETATM   18  N   UNL     1     -11.265  13.901  69.738  1.00  0.00    -0.452 NA 
HETATM   19  H2  UNL     1     -10.883  12.977  69.536  1.00  0.00     0.000 HD 
HETATM   20  H1  UNL     1     -10.859  14.690  69.234  1.00  0.00     0.000 HD 
ENDBRANCH  12  13
ENDBRANCH   3  12
TORSDOF 2
ENDMDL
MODEL       34
REMARK 921   NORMALIZED FREE ENERGY PREDICTED BY IDOCK:   -5.23 KCAL/MOL
REMARK 922        TOTAL FREE ENERGY PREDICTED BY IDOCK:   -6.18 KCAL/MOL
REMARK 923 INTER-LIGAND FREE ENERGY PREDICTED BY IDOCK:   -5.90 KCAL/MOL
REMARK 924 INTRA-LIGAND FREE ENERGY PREDICTED BY IDOCK:   -0.29 KCAL/MOL
REMARK 927      BINDING AFFINITY PREDICTED BY RF-SCORE:    0.00 PKD
ROOT
HETATM    1 CL   UNL     1     -10.109  10.485  66.862  1.00  0.00    -0.253 Cl 
HETATM    2  C   UNL     1     -10.855  11.650  65.838  1.00  0.00    -0.287 C  
HETATM    3  C   UNL     1     -11.500  12.748  66.278  1.00  0.00    -0.354 C  
HETATM    4  C   UNL     1     -10.784  11.404  64.366  1.00  0.00    -0.342 C  
HETATM    5  N   UNL     1     -12.111  13.582  65.359  1.00  0.00    -0.389 N  
HETATM    6  C   UNL     1     -12.157  13.373  64.014  1.00  0.00    -0.449 C  
HETATM    7  O   UNL     1     -10.125  10.493  63.873  1.00  0.00    -0.327 OA 
HETATM    8  H   UNL     1     -12.564  14.422  65.718  1.00  0.00     0.000 HD 
HETATM    9  O   UNL     1     -12.740  14.124  63.240  1.00  0.00    -0.714 OA 
HETATM   10  N   UNL     1     -11.508  12.256  63.576  1.00  0.00    -0.564 N  
HETATM   11  H   UNL     1     -11.566  12.039  62.581  1.00  0.00     0.000 HD 
ENDROOT
BRANCH   3  12
HETATM   12  C   UNL     1     -11.695  13.120  67.735  1.00  0.00    -0.358 C  
BRANCH  12  13
HETATM   13  N   UNL     1     -11.135  14.435  68.048  1.00  0.00    -0.264 NA 
HETATM   14  C   UNL     1      -9.188  15.003  69.219  1.00  0.00    -0.159 C  
HETATM   15  C   UNL     1     -10.336  15.802  69.831  1.00  0.00    -0.313 C  
HETATM   16  C   UNL     1      -9.701  14.632  67.829  1.00  0.00    -0.215 C  
HETATM   17  C   UNL     1     -11.520  15.130  69.175  1.00  0.00    -0.306 C  
HETATM   18  N   UNL     1     -12.717  15.215  69.644  1.00  0.00    -0.605 NA 
HETATM   19  H2  UNL     1     -13.449  14.722  69.133  1.00  0.00     0.000 HD 
HETATM   20  H1  UNL     1     -13.001  15.729  70.478  1.00  0.00     0.000 HD 
ENDBRANCH  12  13
ENDBRANCH   3  12
TORSDOF 2
ENDMDL
MODEL       35
REMARK 921   NORMALIZED FREE ENERGY PREDICTED BY IDOCK:   -5.23 KCAL/MOL
REMARK 922        TOTAL FREE ENERGY PREDICTED BY IDOCK:   -6.18 KCAL/MOL
REMARK 923 INTER-LIGAND FREE ENERGY PREDICTED BY IDOCK:   -5.70 KCAL/MOL
REMARK 924 INTRA-LIGAND FREE ENERGY PREDICTED BY IDOCK:   -0.48 KCAL/MOL
REMARK 927      BINDING AFFINITY PREDICTED BY RF-SCORE:    0.00 PKD
ROOT
HETATM    1 CL   UNL     1     -10.742  15.605  65.480  1.00  0.00    -0.382 Cl 
HETATM    2  C   UNL     1     -11.279  15.178  67.058  1.00  0.00    -0.308 C  
HETATM    3  C   UNL     1     -11.751  13.964  67.399  1.00  0.00    -0.389 C  
HETATM    4  C   UNL     1     -11.224  16.244  68.104  1.00  0.00    -0.298 C  
HETATM    5  N   UNL     1     -12.208  13.758  68.689  1.00  0.00    -0.435 N  
HETATM    6  C   UNL     1     -12.265  14.706  69.665  1.00  0.00    -0.283 C  
HETATM    7  O   UNL     1     -10.708  17.341  67.912  1.00  0.00    -0.372 OA 
HETATM    8  H   UNL     1     -12.529  12.821  68.927  1.00  0.00     0.000 HD 
HETATM    9  O   UNL     1     -12.709  14.486  70.786  1.00  0.00    -0.330 OA 
HETATM   10  N   UNL     1     -11.792  15.936  69.311  1.00  0.00    -0.364 N  
HETATM   11  H   UNL     1     -11.867  16.684  69.999  1.00  0.00     0.000 HD 
ENDROOT
BRANCH   3  12
HETATM   12  C   UNL     1     -11.909  12.791  66.451  1.00  0.00    -0.408 C  
BRANCH  12  13
HETATM   13  N   UNL     1     -10.826  11.818  66.592  1.00  0.00    -0.264 NA 
HETATM   14  C   UNL     1     -10.133  10.114  65.142  1.00  0.00    -0.329 C  
HETATM   15  C   UNL     1     -10.322   9.488  66.522  1.00  0.00    -0.263 C  
HETATM   16  C   UNL     1      -9.952  11.602  65.437  1.00  0.00    -0.250 C  
HETATM   17  C   UNL     1     -11.018  10.618  67.244  1.00  0.00    -0.284 C  
HETATM   18  N   UNL     1     -11.698  10.440  68.324  1.00  0.00    -0.741 NA 
HETATM   19  H2  UNL     1     -12.136  11.265  68.735  1.00  0.00     0.000 HD 
HETATM   20  H1  UNL     1     -11.841   9.553  68.807  1.00  0.00     0.000 HD 
ENDBRANCH  12  13
ENDBRANCH   3  12
TORSDOF 2
ENDMDL
MODEL       36
REMARK 921   NORMALIZED FREE ENERGY PREDICTED BY IDOCK:   -5.19 KCAL/MOL
REMARK 922        TOTAL FREE ENERGY PREDICTED BY IDOCK:   -6.14 KCAL/MOL
REMARK 923 INTER-LIGAND FREE ENERGY PREDICTED BY IDOCK:   -5.85 KCAL/MOL
REMARK 924 INTRA-LIGAND FREE ENERGY PREDICTED BY IDOCK:   -0.30 KCAL/MOL
REMARK 927      BINDING AFFINITY PREDICTED BY RF-SCORE:    0.00 PKD
ROOT
HETATM    1 CL   UNL     1     -12.657  13.290  71.143  1.00  0.00    -0.444 Cl 
HETATM    2  C   UNL     1     -12.023  12.207  69.964  1.00  0.00    -0.315 C  
HETATM    3  C   UNL     1     -11.670  12.562  68.714  1.00  0.00    -0.327 C  
HETATM    4  C   UNL     1     -11.875  10.776  70.370  1.00  0.00    -0.358 C  
HETATM    5  N   UNL     1     -11.227  11.589  67.838  1.00  0.00    -0.256 N  
HETATM    6  C   UNL     1     -11.147  10.258  68.114  1.00  0.00    -0.264 C  
HETATM    7  O   UNL     1     -12.065  10.384  71.518  1.00  0.00    -0.353 OA 
HETATM    8  H   UNL     1     -10.936  11.892  66.909  1.00  0.00     0.000 HD 
HETATM    9  O   UNL     1     -10.779   9.425  67.294  1.00  0.00    -0.267 OA 
HETATM   10  N   UNL     1     -11.512   9.903  69.380  1.00  0.00    -0.441 N  
HETATM   11  H   UNL     1     -11.516   8.908  69.607  1.00  0.00     0.000 HD 
ENDROOT
BRANCH   3  12
HETATM   12  C   UNL     1     -11.796  13.959  68.137  1.00  0.00    -0.372 C  
BRANCH  12  13
HETATM   13  N   UNL     1     -11.157  14.073  66.825  1.00  0.00    -0.301 NA 
HETATM   14  C   UNL     1     -10.234  15.942  65.757  1.00  0.00    -0.389 C  
HETATM   15  C   UNL     1     -11.199  15.286  64.773  1.00  0.00    -0.405 C  
HETATM   16  C   UNL     1      -9.903  14.824  66.744  1.00  0.00    -0.255 C  
HETATM   17  C   UNL     1     -11.896  14.301  65.684  1.00  0.00    -0.373 C  
HETATM   18  N   UNL     1     -13.034  13.772  65.396  1.00  0.00    -0.727 NA 
HETATM   19  H2  UNL     1     -13.426  13.122  66.077  1.00  0.00     0.000 HD 
HETATM   20  H1  UNL     1     -13.581  13.940  64.551  1.00  0.00     0.000 HD 
ENDBRANCH  12  13
ENDBRANCH   3  12
TORSDOF 2
ENDMDL
MODEL       37
REMARK 921   NORMALIZED FREE ENERGY PREDICTED BY IDOCK:   -5.18 KCAL/MOL
REMARK 922        TOTAL FREE ENERGY PREDICTED BY IDOCK:   -6.12 KCAL/MOL
REMARK 923 INTER-LIGAND FREE ENERGY PREDICTED BY IDOCK:   -5.76 KCAL/MOL
REMARK 924 INTRA-LIGAND FREE ENERGY PREDICTED BY IDOCK:   -0.36 KCAL/MOL
REMARK 927      BINDING AFFINITY PREDICTED BY RF-SCORE:    0.00 PKD
ROOT
HETATM    1 CL   UNL     1     -11.208  14.319  65.834  1.00  0.00    -0.313 Cl 
HETATM    2  C   UNL     1     -10.750  15.902  66.330  1.00  0.00    -0.261 C  
HETATM    3  C   UNL     1     -10.295  16.213  67.559  1.00  0.00    -0.286 C  
HETATM    4  C   UNL     1     -10.886  16.994  65.320  1.00  0.00    -0.071 C  
HETATM    5  N   UNL     1     -10.013  17.534  67.856  1.00  0.00    -0.297 N  
HETATM    6  C   UNL     1     -10.193  18.588  67.013  1.00  0.00    -0.380 C  
HETATM    7  O   UNL     1     -11.185  16.786  64.147  1.00  0.00    -1.155 OA 
HETATM    8  H   UNL     1      -9.639  17.735  68.783  1.00  0.00     0.000 HD 
HETATM    9  O   UNL     1      -9.960  19.748  67.332  1.00  0.00    -0.351 OA 
HETATM   10  N   UNL     1     -10.661  18.266  65.772  1.00  0.00    -0.331 N  
HETATM   11  H   UNL     1     -10.858  19.035  65.131  1.00  0.00     0.000 HD 
ENDROOT
BRANCH   3  12
HETATM   12  C   UNL     1     -10.138  15.233  68.705  1.00  0.00    -0.222 C  
BRANCH  12  13
HETATM   13  N   UNL     1     -11.425  14.862  69.295  1.00  0.00    -0.285 NA 
HETATM   14  C   UNL     1     -12.083  14.774  71.540  1.00  0.00    -0.411 C  
HETATM   15  C   UNL     1     -12.455  13.436  70.905  1.00  0.00    -0.439 C  
HETATM   16  C   UNL     1     -11.962  15.723  70.350  1.00  0.00    -0.359 C  
HETATM   17  C   UNL     1     -11.731  13.549  69.582  1.00  0.00    -0.314 C  
HETATM   18  N   UNL     1     -11.451  12.525  68.853  1.00  0.00    -0.285 NA 
HETATM   19  H2  UNL     1     -10.956  12.703  67.979  1.00  0.00     0.000 HD 
HETATM   20  H1  UNL     1     -11.679  11.553  69.066  1.00  0.00     0.000 HD 
ENDBRANCH  12  13
ENDBRANCH   3  12
TORSDOF 2
ENDMDL
MODEL       38
REMARK 921   NORMALIZED FREE ENERGY PREDICTED BY IDOCK:   -5.17 KCAL/MOL
REMARK 922        TOTAL FREE ENERGY PREDICTED BY IDOCK:   -6.12 KCAL/MOL
REMARK 923 INTER-LIGAND FREE ENERGY PREDICTED BY IDOCK:   -5.78 KCAL/MOL
REMARK 924 INTRA-LIGAND FREE ENERGY PREDICTED BY IDOCK:   -0.33 KCAL/MOL
REMARK 927      BINDING AFFINITY PREDICTED BY RF-SCORE:    0.00 PKD
ROOT
HETATM    1 CL   UNL     1     -10.253  10.891  66.819  1.00  0.00    -0.265 Cl 
HETATM    2  C   UNL     1     -10.873  12.317  67.556  1.00  0.00    -0.234 C  
HETATM    3  C   UNL     1     -10.715  13.560  67.062  1.00  0.00    -0.277 C  
HETATM    4  C   UNL     1     -11.623  12.146  68.837  1.00  0.00    -0.324 C  
HETATM    5  N   UNL     1     -11.211  14.635  67.777  1.00  0.00    -0.294 N  
HETATM    6  C   UNL     1     -11.829  14.559  68.988  1.00  0.00    -0.318 C  
HETATM    7  O   UNL     1     -11.910  11.046  69.301  1.00  0.00    -0.298 OA 
HETATM    8  H   UNL     1     -11.106  15.561  67.363  1.00  0.00     0.000 HD 
HETATM    9  O   UNL     1     -12.223  15.544  69.601  1.00  0.00    -0.343 OA 
HETATM   10  N   UNL     1     -11.979  13.298  69.486  1.00  0.00    -0.317 N  
HETATM   11  H   UNL     1     -12.390  13.206  70.415  1.00  0.00     0.000 HD 
ENDROOT
BRANCH   3  12
HETATM   12  C   UNL     1      -9.949  13.906  65.800  1.00  0.00    -0.284 C  
BRANCH  12  13
HETATM   13  N   UNL     1     -10.722  13.623  64.590  1.00  0.00    -0.405 NA 
HETATM   14  C   UNL     1     -12.773  12.521  64.336  1.00  0.00    -0.447 C  
HETATM   15  C   UNL     1     -11.789  11.879  63.362  1.00  0.00    -0.512 C  
HETATM   16  C   UNL     1     -12.161  13.890  64.625  1.00  0.00    -0.419 C  
HETATM   17  C   UNL     1     -10.491  12.491  63.838  1.00  0.00    -0.434 C  
HETATM   18  N   UNL     1      -9.339  11.984  63.560  1.00  0.00    -0.610 NA 
HETATM   19  H2  UNL     1      -8.521  12.467  63.932  1.00  0.00     0.000 HD 
HETATM   20  H1  UNL     1      -9.169  11.146  63.004  1.00  0.00     0.000 HD 
ENDBRANCH  12  13
ENDBRANCH   3  12
TORSDOF 2
ENDMDL
MODEL       39
REMARK 921   NORMALIZED FREE ENERGY PREDICTED BY IDOCK:   -5.17 KCAL/MOL
REMARK 922        TOTAL FREE ENERGY PREDICTED BY IDOCK:   -6.12 KCAL/MOL
REMARK 923 INTER-LIGAND FREE ENERGY PREDICTED BY IDOCK:   -5.77 KCAL/MOL
REMARK 924 INTRA-LIGAND FREE ENERGY PREDICTED BY IDOCK:   -0.35 KCAL/MOL
REMARK 927      BINDING AFFINITY PREDICTED BY RF-SCORE:    0.00 PKD
ROOT
HETATM    1 CL   UNL     1     -12.344  13.340  70.699  1.00  0.00    -0.434 Cl 
HETATM    2  C   UNL     1     -11.847  14.684  69.746  1.00  0.00    -0.316 C  
HETATM    3  C   UNL     1     -11.742  14.669  68.404  1.00  0.00    -0.320 C  
HETATM    4  C   UNL     1     -11.498  15.940  70.477  1.00  0.00    -0.392 C  
HETATM    5  N   UNL     1     -11.275  15.797  67.753  1.00  0.00    -0.320 N  
HETATM    6  C   UNL     1     -10.861  16.943  68.361  1.00  0.00    -0.347 C  
HETATM    7  O   UNL     1     -11.669  16.080  71.685  1.00  0.00    -0.444 OA 
HETATM    8  H   UNL     1     -11.238  15.768  66.735  1.00  0.00     0.000 HD 
HETATM    9  O   UNL     1     -10.423  17.907  67.745  1.00  0.00    -0.371 OA 
HETATM   10  N   UNL     1     -10.963  16.949  69.722  1.00  0.00    -0.371 N  
HETATM   11  H   UNL     1     -10.613  17.770  70.215  1.00  0.00     0.000 HD 
ENDROOT
BRANCH   3  12
HETATM   12  C   UNL     1     -12.019  13.468  67.521  1.00  0.00    -0.346 C  
BRANCH  12  13
HETATM   13  N   UNL     1     -10.907  12.516  67.520  1.00  0.00    -0.227 NA 
HETATM   14  C   UNL     1      -9.779  11.520  65.726  1.00  0.00    -0.263 C  
HETATM   15  C   UNL     1     -10.197  10.402  66.678  1.00  0.00    -0.292 C  
HETATM   16  C   UNL     1      -9.796  12.771  66.602  1.00  0.00    -0.250 C  
HETATM   17  C   UNL     1     -11.126  11.157  67.600  1.00  0.00    -0.287 C  
HETATM   18  N   UNL     1     -11.998  10.569  68.344  1.00  0.00    -0.788 NA 
HETATM   19  H2  UNL     1     -12.583  11.166  68.929  1.00  0.00     0.000 HD 
HETATM   20  H1  UNL     1     -12.159   9.563  68.403  1.00  0.00     0.000 HD 
ENDBRANCH  12  13
ENDBRANCH   3  12
TORSDOF 2
ENDMDL
MODEL       40
REMARK 921   NORMALIZED FREE ENERGY PREDICTED BY IDOCK:   -5.14 KCAL/MOL
REMARK 922        TOTAL FREE ENERGY PREDICTED BY IDOCK:   -6.09 KCAL/MOL
REMARK 923 INTER-LIGAND FREE ENERGY PREDICTED BY IDOCK:   -5.92 KCAL/MOL
REMARK 924 INTRA-LIGAND FREE ENERGY PREDICTED BY IDOCK:   -0.17 KCAL/MOL
REMARK 927      BINDING AFFINITY PREDICTED BY RF-SCORE:    0.00 PKD
ROOT
HETATM    1 CL   UNL     1     -12.747  12.594  64.891  1.00  0.00    -0.549 Cl 
HETATM    2  C   UNL     1     -11.596  13.841  65.181  1.00  0.00    -0.331 C  
HETATM    3  C   UNL     1     -10.547  13.729  66.017  1.00  0.00    -0.290 C  
HETATM    4  C   UNL     1     -11.800  15.133  64.458  1.00  0.00    -0.330 C  
HETATM    5  N   UNL     1      -9.722  14.822  66.212  1.00  0.00    -0.287 N  
HETATM    6  C   UNL     1      -9.898  16.051  65.651  1.00  0.00    -0.274 C  
HETATM    7  O   UNL     1     -12.661  15.286  63.596  1.00  0.00    -0.566 OA 
HETATM    8  H   UNL     1      -8.917  14.698  66.825  1.00  0.00     0.000 HD 
HETATM    9  O   UNL     1      -9.159  17.002  65.879  1.00  0.00    -0.510 OA 
HETATM   10  N   UNL     1     -10.967  16.160  64.811  1.00  0.00    -0.509 N  
HETATM   11  H   UNL     1     -11.161  17.079  64.414  1.00  0.00     0.000 HD 
ENDROOT
BRANCH   3  12
HETATM   12  C   UNL     1     -10.224  12.505  66.853  1.00  0.00    -0.226 C  
BRANCH  12  13
HETATM   13  N   UNL     1     -11.315  12.153  67.761  1.00  0.00    -0.284 NA 
HETATM   14  C   UNL     1     -11.549  12.544  70.058  1.00  0.00    -0.207 C  
HETATM   15  C   UNL     1     -11.818  11.061  69.820  1.00  0.00    -0.421 C  
HETATM   16  C   UNL     1     -11.784  13.183  68.691  1.00  0.00    -0.326 C  
HETATM   17  C   UNL     1     -11.363  10.925  68.385  1.00  0.00    -0.304 C  
HETATM   18  N   UNL     1     -11.062   9.790  67.854  1.00  0.00    -0.504 NA 
HETATM   19  H2  UNL     1     -10.761   9.802  66.880  1.00  0.00     0.000 HD 
HETATM   20  H1  UNL     1     -11.098   8.881  68.316  1.00  0.00     0.000 HD 
ENDBRANCH  12  13
ENDBRANCH   3  12
TORSDOF 2
ENDMDL
MODEL       41
REMARK 921   NORMALIZED FREE ENERGY PREDICTED BY IDOCK:   -5.12 KCAL/MOL
REMARK 922        TOTAL FREE ENERGY PREDICTED BY IDOCK:   -6.07 KCAL/MOL
REMARK 923 INTER-LIGAND FREE ENERGY PREDICTED BY IDOCK:   -5.77 KCAL/MOL
REMARK 924 INTRA-LIGAND FREE ENERGY PREDICTED BY IDOCK:   -0.29 KCAL/MOL
REMARK 927      BINDING AFFINITY PREDICTED BY RF-SCORE:    0.00 PKD
ROOT
HETATM    1 CL   UNL     1     -13.727  12.981  72.501  1.00  0.00    -0.624 Cl 
HETATM    2  C   UNL     1     -12.845  12.252  71.214  1.00  0.00    -0.239 C  
HETATM    3  C   UNL     1     -12.175  12.936  70.268  1.00  0.00    -0.289 C  
HETATM    4  C   UNL     1     -12.847  10.759  71.152  1.00  0.00    -0.414 C  
HETATM    5  N   UNL     1     -11.551  12.239  69.249  1.00  0.00    -0.304 N  
HETATM    6  C   UNL     1     -11.583  10.887  69.085  1.00  0.00    -0.319 C  
HETATM    7  O   UNL     1     -13.336  10.055  72.031  1.00  0.00    -0.429 OA 
HETATM    8  H   UNL     1     -11.024  12.781  68.565  1.00  0.00     0.000 HD 
HETATM    9  O   UNL     1     -11.042  10.314  68.146  1.00  0.00    -0.272 OA 
HETATM   10  N   UNL     1     -12.270  10.201  70.044  1.00  0.00    -0.494 N  
HETATM   11  H   UNL     1     -12.360   9.192  69.925  1.00  0.00     0.000 HD 
ENDROOT
BRANCH   3  12
HETATM   12  C   UNL     1     -12.109  14.448  70.166  1.00  0.00    -0.335 C  
BRANCH  12  13
HETATM   13  N   UNL     1     -11.078  14.893  69.228  1.00  0.00    -0.258 NA 
HETATM   14  C   UNL     1     -10.260  17.045  68.798  1.00  0.00    -0.317 C  
HETATM   15  C   UNL     1     -10.633  16.424  67.454  1.00  0.00    -0.306 C  
HETATM   16  C   UNL     1     -10.076  15.841  69.719  1.00  0.00    -0.276 C  
HETATM   17  C   UNL     1     -11.381  15.194  67.917  1.00  0.00    -0.338 C  
HETATM   18  N   UNL     1     -12.192  14.545  67.155  1.00  0.00    -0.558 NA 
HETATM   19  H2  UNL     1     -12.653  13.731  67.561  1.00  0.00     0.000 HD 
HETATM   20  H1  UNL     1     -12.416  14.768  66.185  1.00  0.00     0.000 HD 
ENDBRANCH  12  13
ENDBRANCH   3  12
TORSDOF 2
ENDMDL
MODEL       42
REMARK 921   NORMALIZED FREE ENERGY PREDICTED BY IDOCK:   -5.11 KCAL/MOL
REMARK 922        TOTAL FREE ENERGY PREDICTED BY IDOCK:   -6.06 KCAL/MOL
REMARK 923 INTER-LIGAND FREE ENERGY PREDICTED BY IDOCK:   -5.80 KCAL/MOL
REMARK 924 INTRA-LIGAND FREE ENERGY PREDICTED BY IDOCK:   -0.25 KCAL/MOL
REMARK 927      BINDING AFFINITY PREDICTED BY RF-SCORE:    0.00 PKD
ROOT
HETATM    1 CL   UNL     1     -12.520  13.795  63.816  1.00  0.00    -0.340 Cl 
HETATM    2  C   UNL     1     -11.734  14.614  65.110  1.00  0.00    -0.364 C  
HETATM    3  C   UNL     1     -11.482  14.068  66.315  1.00  0.00    -0.351 C  
HETATM    4  C   UNL     1     -11.324  16.030  64.866  1.00  0.00    -0.229 C  
HETATM    5  N   UNL     1     -10.894  14.847  67.296  1.00  0.00    -0.299 N  
HETATM    6  C   UNL     1     -10.572  16.164  67.169  1.00  0.00    -0.294 C  
HETATM    7  O   UNL     1     -11.412  16.570  63.767  1.00  0.00    -1.065 OA 
HETATM    8  H   UNL     1     -10.685  14.398  68.187  1.00  0.00     0.000 HD 
HETATM    9  O   UNL     1     -10.082  16.824  68.078  1.00  0.00    -0.264 OA 
HETATM   10  N   UNL     1     -10.837  16.713  65.948  1.00  0.00    -0.144 N  
HETATM   11  H   UNL     1     -10.658  17.710  65.832  1.00  0.00     0.000 HD 
ENDROOT
BRANCH   3  12
HETATM   12  C   UNL     1     -11.868  12.663  66.735  1.00  0.00    -0.370 C  
BRANCH  12  13
HETATM   13  N   UNL     1     -10.705  11.782  66.849  1.00  0.00    -0.238 NA 
HETATM   14  C   UNL     1      -9.751  10.336  65.273  1.00  0.00    -0.354 C  
HETATM   15  C   UNL     1      -9.969   9.533  66.553  1.00  0.00    -0.329 C  
HETATM   16  C   UNL     1      -9.738  11.787  65.750  1.00  0.00    -0.237 C  
HETATM   17  C   UNL     1     -10.822  10.500  67.343  1.00  0.00    -0.291 C  
HETATM   18  N   UNL     1     -11.552  10.131  68.338  1.00  0.00    -0.632 NA 
HETATM   19  H2  UNL     1     -12.096  10.857  68.805  1.00  0.00     0.000 HD 
HETATM   20  H1  UNL     1     -11.638   9.183  68.703  1.00  0.00     0.000 HD 
ENDBRANCH  12  13
ENDBRANCH   3  12
TORSDOF 2
ENDMDL
MODEL       43
REMARK 921   NORMALIZED FREE ENERGY PREDICTED BY IDOCK:   -5.11 KCAL/MOL
REMARK 922        TOTAL FREE ENERGY PREDICTED BY IDOCK:   -6.05 KCAL/MOL
REMARK 923 INTER-LIGAND FREE ENERGY PREDICTED BY IDOCK:   -5.86 KCAL/MOL
REMARK 924 INTRA-LIGAND FREE ENERGY PREDICTED BY IDOCK:   -0.20 KCAL/MOL
REMARK 927      BINDING AFFINITY PREDICTED BY RF-SCORE:    0.00 PKD
ROOT
HETATM    1 CL   UNL     1     -12.395  13.534  63.297  1.00  0.00    -0.364 Cl 
HETATM    2  C   UNL     1     -11.213  14.114  64.406  1.00  0.00    -0.278 C  
HETATM    3  C   UNL     1     -10.365  13.328  65.096  1.00  0.00    -0.323 C  
HETATM    4  C   UNL     1     -11.149  15.592  64.616  1.00  0.00    -0.373 C  
HETATM    5  N   UNL     1      -9.498  13.908  66.003  1.00  0.00    -0.498 N  
HETATM    6  C   UNL     1      -9.444  15.235  66.305  1.00  0.00    -0.309 C  
HETATM    7  O   UNL     1     -11.804  16.390  63.951  1.00  0.00    -1.034 OA 
HETATM    8  H   UNL     1      -8.845  13.292  66.487  1.00  0.00     0.000 HD 
HETATM    9  O   UNL     1      -8.680  15.701  67.142  1.00  0.00    -0.185 OA 
HETATM   10  N   UNL     1     -10.311  16.025  65.608  1.00  0.00    -0.374 N  
HETATM   11  H   UNL     1     -10.336  17.017  65.844  1.00  0.00     0.000 HD 
ENDROOT
BRANCH   3  12
HETATM   12  C   UNL     1     -10.329  11.813  65.028  1.00  0.00    -0.281 C  
BRANCH  12  13
HETATM   13  N   UNL     1      -9.997  11.210  66.319  1.00  0.00    -0.212 NA 
HETATM   14  C   UNL     1      -9.892   8.956  66.946  1.00  0.00    -0.288 C  
HETATM   15  C   UNL     1     -10.767   9.674  67.971  1.00  0.00    -0.284 C  
HETATM   16  C   UNL     1      -9.067  10.079  66.321  1.00  0.00    -0.151 C  
HETATM   17  C   UNL     1     -10.958  11.007  67.286  1.00  0.00    -0.297 C  
HETATM   18  N   UNL     1     -11.912  11.817  67.592  1.00  0.00    -0.606 NA 
HETATM   19  H2  UNL     1     -11.960  12.692  67.068  1.00  0.00     0.000 HD 
HETATM   20  H1  UNL     1     -12.623  11.667  68.307  1.00  0.00     0.000 HD 
ENDBRANCH  12  13
ENDBRANCH   3  12
TORSDOF 2
ENDMDL
MODEL       44
REMARK 921   NORMALIZED FREE ENERGY PREDICTED BY IDOCK:   -5.10 KCAL/MOL
REMARK 922        TOTAL FREE ENERGY PREDICTED BY IDOCK:   -6.04 KCAL/MOL
REMARK 923 INTER-LIGAND FREE ENERGY PREDICTED BY IDOCK:   -5.59 KCAL/MOL
REMARK 924 INTRA-LIGAND FREE ENERGY PREDICTED BY IDOCK:   -0.45 KCAL/MOL
REMARK 927      BINDING AFFINITY PREDICTED BY RF-SCORE:    0.00 PKD
ROOT
HETATM    1 CL   UNL     1     -11.712  13.335  67.449  1.00  0.00    -0.397 Cl 
HETATM    2  C   UNL     1     -10.980  14.846  67.828  1.00  0.00    -0.293 C  
HETATM    3  C   UNL     1     -11.398  15.670  68.808  1.00  0.00    -0.349 C  
HETATM    4  C   UNL     1      -9.813  15.262  66.994  1.00  0.00    -0.229 C  
HETATM    5  N   UNL     1     -10.763  16.887  68.980  1.00  0.00    -0.328 N  
HETATM    6  C   UNL     1      -9.751  17.364  68.204  1.00  0.00    -0.291 C  
HETATM    7  O   UNL     1      -9.296  14.529  66.156  1.00  0.00    -0.277 OA 
HETATM    8  H   UNL     1     -11.080  17.475  69.750  1.00  0.00     0.000 HD 
HETATM    9  O   UNL     1      -9.240  18.466  68.373  1.00  0.00    -0.305 OA 
HETATM   10  N   UNL     1      -9.337  16.528  67.208  1.00  0.00    -0.220 N  
HETATM   11  H   UNL     1      -8.617  16.873  66.574  1.00  0.00     0.000 HD 
ENDROOT
BRANCH   3  12
HETATM   12  C   UNL     1     -12.587  15.415  69.714  1.00  0.00    -0.103 C  
BRANCH  12  13
HETATM   13  N   UNL     1     -12.199  14.758  70.963  1.00  0.00    -0.306 NA 
HETATM   14  C   UNL     1     -13.499  13.574  72.510  1.00  0.00    -0.660 C  
HETATM   15  C   UNL     1     -12.700  14.616  73.290  1.00  0.00    -0.552 C  
HETATM   16  C   UNL     1     -12.714  13.410  71.210  1.00  0.00    -0.338 C  
HETATM   17  C   UNL     1     -12.152  15.450  72.154  1.00  0.00    -0.407 C  
HETATM   18  N   UNL     1     -11.714  16.650  72.321  1.00  0.00    -0.531 NA 
HETATM   19  H2  UNL     1     -11.368  17.134  71.492  1.00  0.00     0.000 HD 
HETATM   20  H1  UNL     1     -11.679  17.162  73.203  1.00  0.00     0.000 HD 
ENDBRANCH  12  13
ENDBRANCH   3  12
TORSDOF 2
ENDMDL
MODEL       45
REMARK 921   NORMALIZED FREE ENERGY PREDICTED BY IDOCK:   -5.07 KCAL/MOL
REMARK 922        TOTAL FREE ENERGY PREDICTED BY IDOCK:   -6.01 KCAL/MOL
REMARK 923 INTER-LIGAND FREE ENERGY PREDICTED BY IDOCK:   -5.71 KCAL/MOL
REMARK 924 INTRA-LIGAND FREE ENERGY PREDICTED BY IDOCK:   -0.29 KCAL/MOL
REMARK 927      BINDING AFFINITY PREDICTED BY RF-SCORE:    0.00 PKD
ROOT
HETATM    1 CL   UNL     1     -12.050  13.041  63.341  1.00  0.00    -0.630 Cl 
HETATM    2  C   UNL     1     -10.854  12.582  64.491  1.00  0.00    -0.328 C  
HETATM    3  C   UNL     1     -10.648  13.206  65.666  1.00  0.00    -0.277 C  
HETATM    4  C   UNL     1      -9.986  11.418  64.137  1.00  0.00    -0.290 C  
HETATM    5  N   UNL     1      -9.616  12.779  66.482  1.00  0.00    -0.254 N  
HETATM    6  C   UNL     1      -8.737  11.782  66.185  1.00  0.00    -0.057 C  
HETATM    7  O   UNL     1     -10.174  10.723  63.143  1.00  0.00    -0.299 OA 
HETATM    8  H   UNL     1      -9.504  13.248  67.380  1.00  0.00     0.000 HD 
HETATM    9  O   UNL     1      -7.815  11.459  66.926  1.00  0.00    -0.147 OA 
HETATM   10  N   UNL     1      -8.947  11.159  64.989  1.00  0.00    -0.355 N  
HETATM   11  H   UNL     1      -8.277  10.443  64.709  1.00  0.00     0.000 HD 
ENDROOT
BRANCH   3  12
HETATM   12  C   UNL     1     -11.412  14.421  66.154  1.00  0.00    -0.357 C  
BRANCH  12  13
HETATM   13  N   UNL     1     -10.580  15.625  66.175  1.00  0.00    -0.313 NA 
HETATM   14  C   UNL     1     -10.680  17.501  67.574  1.00  0.00    -0.280 C  
HETATM   15  C   UNL     1     -10.655  18.008  66.134  1.00  0.00    -0.269 C  
HETATM   16  C   UNL     1     -10.095  16.093  67.475  1.00  0.00    -0.256 C  
HETATM   17  C   UNL     1     -10.872  16.714  65.383  1.00  0.00    -0.173 C  
HETATM   18  N   UNL     1     -11.283  16.678  64.162  1.00  0.00    -1.430 NA 
HETATM   19  H2  UNL     1     -11.403  15.756  63.743  1.00  0.00     0.000 HD 
HETATM   20  H1  UNL     1     -11.499  17.485  63.575  1.00  0.00     0.000 HD 
ENDBRANCH  12  13
ENDBRANCH   3  12
TORSDOF 2
ENDMDL
MODEL       46
REMARK 921   NORMALIZED FREE ENERGY PREDICTED BY IDOCK:   -5.07 KCAL/MOL
REMARK 922        TOTAL FREE ENERGY PREDICTED BY IDOCK:   -6.00 KCAL/MOL
REMARK 923 INTER-LIGAND FREE ENERGY PREDICTED BY IDOCK:   -5.73 KCAL/MOL
REMARK 924 INTRA-LIGAND FREE ENERGY PREDICTED BY IDOCK:   -0.27 KCAL/MOL
REMARK 927      BINDING AFFINITY PREDICTED BY RF-SCORE:    0.00 PKD
ROOT
HETATM    1 CL   UNL     1      -9.894  12.131  67.845  1.00  0.00    -0.193 Cl 
HETATM    2  C   UNL     1     -10.713  12.616  66.411  1.00  0.00    -0.255 C  
HETATM    3  C   UNL     1     -11.393  13.771  66.276  1.00  0.00    -0.321 C  
HETATM    4  C   UNL     1     -10.667  11.673  65.254  1.00  0.00    -0.291 C  
HETATM    5  N   UNL     1     -12.059  14.023  65.091  1.00  0.00    -0.389 N  
HETATM    6  C   UNL     1     -12.130  13.173  64.030  1.00  0.00    -0.446 C  
HETATM    7  O   UNL     1      -9.982  10.654  65.249  1.00  0.00    -0.255 OA 
HETATM    8  H   UNL     1     -12.538  14.919  65.005  1.00  0.00     0.000 HD 
HETATM    9  O   UNL     1     -12.762  13.425  63.010  1.00  0.00    -0.631 OA 
HETATM   10  N   UNL     1     -11.445  12.002  64.176  1.00  0.00    -0.365 N  
HETATM   11  H   UNL     1     -11.518  11.318  63.423  1.00  0.00     0.000 HD 
ENDROOT
BRANCH   3  12
HETATM   12  C   UNL     1     -11.568  14.813  67.364  1.00  0.00    -0.360 C  
BRANCH  12  13
HETATM   13  N   UNL     1     -10.477  15.788  67.374  1.00  0.00    -0.291 NA 
HETATM   14  C   UNL     1     -10.284  17.820  68.524  1.00  0.00    -0.382 C  
HETATM   15  C   UNL     1      -9.967  18.096  67.056  1.00  0.00    -0.341 C  
HETATM   16  C   UNL     1     -10.051  16.317  68.671  1.00  0.00    -0.233 C  
HETATM   17  C   UNL     1     -10.400  16.790  66.430  1.00  0.00    -0.306 C  
HETATM   18  N   UNL     1     -10.659  16.672  65.174  1.00  0.00    -0.676 NA 
HETATM   19  H2  UNL     1     -10.949  15.750  64.847  1.00  0.00     0.000 HD 
HETATM   20  H1  UNL     1     -10.602  17.413  64.475  1.00  0.00     0.000 HD 
ENDBRANCH  12  13
ENDBRANCH   3  12
TORSDOF 2
ENDMDL
MODEL       47
REMARK 921   NORMALIZED FREE ENERGY PREDICTED BY IDOCK:   -5.06 KCAL/MOL
REMARK 922        TOTAL FREE ENERGY PREDICTED BY IDOCK:   -6.00 KCAL/MOL
REMARK 923 INTER-LIGAND FREE ENERGY PREDICTED BY IDOCK:   -5.51 KCAL/MOL
REMARK 924 INTRA-LIGAND FREE ENERGY PREDICTED BY IDOCK:   -0.49 KCAL/MOL
REMARK 927      BINDING AFFINITY PREDICTED BY RF-SCORE:    0.00 PKD
ROOT
HETATM    1 CL   UNL     1     -11.474   8.202  70.802  1.00  0.00    -0.280 Cl 
HETATM    2  C   UNL     1     -12.048   9.815  70.985  1.00  0.00    -0.346 C  
HETATM    3  C   UNL     1     -11.578  10.873  70.297  1.00  0.00    -0.334 C  
HETATM    4  C   UNL     1     -13.132  10.038  71.989  1.00  0.00    -0.441 C  
HETATM    5  N   UNL     1     -12.081  12.131  70.574  1.00  0.00    -0.461 N  
HETATM    6  C   UNL     1     -13.006  12.417  71.532  1.00  0.00    -0.285 C  
HETATM    7  O   UNL     1     -13.695   9.120  72.579  1.00  0.00    -0.474 OA 
HETATM    8  H   UNL     1     -11.730  12.909  70.016  1.00  0.00     0.000 HD 
HETATM    9  O   UNL     1     -13.398  13.555  71.765  1.00  0.00    -0.380 OA 
HETATM   10  N   UNL     1     -13.472  11.342  72.230  1.00  0.00    -0.521 N  
HETATM   11  H   UNL     1     -14.127  11.524  72.991  1.00  0.00     0.000 HD 
ENDROOT
BRANCH   3  12
HETATM   12  C   UNL     1     -10.458  10.822  69.276  1.00  0.00    -0.217 C  
BRANCH  12  13
HETATM   13  N   UNL     1     -10.960  10.620  67.917  1.00  0.00    -0.273 NA 
HETATM   14  C   UNL     1      -9.809  10.065  65.954  1.00  0.00    -0.330 C  
HETATM   15  C   UNL     1     -10.667  11.290  65.647  1.00  0.00    -0.279 C  
HETATM   16  C   UNL     1     -10.477   9.449  67.182  1.00  0.00    -0.244 C  
HETATM   17  C   UNL     1     -11.107  11.674  67.041  1.00  0.00    -0.302 C  
HETATM   18  N   UNL     1     -11.551  12.848  67.332  1.00  0.00    -0.339 NA 
HETATM   19  H2  UNL     1     -11.818  13.013  68.303  1.00  0.00     0.000 HD 
HETATM   20  H1  UNL     1     -11.660  13.629  66.684  1.00  0.00     0.000 HD 
ENDBRANCH  12  13
ENDBRANCH   3  12
TORSDOF 2
ENDMDL
MODEL       48
REMARK 921   NORMALIZED FREE ENERGY PREDICTED BY IDOCK:   -5.05 KCAL/MOL
REMARK 922        TOTAL FREE ENERGY PREDICTED BY IDOCK:   -5.98 KCAL/MOL
REMARK 923 INTER-LIGAND FREE ENERGY PREDICTED BY IDOCK:   -5.59 KCAL/MOL
REMARK 924 INTRA-LIGAND FREE ENERGY PREDICTED BY IDOCK:   -0.39 KCAL/MOL
REMARK 927      BINDING AFFINITY PREDICTED BY RF-SCORE:    0.00 PKD
ROOT
HETATM    1 CL   UNL     1     -12.349  15.353  64.109  1.00  0.00    -0.228 Cl 
HETATM    2  C   UNL     1     -11.617  14.266  65.225  1.00  0.00    -0.348 C  
HETATM    3  C   UNL     1     -10.536  14.557  65.973  1.00  0.00    -0.308 C  
HETATM    4  C   UNL     1     -12.228  12.908  65.349  1.00  0.00    -0.478 C  
HETATM    5  N   UNL     1     -10.003  13.579  66.793  1.00  0.00    -0.262 N  
HETATM    6  C   UNL     1     -10.457  12.299  66.891  1.00  0.00    -0.217 C  
HETATM    7  O   UNL     1     -13.276  12.595  64.792  1.00  0.00    -0.846 OA 
HETATM    8  H   UNL     1      -9.204  13.838  67.372  1.00  0.00     0.000 HD 
HETATM    9  O   UNL     1      -9.931  11.455  67.608  1.00  0.00    -0.176 OA 
HETATM   10  N   UNL     1     -11.549  12.009  66.125  1.00  0.00    -0.354 N  
HETATM   11  H   UNL     1     -11.885  11.046  66.133  1.00  0.00     0.000 HD 
ENDROOT
BRANCH   3  12
HETATM   12  C   UNL     1      -9.777  15.870  65.936  1.00  0.00    -0.351 C  
BRANCH  12  13
HETATM   13  N   UNL     1     -10.495  16.942  66.625  1.00  0.00    -0.290 NA 
HETATM   14  C   UNL     1      -9.860  19.159  67.036  1.00  0.00    -0.407 C  
HETATM   15  C   UNL     1     -10.311  18.561  68.367  1.00  0.00    -0.359 C  
HETATM   16  C   UNL     1     -10.519  18.261  65.990  1.00  0.00    -0.361 C  
HETATM   17  C   UNL     1     -10.412  17.100  67.992  1.00  0.00    -0.369 C  
HETATM   18  N   UNL     1     -10.410  16.155  68.868  1.00  0.00    -0.235 NA 
HETATM   19  H2  UNL     1     -10.477  15.200  68.517  1.00  0.00     0.000 HD 
HETATM   20  H1  UNL     1     -10.349  16.272  69.880  1.00  0.00     0.000 HD 
ENDBRANCH  12  13
ENDBRANCH   3  12
TORSDOF 2
ENDMDL
MODEL       49
REMARK 921   NORMALIZED FREE ENERGY PREDICTED BY IDOCK:   -5.03 KCAL/MOL
REMARK 922        TOTAL FREE ENERGY PREDICTED BY IDOCK:   -5.97 KCAL/MOL
REMARK 923 INTER-LIGAND FREE ENERGY PREDICTED BY IDOCK:   -5.85 KCAL/MOL
REMARK 924 INTRA-LIGAND FREE ENERGY PREDICTED BY IDOCK:   -0.11 KCAL/MOL
REMARK 927      BINDING AFFINITY PREDICTED BY RF-SCORE:    0.00 PKD
ROOT
HETATM    1 CL   UNL     1     -12.128  13.767  64.227  1.00  0.00    -0.476 Cl 
HETATM    2  C   UNL     1     -11.067  14.616  65.285  1.00  0.00    -0.360 C  
HETATM    3  C   UNL     1     -10.408  14.053  66.315  1.00  0.00    -0.293 C  
HETATM    4  C   UNL     1     -10.889  16.078  65.036  1.00  0.00    -0.404 C  
HETATM    5  N   UNL     1      -9.628  14.851  67.131  1.00  0.00    -0.221 N  
HETATM    6  C   UNL     1      -9.488  16.200  67.013  1.00  0.00    -0.222 C  
HETATM    7  O   UNL     1     -11.360  16.651  64.057  1.00  0.00    -1.120 OA 
HETATM    8  H   UNL     1      -9.115  14.392  67.883  1.00  0.00     0.000 HD 
HETATM    9  O   UNL     1      -8.810  16.874  67.781  1.00  0.00    -0.212 OA 
HETATM   10  N   UNL     1     -10.164  16.766  65.971  1.00  0.00    -0.347 N  
HETATM   11  H   UNL     1     -10.125  17.781  65.882  1.00  0.00     0.000 HD 
ENDROOT
BRANCH   3  12
HETATM   12  C   UNL     1     -10.511  12.596  66.725  1.00  0.00    -0.240 C  
BRANCH  12  13
HETATM   13  N   UNL     1     -10.519  12.431  68.179  1.00  0.00    -0.213 NA 
HETATM   14  C   UNL     1     -11.189  10.606  69.484  1.00  0.00    -0.331 C  
HETATM   15  C   UNL     1     -11.897  11.842  70.033  1.00  0.00    -0.422 C  
HETATM   16  C   UNL     1      -9.994  11.177  68.723  1.00  0.00    -0.198 C  
HETATM   17  C   UNL     1     -11.590  12.843  68.943  1.00  0.00    -0.315 C  
HETATM   18  N   UNL     1     -12.269  13.925  68.780  1.00  0.00    -0.481 NA 
HETATM   19  H2  UNL     1     -11.988  14.535  68.013  1.00  0.00     0.000 HD 
HETATM   20  H1  UNL     1     -13.061  14.230  69.346  1.00  0.00     0.000 HD 
ENDBRANCH  12  13
ENDBRANCH   3  12
TORSDOF 2
ENDMDL
MODEL       50
REMARK 921   NORMALIZED FREE ENERGY PREDICTED BY IDOCK:   -5.03 KCAL/MOL
REMARK 922        TOTAL FREE ENERGY PREDICTED BY IDOCK:   -5.96 KCAL/MOL
REMARK 923 INTER-LIGAND FREE ENERGY PREDICTED BY IDOCK:   -5.53 KCAL/MOL
REMARK 924 INTRA-LIGAND FREE ENERGY PREDICTED BY IDOCK:   -0.44 KCAL/MOL
REMARK 927      BINDING AFFINITY PREDICTED BY RF-SCORE:    0.00 PKD
ROOT
HETATM    1 CL   UNL     1     -12.150  13.820  66.852  1.00  0.00    -0.458 Cl 
HETATM    2  C   UNL     1     -11.406  12.892  65.608  1.00  0.00    -0.311 C  
HETATM    3  C   UNL     1     -10.501  11.918  65.821  1.00  0.00    -0.256 C  
HETATM    4  C   UNL     1     -11.793  13.214  64.200  1.00  0.00    -0.429 C  
HETATM    5  N   UNL     1      -9.930  11.281  64.734  1.00  0.00    -0.260 N  
HETATM    6  C   UNL     1     -10.173  11.580  63.429  1.00  0.00    -0.420 C  
HETATM    7  O   UNL     1     -12.687  14.006  63.918  1.00  0.00    -0.670 OA 
HETATM    8  H   UNL     1      -9.273  10.526  64.927  1.00  0.00     0.000 HD 
HETATM    9  O   UNL     1      -9.617  11.010  62.496  1.00  0.00    -0.266 OA 
HETATM   10  N   UNL     1     -11.085  12.573  63.219  1.00  0.00    -0.701 N  
HETATM   11  H   UNL     1     -11.253  12.861  62.255  1.00  0.00     0.000 HD 
ENDROOT
BRANCH   3  12
HETATM   12  C   UNL     1      -9.975  11.499  67.180  1.00  0.00    -0.199 C  
BRANCH  12  13
HETATM   13  N   UNL     1     -10.770  10.422  67.772  1.00  0.00    -0.257 NA 
HETATM   14  C   UNL     1     -10.539   9.340  69.836  1.00  0.00    -0.246 C  
HETATM   15  C   UNL     1     -10.627   8.258  68.762  1.00  0.00    -0.152 C  
HETATM   16  C   UNL     1     -11.169  10.564  69.174  1.00  0.00    -0.256 C  
HETATM   17  C   UNL     1     -10.490   9.097  67.513  1.00  0.00    -0.270 C  
HETATM   18  N   UNL     1     -10.147   8.601  66.375  1.00  0.00    -0.375 NA 
HETATM   19  H2  UNL     1     -10.077   9.250  65.591  1.00  0.00     0.000 HD 
HETATM   20  H1  UNL     1      -9.940   7.620  66.183  1.00  0.00     0.000 HD 
ENDBRANCH  12  13
ENDBRANCH   3  12
TORSDOF 2
ENDMDL
MODEL       51
REMARK 921   NORMALIZED FREE ENERGY PREDICTED BY IDOCK:   -5.03 KCAL/MOL
REMARK 922        TOTAL FREE ENERGY PREDICTED BY IDOCK:   -5.96 KCAL/MOL
REMARK 923 INTER-LIGAND FREE ENERGY PREDICTED BY IDOCK:   -5.47 KCAL/MOL
REMARK 924 INTRA-LIGAND FREE ENERGY PREDICTED BY IDOCK:   -0.49 KCAL/MOL
REMARK 927      BINDING AFFINITY PREDICTED BY RF-SCORE:    0.00 PKD
ROOT
HETATM    1 CL   UNL     1     -12.880  15.406  70.607  1.00  0.00    -0.489 Cl 
HETATM    2  C   UNL     1     -12.749  13.706  70.846  1.00  0.00    -0.310 C  
HETATM    3  C   UNL     1     -12.200  12.853  69.960  1.00  0.00    -0.222 C  
HETATM    4  C   UNL     1     -13.300  13.157  72.121  1.00  0.00    -0.524 C  
HETATM    5  N   UNL     1     -12.204  11.499  70.240  1.00  0.00    -0.339 N  
HETATM    6  C   UNL     1     -12.762  10.924  71.341  1.00  0.00    -0.434 C  
HETATM    7  O   UNL     1     -13.715  13.870  73.030  1.00  0.00    -0.600 OA 
HETATM    8  H   UNL     1     -11.752  10.880  69.567  1.00  0.00     0.000 HD 
HETATM    9  O   UNL     1     -12.771   9.713  71.531  1.00  0.00    -0.334 OA 
HETATM   10  N   UNL     1     -13.323  11.793  72.231  1.00  0.00    -0.545 N  
HETATM   11  H   UNL     1     -13.797  11.394  73.041  1.00  0.00     0.000 HD 
ENDROOT
BRANCH   3  12
HETATM   12  C   UNL     1     -11.635  13.243  68.608  1.00  0.00    -0.327 C  
BRANCH  12  13
HETATM   13  N   UNL     1     -10.204  13.544  68.674  1.00  0.00    -0.221 NA 
HETATM   14  C   UNL     1      -8.779  14.450  67.050  1.00  0.00    -0.244 C  
HETATM   15  C   UNL     1      -8.117  13.179  67.579  1.00  0.00    -0.181 C  
HETATM   16  C   UNL     1      -9.757  14.839  68.157  1.00  0.00    -0.217 C  
HETATM   17  C   UNL     1      -9.255  12.588  68.379  1.00  0.00    -0.139 C  
HETATM   18  N   UNL     1      -9.297  11.346  68.717  1.00  0.00    -0.343 NA 
HETATM   19  H2  UNL     1     -10.109  11.040  69.253  1.00  0.00     0.000 HD 
HETATM   20  H1  UNL     1      -8.594  10.638  68.499  1.00  0.00     0.000 HD 
ENDBRANCH  12  13
ENDBRANCH   3  12
TORSDOF 2
ENDMDL
MODEL       52
REMARK 921   NORMALIZED FREE ENERGY PREDICTED BY IDOCK:   -5.01 KCAL/MOL
REMARK 922        TOTAL FREE ENERGY PREDICTED BY IDOCK:   -5.94 KCAL/MOL
REMARK 923 INTER-LIGAND FREE ENERGY PREDICTED BY IDOCK:   -5.58 KCAL/MOL
REMARK 924 INTRA-LIGAND FREE ENERGY PREDICTED BY IDOCK:   -0.37 KCAL/MOL
REMARK 927      BINDING AFFINITY PREDICTED BY RF-SCORE:    0.00 PKD
ROOT
HETATM    1 CL   UNL     1      -8.707  16.812  66.264  1.00  0.00    -0.339 Cl 
HETATM    2  C   UNL     1      -9.784  16.286  67.500  1.00  0.00    -0.234 C  
HETATM    3  C   UNL     1     -10.075  14.997  67.758  1.00  0.00    -0.234 C  
HETATM    4  C   UNL     1     -10.441  17.347  68.322  1.00  0.00    -0.385 C  
HETATM    5  N   UNL     1     -11.002  14.702  68.741  1.00  0.00    -0.248 N  
HETATM    6  C   UNL     1     -11.699  15.618  69.469  1.00  0.00    -0.370 C  
HETATM    7  O   UNL     1     -10.151  18.537  68.231  1.00  0.00    -0.354 OA 
HETATM    8  H   UNL     1     -11.179  13.717  68.938  1.00  0.00     0.000 HD 
HETATM    9  O   UNL     1     -12.537  15.310  70.308  1.00  0.00    -0.370 OA 
HETATM   10  N   UNL     1     -11.404  16.923  69.197  1.00  0.00    -0.168 N  
HETATM   11  H   UNL     1     -11.943  17.638  69.685  1.00  0.00     0.000 HD 
ENDROOT
BRANCH   3  12
HETATM   12  C   UNL     1      -9.527  13.808  66.993  1.00  0.00    -0.255 C  
BRANCH  12  13
HETATM   13  N   UNL     1     -10.433  13.371  65.931  1.00  0.00    -0.282 NA 
HETATM   14  C   UNL     1     -12.089  14.560  64.778  1.00  0.00    -0.454 C  
HETATM   15  C   UNL     1     -12.727  13.271  65.289  1.00  0.00    -0.474 C  
HETATM   16  C   UNL     1     -10.593  14.249  64.770  1.00  0.00    -0.412 C  
HETATM   17  C   UNL     1     -11.643  12.775  66.218  1.00  0.00    -0.379 C  
HETATM   18  N   UNL     1     -11.864  11.913  67.149  1.00  0.00    -0.620 NA 
HETATM   19  H2  UNL     1     -11.068  11.644  67.728  1.00  0.00     0.000 HD 
HETATM   20  H1  UNL     1     -12.760  11.472  67.361  1.00  0.00     0.000 HD 
ENDBRANCH  12  13
ENDBRANCH   3  12
TORSDOF 2
ENDMDL
MODEL       53
REMARK 921   NORMALIZED FREE ENERGY PREDICTED BY IDOCK:   -5.00 KCAL/MOL
REMARK 922        TOTAL FREE ENERGY PREDICTED BY IDOCK:   -5.93 KCAL/MOL
REMARK 923 INTER-LIGAND FREE ENERGY PREDICTED BY IDOCK:   -5.67 KCAL/MOL
REMARK 924 INTRA-LIGAND FREE ENERGY PREDICTED BY IDOCK:   -0.26 KCAL/MOL
REMARK 927      BINDING AFFINITY PREDICTED BY RF-SCORE:    0.00 PKD
ROOT
HETATM    1 CL   UNL     1      -7.983  10.548  65.228  1.00  0.00    -0.142 Cl 
HETATM    2  C   UNL     1      -9.489  11.175  64.680  1.00  0.00    -0.213 C  
HETATM    3  C   UNL     1     -10.284  11.987  65.403  1.00  0.00    -0.263 C  
HETATM    4  C   UNL     1      -9.936  10.767  63.314  1.00  0.00    -0.315 C  
HETATM    5  N   UNL     1     -11.501  12.380  64.876  1.00  0.00    -0.322 N  
HETATM    6  C   UNL     1     -12.006  11.979  63.676  1.00  0.00    -0.515 C  
HETATM    7  O   UNL     1      -9.229  10.122  62.545  1.00  0.00    -0.260 OA 
HETATM    8  H   UNL     1     -12.067  13.021  65.431  1.00  0.00     0.000 HD 
HETATM    9  O   UNL     1     -13.107  12.327  63.264  1.00  0.00    -0.668 OA 
HETATM   10  N   UNL     1     -11.199  11.150  62.952  1.00  0.00    -0.700 N  
HETATM   11  H   UNL     1     -11.567  10.788  62.073  1.00  0.00     0.000 HD 
ENDROOT
BRANCH   3  12
HETATM   12  C   UNL     1      -9.996  12.459  66.815  1.00  0.00    -0.225 C  
BRANCH  12  13
HETATM   13  N   UNL     1     -11.193  12.445  67.656  1.00  0.00    -0.269 NA 
HETATM   14  C   UNL     1     -11.473  13.095  69.889  1.00  0.00    -0.159 C  
HETATM   15  C   UNL     1     -12.056  11.692  69.747  1.00  0.00    -0.357 C  
HETATM   16  C   UNL     1     -11.472  13.637  68.460  1.00  0.00    -0.312 C  
HETATM   17  C   UNL     1     -11.557  11.323  68.369  1.00  0.00    -0.308 C  
HETATM   18  N   UNL     1     -11.489  10.104  67.956  1.00  0.00    -0.643 NA 
HETATM   19  H2  UNL     1     -11.134   9.956  67.012  1.00  0.00     0.000 HD 
HETATM   20  H1  UNL     1     -11.759   9.274  68.484  1.00  0.00     0.000 HD 
ENDBRANCH  12  13
ENDBRANCH   3  12
TORSDOF 2
ENDMDL
MODEL       54
REMARK 921   NORMALIZED FREE ENERGY PREDICTED BY IDOCK:   -4.99 KCAL/MOL
REMARK 922        TOTAL FREE ENERGY PREDICTED BY IDOCK:   -5.92 KCAL/MOL
REMARK 923 INTER-LIGAND FREE ENERGY PREDICTED BY IDOCK:   -5.56 KCAL/MOL
REMARK 924 INTRA-LIGAND FREE ENERGY PREDICTED BY IDOCK:   -0.36 KCAL/MOL
REMARK 927      BINDING AFFINITY PREDICTED BY RF-SCORE:    0.00 PKD
ROOT
HETATM    1 CL   UNL     1     -11.241  11.678  66.946  1.00  0.00    -0.364 Cl 
HETATM    2  C   UNL     1     -11.758  12.588  68.313  1.00  0.00    -0.340 C  
HETATM    3  C   UNL     1     -11.927  13.924  68.319  1.00  0.00    -0.357 C  
HETATM    4  C   UNL     1     -12.019  11.828  69.573  1.00  0.00    -0.300 C  
HETATM    5  N   UNL     1     -12.291  14.550  69.497  1.00  0.00    -0.520 N  
HETATM    6  C   UNL     1     -12.463  13.932  70.698  1.00  0.00    -0.366 C  
HETATM    7  O   UNL     1     -11.999  10.602  69.630  1.00  0.00    -0.290 OA 
HETATM    8  H   UNL     1     -12.443  15.558  69.463  1.00  0.00     0.000 HD 
HETATM    9  O   UNL     1     -12.754  14.534  71.725  1.00  0.00    -0.317 OA 
HETATM   10  N   UNL     1     -12.283  12.579  70.687  1.00  0.00    -0.437 N  
HETATM   11  H   UNL     1     -12.352  12.089  71.578  1.00  0.00     0.000 HD 
ENDROOT
BRANCH   3  12
HETATM   12  C   UNL     1     -11.667  14.841  67.139  1.00  0.00    -0.334 C  
BRANCH  12  13
HETATM   13  N   UNL     1     -10.445  15.628  67.311  1.00  0.00    -0.286 NA 
HETATM   14  C   UNL     1      -9.836  17.687  66.375  1.00  0.00    -0.315 C  
HETATM   15  C   UNL     1      -8.684  16.715  66.127  1.00  0.00    -0.322 C  
HETATM   16  C   UNL     1     -10.591  17.065  67.549  1.00  0.00    -0.310 C  
HETATM   17  C   UNL     1      -9.334  15.410  66.525  1.00  0.00    -0.282 C  
HETATM   18  N   UNL     1      -8.879  14.264  66.152  1.00  0.00    -0.422 NA 
HETATM   19  H2  UNL     1      -9.390  13.439  66.468  1.00  0.00     0.000 HD 
HETATM   20  H1  UNL     1      -8.057  14.103  65.570  1.00  0.00     0.000 HD 
ENDBRANCH  12  13
ENDBRANCH   3  12
TORSDOF 2
ENDMDL
MODEL       55
REMARK 921   NORMALIZED FREE ENERGY PREDICTED BY IDOCK:   -4.99 KCAL/MOL
REMARK 922        TOTAL FREE ENERGY PREDICTED BY IDOCK:   -5.92 KCAL/MOL
REMARK 923 INTER-LIGAND FREE ENERGY PREDICTED BY IDOCK:   -5.82 KCAL/MOL
REMARK 924 INTRA-LIGAND FREE ENERGY PREDICTED BY IDOCK:   -0.10 KCAL/MOL
REMARK 927      BINDING AFFINITY PREDICTED BY RF-SCORE:    0.00 PKD
ROOT
HETATM    1 CL   UNL     1     -11.372  10.536  69.420  1.00  0.00    -0.306 Cl 
HETATM    2  C   UNL     1     -12.142  11.744  70.374  1.00  0.00    -0.352 C  
HETATM    3  C   UNL     1     -12.106  13.064  70.105  1.00  0.00    -0.307 C  
HETATM    4  C   UNL     1     -12.884  11.281  71.585  1.00  0.00    -0.405 C  
HETATM    5  N   UNL     1     -12.717  13.944  70.980  1.00  0.00    -0.350 N  
HETATM    6  C   UNL     1     -13.336  13.599  72.142  1.00  0.00    -0.494 C  
HETATM    7  O   UNL     1     -13.063  10.094  71.845  1.00  0.00    -0.426 OA 
HETATM    8  H   UNL     1     -12.701  14.934  70.734  1.00  0.00     0.000 HD 
HETATM    9  O   UNL     1     -13.835  14.418  72.905  1.00  0.00    -0.589 OA 
HETATM   10  N   UNL     1     -13.363  12.261  72.412  1.00  0.00    -0.519 N  
HETATM   11  H   UNL     1     -13.772  11.969  73.299  1.00  0.00     0.000 HD 
ENDROOT
BRANCH   3  12
HETATM   12  C   UNL     1     -11.367  13.697  68.943  1.00  0.00    -0.290 C  
BRANCH  12  13
HETATM   13  N   UNL     1     -10.838  15.020  69.281  1.00  0.00    -0.251 NA 
HETATM   14  C   UNL     1     -10.676  16.956  67.973  1.00  0.00    -0.364 C  
HETATM   15  C   UNL     1      -9.300  16.703  68.584  1.00  0.00    -0.247 C  
HETATM   16  C   UNL     1     -11.628  16.188  68.887  1.00  0.00    -0.298 C  
HETATM   17  C   UNL     1      -9.498  15.314  69.145  1.00  0.00    -0.236 C  
HETATM   18  N   UNL     1      -8.515  14.535  69.439  1.00  0.00    -0.380 NA 
HETATM   19  H2  UNL     1      -8.751  13.613  69.808  1.00  0.00     0.000 HD 
HETATM   20  H1  UNL     1      -7.523  14.753  69.339  1.00  0.00     0.000 HD 
ENDBRANCH  12  13
ENDBRANCH   3  12
TORSDOF 2
ENDMDL
MODEL       56
REMARK 921   NORMALIZED FREE ENERGY PREDICTED BY IDOCK:   -4.96 KCAL/MOL
REMARK 922        TOTAL FREE ENERGY PREDICTED BY IDOCK:   -5.89 KCAL/MOL
REMARK 923 INTER-LIGAND FREE ENERGY PREDICTED BY IDOCK:   -5.62 KCAL/MOL
REMARK 924 INTRA-LIGAND FREE ENERGY PREDICTED BY IDOCK:   -0.27 KCAL/MOL
REMARK 927      BINDING AFFINITY PREDICTED BY RF-SCORE:    0.00 PKD
ROOT
HETATM    1 CL   UNL     1     -12.529  14.859  64.118  1.00  0.00    -0.318 Cl 
HETATM    2  C   UNL     1     -11.534  13.476  64.361  1.00  0.00    -0.394 C  
HETATM    3  C   UNL     1     -10.409  13.469  65.102  1.00  0.00    -0.353 C  
HETATM    4  C   UNL     1     -11.954  12.211  63.685  1.00  0.00    -0.534 C  
HETATM    5  N   UNL     1      -9.661  12.308  65.176  1.00  0.00    -0.454 N  
HETATM    6  C   UNL     1      -9.939  11.148  64.519  1.00  0.00    -0.296 C  
HETATM    7  O   UNL     1     -13.018  12.098  63.084  1.00  0.00    -0.659 OA 
HETATM    8  H   UNL     1      -8.832  12.322  65.770  1.00  0.00     0.000 HD 
HETATM    9  O   UNL     1      -9.227  10.152  64.588  1.00  0.00    -0.208 OA 
HETATM   10  N   UNL     1     -11.076  11.164  63.765  1.00  0.00    -0.522 N  
HETATM   11  H   UNL     1     -11.288  10.330  63.217  1.00  0.00     0.000 HD 
ENDROOT
BRANCH   3  12
HETATM   12  C   UNL     1      -9.827  14.673  65.816  1.00  0.00    -0.328 C  
BRANCH  12  13
HETATM   13  N   UNL     1     -10.038  14.611  67.263  1.00  0.00    -0.236 NA 
HETATM   14  C   UNL     1     -11.605  15.720  68.605  1.00  0.00    -0.392 C  
HETATM   15  C   UNL     1     -10.230  15.946  69.230  1.00  0.00    -0.250 C  
HETATM   16  C   UNL     1     -11.414  14.473  67.744  1.00  0.00    -0.340 C  
HETATM   17  C   UNL     1      -9.337  15.426  68.126  1.00  0.00    -0.197 C  
HETATM   18  N   UNL     1      -8.089  15.734  68.038  1.00  0.00    -0.138 NA 
HETATM   19  H2  UNL     1      -7.571  15.337  67.254  1.00  0.00     0.000 HD 
HETATM   20  H1  UNL     1      -7.571  16.337  68.677  1.00  0.00     0.000 HD 
ENDBRANCH  12  13
ENDBRANCH   3  12
TORSDOF 2
ENDMDL
MODEL       57
REMARK 921   NORMALIZED FREE ENERGY PREDICTED BY IDOCK:   -4.96 KCAL/MOL
REMARK 922        TOTAL FREE ENERGY PREDICTED BY IDOCK:   -5.88 KCAL/MOL
REMARK 923 INTER-LIGAND FREE ENERGY PREDICTED BY IDOCK:   -5.55 KCAL/MOL
REMARK 924 INTRA-LIGAND FREE ENERGY PREDICTED BY IDOCK:   -0.34 KCAL/MOL
REMARK 927      BINDING AFFINITY PREDICTED BY RF-SCORE:    0.00 PKD
ROOT
HETATM    1 CL   UNL     1      -8.420  16.258  68.612  1.00  0.00    -0.209 Cl 
HETATM    2  C   UNL     1      -9.449  16.290  67.232  1.00  0.00    -0.227 C  
HETATM    3  C   UNL     1      -9.805  15.202  66.523  1.00  0.00    -0.262 C  
HETATM    4  C   UNL     1      -9.961  17.625  66.799  1.00  0.00    -0.320 C  
HETATM    5  N   UNL     1     -10.593  15.362  65.397  1.00  0.00    -0.380 N  
HETATM    6  C   UNL     1     -11.023  16.553  64.899  1.00  0.00    -0.209 C  
HETATM    7  O   UNL     1      -9.780  18.652  67.448  1.00  0.00    -0.295 OA 
HETATM    8  H   UNL     1     -10.873  14.518  64.899  1.00  0.00     0.000 HD 
HETATM    9  O   UNL     1     -11.693  16.649  63.877  1.00  0.00    -1.153 OA 
HETATM   10  N   UNL     1     -10.653  17.653  65.619  1.00  0.00    -0.251 N  
HETATM   11  H   UNL     1     -10.913  18.566  65.247  1.00  0.00     0.000 HD 
ENDROOT
BRANCH   3  12
HETATM   12  C   UNL     1      -9.341  13.786  66.805  1.00  0.00    -0.266 C  
BRANCH  12  13
HETATM   13  N   UNL     1     -10.313  12.787  66.359  1.00  0.00    -0.254 NA 
HETATM   14  C   UNL     1     -10.447  10.498  66.835  1.00  0.00    -0.303 C  
HETATM   15  C   UNL     1     -10.526  10.653  65.318  1.00  0.00    -0.264 C  
HETATM   16  C   UNL     1     -10.857  11.872  67.363  1.00  0.00    -0.243 C  
HETATM   17  C   UNL     1     -10.151  12.109  65.169  1.00  0.00    -0.261 C  
HETATM   18  N   UNL     1      -9.733  12.611  64.059  1.00  0.00    -0.649 NA 
HETATM   19  H2  UNL     1      -9.500  13.604  64.060  1.00  0.00     0.000 HD 
HETATM   20  H1  UNL     1      -9.613  12.109  63.179  1.00  0.00     0.000 HD 
ENDBRANCH  12  13
ENDBRANCH   3  12
TORSDOF 2
ENDMDL
MODEL       58
REMARK 921   NORMALIZED FREE ENERGY PREDICTED BY IDOCK:   -4.96 KCAL/MOL
REMARK 922        TOTAL FREE ENERGY PREDICTED BY IDOCK:   -5.88 KCAL/MOL
REMARK 923 INTER-LIGAND FREE ENERGY PREDICTED BY IDOCK:   -5.51 KCAL/MOL
REMARK 924 INTRA-LIGAND FREE ENERGY PREDICTED BY IDOCK:   -0.37 KCAL/MOL
REMARK 927      BINDING AFFINITY PREDICTED BY RF-SCORE:    0.00 PKD
ROOT
HETATM    1 CL   UNL     1      -9.757   6.776  69.724  1.00  0.00    -0.159 Cl 
HETATM    2  C   UNL     1     -10.388   8.331  69.342  1.00  0.00    -0.222 C  
HETATM    3  C   UNL     1     -10.767   9.245  70.256  1.00  0.00    -0.243 C  
HETATM    4  C   UNL     1     -10.532   8.667  67.893  1.00  0.00    -0.209 C  
HETATM    5  N   UNL     1     -11.314  10.440  69.825  1.00  0.00    -0.270 N  
HETATM    6  C   UNL     1     -11.551  10.776  68.527  1.00  0.00    -0.255 C  
HETATM    7  O   UNL     1     -10.111   7.944  66.995  1.00  0.00    -0.221 OA 
HETATM    8  H   UNL     1     -11.561  11.125  70.538  1.00  0.00     0.000 HD 
HETATM    9  O   UNL     1     -12.070  11.835  68.193  1.00  0.00    -0.556 OA 
HETATM   10  N   UNL     1     -11.171   9.843  67.606  1.00  0.00    -0.435 N  
HETATM   11  H   UNL     1     -11.381  10.037  66.627  1.00  0.00     0.000 HD 
ENDROOT
BRANCH   3  12
HETATM   12  C   UNL     1     -10.724   9.045  71.759  1.00  0.00    -0.367 C  
BRANCH  12  13
HETATM   13  N   UNL     1     -11.996   8.552  72.287  1.00  0.00    -0.380 NA 
HETATM   14  C   UNL     1     -13.560   7.094  71.332  1.00  0.00    -0.368 C  
HETATM   15  C   UNL     1     -14.319   8.335  71.795  1.00  0.00    -0.574 C  
HETATM   16  C   UNL     1     -12.276   7.121  72.159  1.00  0.00    -0.218 C  
HETATM   17  C   UNL     1     -13.167   9.259  72.115  1.00  0.00    -0.461 C  
HETATM   18  N   UNL     1     -13.304  10.538  72.201  1.00  0.00    -0.569 NA 
HETATM   19  H2  UNL     1     -12.465  11.078  72.416  1.00  0.00     0.000 HD 
HETATM   20  H1  UNL     1     -14.170  11.060  72.073  1.00  0.00     0.000 HD 
ENDBRANCH  12  13
ENDBRANCH   3  12
TORSDOF 2
ENDMDL
MODEL       59
REMARK 921   NORMALIZED FREE ENERGY PREDICTED BY IDOCK:   -4.94 KCAL/MOL
REMARK 922        TOTAL FREE ENERGY PREDICTED BY IDOCK:   -5.87 KCAL/MOL
REMARK 923 INTER-LIGAND FREE ENERGY PREDICTED BY IDOCK:   -5.41 KCAL/MOL
REMARK 924 INTRA-LIGAND FREE ENERGY PREDICTED BY IDOCK:   -0.45 KCAL/MOL
REMARK 927      BINDING AFFINITY PREDICTED BY RF-SCORE:    0.00 PKD
ROOT
HETATM    1 CL   UNL     1     -11.558  14.963  71.274  1.00  0.00    -0.371 Cl 
HETATM    2  C   UNL     1     -11.624  14.264  69.703  1.00  0.00    -0.296 C  
HETATM    3  C   UNL     1     -11.457  14.951  68.557  1.00  0.00    -0.315 C  
HETATM    4  C   UNL     1     -11.901  12.798  69.624  1.00  0.00    -0.317 C  
HETATM    5  N   UNL     1     -11.590  14.288  67.350  1.00  0.00    -0.350 N  
HETATM    6  C   UNL     1     -11.923  12.976  67.204  1.00  0.00    -0.329 C  
HETATM    7  O   UNL     1     -11.957  12.075  70.615  1.00  0.00    -0.331 OA 
HETATM    8  H   UNL     1     -11.426  14.826  66.500  1.00  0.00     0.000 HD 
HETATM    9  O   UNL     1     -12.063  12.438  66.112  1.00  0.00    -0.611 OA 
HETATM   10  N   UNL     1     -12.099  12.287  68.369  1.00  0.00    -0.193 N  
HETATM   11  H   UNL     1     -12.400  11.316  68.300  1.00  0.00     0.000 HD 
ENDROOT
BRANCH   3  12
HETATM   12  C   UNL     1     -11.210  16.444  68.463  1.00  0.00    -0.334 C  
BRANCH  12  13
HETATM   13  N   UNL     1      -9.894  16.752  67.900  1.00  0.00    -0.251 NA 
HETATM   14  C   UNL     1      -8.658  18.740  67.960  1.00  0.00    -0.324 C  
HETATM   15  C   UNL     1      -8.718  18.285  66.503  1.00  0.00    -0.290 C  
HETATM   16  C   UNL     1      -8.941  17.465  68.752  1.00  0.00    -0.219 C  
HETATM   17  C   UNL     1      -9.753  17.188  66.600  1.00  0.00    -0.276 C  
HETATM   18  N   UNL     1     -10.400  16.749  65.576  1.00  0.00    -0.606 NA 
HETATM   19  H2  UNL     1     -11.082  16.009  65.744  1.00  0.00     0.000 HD 
HETATM   20  H1  UNL     1     -10.296  17.072  64.614  1.00  0.00     0.000 HD 
ENDBRANCH  12  13
ENDBRANCH   3  12
TORSDOF 2
ENDMDL
MODEL       60
REMARK 921   NORMALIZED FREE ENERGY PREDICTED BY IDOCK:   -4.94 KCAL/MOL
REMARK 922        TOTAL FREE ENERGY PREDICTED BY IDOCK:   -5.86 KCAL/MOL
REMARK 923 INTER-LIGAND FREE ENERGY PREDICTED BY IDOCK:   -5.52 KCAL/MOL
REMARK 924 INTRA-LIGAND FREE ENERGY PREDICTED BY IDOCK:   -0.34 KCAL/MOL
REMARK 927      BINDING AFFINITY PREDICTED BY RF-SCORE:    0.00 PKD
ROOT
HETATM    1 CL   UNL     1      -8.213  15.493  69.339  1.00  0.00    -0.252 Cl 
HETATM    2  C   UNL     1      -8.973  16.849  68.600  1.00  0.00    -0.266 C  
HETATM    3  C   UNL     1     -10.266  16.887  68.226  1.00  0.00    -0.318 C  
HETATM    4  C   UNL     1      -8.121  18.052  68.352  1.00  0.00    -0.298 C  
HETATM    5  N   UNL     1     -10.748  18.015  67.588  1.00  0.00    -0.398 N  
HETATM    6  C   UNL     1     -10.009  19.110  67.256  1.00  0.00    -0.356 C  
HETATM    7  O   UNL     1      -6.967  18.147  68.759  1.00  0.00    -0.253 OA 
HETATM    8  H   UNL     1     -11.739  18.028  67.345  1.00  0.00     0.000 HD 
HETATM    9  O   UNL     1     -10.473  20.075  66.659  1.00  0.00    -0.449 OA 
HETATM   10  N   UNL     1      -8.698  19.062  67.632  1.00  0.00    -0.286 N  
HETATM   11  H   UNL     1      -8.102  19.841  67.354  1.00  0.00     0.000 HD 
ENDROOT
BRANCH   3  12
HETATM   12  C   UNL     1     -11.249  15.742  68.370  1.00  0.00    -0.362 C  
BRANCH  12  13
HETATM   13  N   UNL     1     -10.958  14.644  67.447  1.00  0.00    -0.299 NA 
HETATM   14  C   UNL     1     -12.333  13.605  65.861  1.00  0.00    -0.516 C  
HETATM   15  C   UNL     1     -11.712  12.503  66.717  1.00  0.00    -0.453 C  
HETATM   16  C   UNL     1     -11.393  14.793  66.056  1.00  0.00    -0.332 C  
HETATM   17  C   UNL     1     -11.102  13.327  67.828  1.00  0.00    -0.265 C  
HETATM   18  N   UNL     1     -10.780  12.826  68.970  1.00  0.00    -0.415 NA 
HETATM   19  H2  UNL     1     -10.380  13.465  69.657  1.00  0.00     0.000 HD 
HETATM   20  H1  UNL     1     -10.887  11.852  69.251  1.00  0.00     0.000 HD 
ENDBRANCH  12  13
ENDBRANCH   3  12
TORSDOF 2
ENDMDL
MODEL       61
REMARK 921   NORMALIZED FREE ENERGY PREDICTED BY IDOCK:   -4.93 KCAL/MOL
REMARK 922        TOTAL FREE ENERGY PREDICTED BY IDOCK:   -5.85 KCAL/MOL
REMARK 923 INTER-LIGAND FREE ENERGY PREDICTED BY IDOCK:   -5.55 KCAL/MOL
REMARK 924 INTRA-LIGAND FREE ENERGY PREDICTED BY IDOCK:   -0.29 KCAL/MOL
REMARK 927      BINDING AFFINITY PREDICTED BY RF-SCORE:    0.00 PKD
ROOT
HETATM    1 CL   UNL     1      -8.674   8.558  72.110  1.00  0.00    -0.272 Cl 
HETATM    2  C   UNL     1     -10.371   8.560  71.820  1.00  0.00    -0.284 C  
HETATM    3  C   UNL     1     -10.973   9.247  70.831  1.00  0.00    -0.299 C  
HETATM    4  C   UNL     1     -11.217   7.750  72.747  1.00  0.00    -0.398 C  
HETATM    5  N   UNL     1     -12.353   9.215  70.735  1.00  0.00    -0.488 N  
HETATM    6  C   UNL     1     -13.188   8.568  71.593  1.00  0.00    -0.343 C  
HETATM    7  O   UNL     1     -10.746   7.007  73.604  1.00  0.00    -0.362 OA 
HETATM    8  H   UNL     1     -12.779   9.718  69.957  1.00  0.00     0.000 HD 
HETATM    9  O   UNL     1     -14.409   8.595  71.488  1.00  0.00    -0.410 OA 
HETATM   10  N   UNL     1     -12.572   7.879  72.597  1.00  0.00    -0.569 N  
HETATM   11  H   UNL     1     -13.167   7.426  73.290  1.00  0.00     0.000 HD 
ENDROOT
BRANCH   3  12
HETATM   12  C   UNL     1     -10.265  10.144  69.835  1.00  0.00    -0.237 C  
BRANCH  12  13
HETATM   13  N   UNL     1     -11.197  10.775  68.900  1.00  0.00    -0.247 NA 
HETATM   14  C   UNL     1     -10.859  11.515  66.704  1.00  0.00    -0.335 C  
HETATM   15  C   UNL     1     -11.499  12.665  67.478  1.00  0.00    -0.397 C  
HETATM   16  C   UNL     1     -11.220  10.278  67.523  1.00  0.00    -0.117 C  
HETATM   17  C   UNL     1     -11.391  12.140  68.891  1.00  0.00    -0.283 C  
HETATM   18  N   UNL     1     -11.470  12.904  69.925  1.00  0.00    -0.515 NA 
HETATM   19  H2  UNL     1     -11.381  12.457  70.838  1.00  0.00     0.000 HD 
HETATM   20  H1  UNL     1     -11.614  13.914  69.918  1.00  0.00     0.000 HD 
ENDBRANCH  12  13
ENDBRANCH   3  12
TORSDOF 2
ENDMDL
MODEL       62
REMARK 921   NORMALIZED FREE ENERGY PREDICTED BY IDOCK:   -4.92 KCAL/MOL
REMARK 922        TOTAL FREE ENERGY PREDICTED BY IDOCK:   -5.84 KCAL/MOL
REMARK 923 INTER-LIGAND FREE ENERGY PREDICTED BY IDOCK:   -5.62 KCAL/MOL
REMARK 924 INTRA-LIGAND FREE ENERGY PREDICTED BY IDOCK:   -0.22 KCAL/MOL
REMARK 927      BINDING AFFINITY PREDICTED BY RF-SCORE:    0.00 PKD
ROOT
HETATM    1 CL   UNL     1     -10.616   9.068  67.680  1.00  0.00    -0.317 Cl 
HETATM    2  C   UNL     1     -11.217  10.416  68.566  1.00  0.00    -0.251 C  
HETATM    3  C   UNL     1     -11.459  11.630  68.034  1.00  0.00    -0.315 C  
HETATM    4  C   UNL     1     -11.466  10.212  70.025  1.00  0.00    -0.277 C  
HETATM    5  N   UNL     1     -11.887  12.652  68.861  1.00  0.00    -0.311 N  
HETATM    6  C   UNL     1     -12.053  12.559  70.209  1.00  0.00    -0.294 C  
HETATM    7  O   UNL     1     -11.379   9.115  70.570  1.00  0.00    -0.261 OA 
HETATM    8  H   UNL     1     -12.094  13.551  68.426  1.00  0.00     0.000 HD 
HETATM    9  O   UNL     1     -12.403  13.503  70.908  1.00  0.00    -0.351 OA 
HETATM   10  N   UNL     1     -11.799  11.329  70.743  1.00  0.00    -0.397 N  
HETATM   11  H   UNL     1     -11.862  11.234  71.756  1.00  0.00     0.000 HD 
ENDROOT
BRANCH   3  12
HETATM   12  C   UNL     1     -11.222  12.011  66.586  1.00  0.00    -0.327 C  
BRANCH  12  13
HETATM   13  N   UNL     1     -11.360  13.450  66.364  1.00  0.00    -0.305 NA 
HETATM   14  C   UNL     1     -12.183  14.617  64.507  1.00  0.00    -0.473 C  
HETATM   15  C   UNL     1     -10.823  15.217  64.855  1.00  0.00    -0.437 C  
HETATM   16  C   UNL     1     -12.622  13.933  65.801  1.00  0.00    -0.494 C  
HETATM   17  C   UNL     1     -10.321  14.202  65.857  1.00  0.00    -0.316 C  
HETATM   18  N   UNL     1      -9.076  14.083  66.164  1.00  0.00    -0.495 NA 
HETATM   19  H2  UNL     1      -8.835  13.365  66.847  1.00  0.00     0.000 HD 
HETATM   20  H1  UNL     1      -8.307  14.640  65.788  1.00  0.00     0.000 HD 
ENDBRANCH  12  13
ENDBRANCH   3  12
TORSDOF 2
ENDMDL
MODEL       63
REMARK 921   NORMALIZED FREE ENERGY PREDICTED BY IDOCK:   -4.92 KCAL/MOL
REMARK 922        TOTAL FREE ENERGY PREDICTED BY IDOCK:   -5.84 KCAL/MOL
REMARK 923 INTER-LIGAND FREE ENERGY PREDICTED BY IDOCK:   -5.57 KCAL/MOL
REMARK 924 INTRA-LIGAND FREE ENERGY PREDICTED BY IDOCK:   -0.26 KCAL/MOL
REMARK 927      BINDING AFFINITY PREDICTED BY RF-SCORE:    0.00 PKD
ROOT
HETATM    1 CL   UNL     1     -12.755  14.116  65.868  1.00  0.00    -0.471 Cl 
HETATM    2  C   UNL     1     -11.338  13.758  66.777  1.00  0.00    -0.330 C  
HETATM    3  C   UNL     1     -11.231  13.910  68.111  1.00  0.00    -0.268 C  
HETATM    4  C   UNL     1     -10.153  13.260  66.016  1.00  0.00    -0.299 C  
HETATM    5  N   UNL     1     -10.019  13.643  68.722  1.00  0.00    -0.394 N  
HETATM    6  C   UNL     1      -8.878  13.267  68.080  1.00  0.00    -0.187 C  
HETATM    7  O   UNL     1     -10.195  12.986  64.820  1.00  0.00    -0.321 OA 
HETATM    8  H   UNL     1      -9.976  13.735  69.737  1.00  0.00     0.000 HD 
HETATM    9  O   UNL     1      -7.816  13.073  68.661  1.00  0.00    -0.124 OA 
HETATM   10  N   UNL     1      -8.992  13.122  66.728  1.00  0.00    -0.353 N  
HETATM   11  H   UNL     1      -8.146  12.893  66.207  1.00  0.00     0.000 HD 
ENDROOT
BRANCH   3  12
HETATM   12  C   UNL     1     -12.323  14.441  69.019  1.00  0.00    -0.095 C  
BRANCH  12  13
HETATM   13  N   UNL     1     -12.059  14.148  70.429  1.00  0.00    -0.325 NA 
HETATM   14  C   UNL     1     -13.503  13.377  72.103  1.00  0.00    -0.646 C  
HETATM   15  C   UNL     1     -12.790  14.610  72.651  1.00  0.00    -0.499 C  
HETATM   16  C   UNL     1     -12.592  12.898  70.974  1.00  0.00    -0.287 C  
HETATM   17  C   UNL     1     -12.134  15.131  71.393  1.00  0.00    -0.338 C  
HETATM   18  N   UNL     1     -11.718  16.345  71.275  1.00  0.00    -0.639 NA 
HETATM   19  H2  UNL     1     -11.293  16.603  70.385  1.00  0.00     0.000 HD 
HETATM   20  H1  UNL     1     -11.774  17.072  71.989  1.00  0.00     0.000 HD 
ENDBRANCH  12  13
ENDBRANCH   3  12
TORSDOF 2
ENDMDL
MODEL       64
REMARK 921   NORMALIZED FREE ENERGY PREDICTED BY IDOCK:   -4.91 KCAL/MOL
REMARK 922        TOTAL FREE ENERGY PREDICTED BY IDOCK:   -5.82 KCAL/MOL
REMARK 923 INTER-LIGAND FREE ENERGY PREDICTED BY IDOCK:   -5.68 KCAL/MOL
REMARK 924 INTRA-LIGAND FREE ENERGY PREDICTED BY IDOCK:   -0.14 KCAL/MOL
REMARK 927      BINDING AFFINITY PREDICTED BY RF-SCORE:    0.00 PKD
ROOT
HETATM    1 CL   UNL     1      -8.375  13.831  68.450  1.00  0.00    -0.157 Cl 
HETATM    2  C   UNL     1      -9.286  14.721  67.292  1.00  0.00    -0.206 C  
HETATM    3  C   UNL     1     -10.304  14.213  66.571  1.00  0.00    -0.284 C  
HETATM    4  C   UNL     1      -8.897  16.147  67.075  1.00  0.00    -0.207 C  
HETATM    5  N   UNL     1     -10.924  15.012  65.627  1.00  0.00    -0.342 N  
HETATM    6  C   UNL     1     -10.567  16.290  65.320  1.00  0.00    -0.336 C  
HETATM    7  O   UNL     1      -8.059  16.722  67.763  1.00  0.00    -0.174 OA 
HETATM    8  H   UNL     1     -11.712  14.612  65.120  1.00  0.00     0.000 HD 
HETATM    9  O   UNL     1     -11.124  16.951  64.451  1.00  0.00    -1.128 OA 
HETATM   10  N   UNL     1      -9.530  16.796  66.049  1.00  0.00    -0.257 N  
HETATM   11  H   UNL     1      -9.200  17.731  65.810  1.00  0.00     0.000 HD 
ENDROOT
BRANCH   3  12
HETATM   12  C   UNL     1     -10.794  12.780  66.642  1.00  0.00    -0.264 C  
BRANCH  12  13
HETATM   13  N   UNL     1     -11.778  12.586  67.708  1.00  0.00    -0.354 NA 
HETATM   14  C   UNL     1     -11.719  13.251  69.952  1.00  0.00    -0.330 C  
HETATM   15  C   UNL     1     -12.062  11.763  69.928  1.00  0.00    -0.359 C  
HETATM   16  C   UNL     1     -12.099  13.736  68.555  1.00  0.00    -0.292 C  
HETATM   17  C   UNL     1     -11.788  11.441  68.476  1.00  0.00    -0.294 C  
HETATM   18  N   UNL     1     -11.590  10.240  68.055  1.00  0.00    -0.698 NA 
HETATM   19  H2  UNL     1     -11.408  10.125  67.058  1.00  0.00     0.000 HD 
HETATM   20  H1  UNL     1     -11.597   9.393  68.624  1.00  0.00     0.000 HD 
ENDBRANCH  12  13
ENDBRANCH   3  12
TORSDOF 2
ENDMDL
MODEL       65
REMARK 921   NORMALIZED FREE ENERGY PREDICTED BY IDOCK:   -4.90 KCAL/MOL
REMARK 922        TOTAL FREE ENERGY PREDICTED BY IDOCK:   -5.82 KCAL/MOL
REMARK 923 INTER-LIGAND FREE ENERGY PREDICTED BY IDOCK:   -5.55 KCAL/MOL
REMARK 924 INTRA-LIGAND FREE ENERGY PREDICTED BY IDOCK:   -0.27 KCAL/MOL
REMARK 927      BINDING AFFINITY PREDICTED BY RF-SCORE:    0.00 PKD
ROOT
HETATM    1 CL   UNL     1     -11.670  13.296  67.752  1.00  0.00    -0.376 Cl 
HETATM    2  C   UNL     1     -11.798  14.222  69.197  1.00  0.00    -0.330 C  
HETATM    3  C   UNL     1     -11.630  15.557  69.264  1.00  0.00    -0.357 C  
HETATM    4  C   UNL     1     -12.104  13.476  70.455  1.00  0.00    -0.335 C  
HETATM    5  N   UNL     1     -11.701  16.183  70.495  1.00  0.00    -0.470 N  
HETATM    6  C   UNL     1     -11.892  15.555  71.688  1.00  0.00    -0.415 C  
HETATM    7  O   UNL     1     -12.382  12.281  70.471  1.00  0.00    -0.329 OA 
HETATM    8  H   UNL     1     -11.602  17.197  70.511  1.00  0.00     0.000 HD 
HETATM    9  O   UNL     1     -11.915  16.148  72.761  1.00  0.00    -0.486 OA 
HETATM   10  N   UNL     1     -12.055  14.202  71.615  1.00  0.00    -0.320 N  
HETATM   11  H   UNL     1     -12.148  13.692  72.493  1.00  0.00     0.000 HD 
ENDROOT
BRANCH   3  12
HETATM   12  C   UNL     1     -11.277  16.451  68.091  1.00  0.00    -0.273 C  
BRANCH  12  13
HETATM   13  N   UNL     1      -9.939  16.172  67.567  1.00  0.00    -0.239 NA 
HETATM   14  C   UNL     1      -7.987  17.463  67.657  1.00  0.00    -0.199 C  
HETATM   15  C   UNL     1      -8.195  17.053  66.201  1.00  0.00    -0.284 C  
HETATM   16  C   UNL     1      -8.797  16.435  68.445  1.00  0.00    -0.214 C  
HETATM   17  C   UNL     1      -9.596  16.489  66.270  1.00  0.00    -0.306 C  
HETATM   18  N   UNL     1     -10.341  16.346  65.229  1.00  0.00    -0.618 NA 
HETATM   19  H2  UNL     1     -11.274  15.961  65.379  1.00  0.00     0.000 HD 
HETATM   20  H1  UNL     1     -10.086  16.581  64.269  1.00  0.00     0.000 HD 
ENDBRANCH  12  13
ENDBRANCH   3  12
TORSDOF 2
ENDMDL
MODEL       66
REMARK 921   NORMALIZED FREE ENERGY PREDICTED BY IDOCK:   -4.90 KCAL/MOL
REMARK 922        TOTAL FREE ENERGY PREDICTED BY IDOCK:   -5.82 KCAL/MOL
REMARK 923 INTER-LIGAND FREE ENERGY PREDICTED BY IDOCK:   -5.48 KCAL/MOL
REMARK 924 INTRA-LIGAND FREE ENERGY PREDICTED BY IDOCK:   -0.34 KCAL/MOL
REMARK 927      BINDING AFFINITY PREDICTED BY RF-SCORE:    0.00 PKD
ROOT
HETATM    1 CL   UNL     1      -8.101  13.225  67.215  1.00  0.00    -0.172 Cl 
HETATM    2  C   UNL     1      -9.677  13.500  66.581  1.00  0.00    -0.280 C  
HETATM    3  C   UNL     1     -10.121  14.691  66.136  1.00  0.00    -0.300 C  
HETATM    4  C   UNL     1     -10.606  12.330  66.542  1.00  0.00    -0.234 C  
HETATM    5  N   UNL     1     -11.430  14.801  65.702  1.00  0.00    -0.346 N  
HETATM    6  C   UNL     1     -12.352  13.799  65.718  1.00  0.00    -0.486 C  
HETATM    7  O   UNL     1     -10.253  11.188  66.821  1.00  0.00    -0.216 OA 
HETATM    8  H   UNL     1     -11.729  15.706  65.340  1.00  0.00     0.000 HD 
HETATM    9  O   UNL     1     -13.513  13.952  65.353  1.00  0.00    -0.672 OA 
HETATM   10  N   UNL     1     -11.898  12.597  66.176  1.00  0.00    -0.414 N  
HETATM   11  H   UNL     1     -12.574  11.837  66.252  1.00  0.00     0.000 HD 
ENDROOT
BRANCH   3  12
HETATM   12  C   UNL     1      -9.321  15.979  66.145  1.00  0.00    -0.342 C  
BRANCH  12  13
HETATM   13  N   UNL     1      -9.974  17.029  66.927  1.00  0.00    -0.278 NA 
HETATM   14  C   UNL     1      -9.600  19.341  66.954  1.00  0.00    -0.398 C  
HETATM   15  C   UNL     1      -9.561  18.858  68.401  1.00  0.00    -0.420 C  
HETATM   16  C   UNL     1     -10.379  18.248  66.224  1.00  0.00    -0.405 C  
HETATM   17  C   UNL     1      -9.535  17.361  68.191  1.00  0.00    -0.288 C  
HETATM   18  N   UNL     1      -9.141  16.538  69.100  1.00  0.00    -0.229 NA 
HETATM   19  H2  UNL     1      -9.156  15.546  68.862  1.00  0.00     0.000 HD 
HETATM   20  H1  UNL     1      -8.817  16.783  70.036  1.00  0.00     0.000 HD 
ENDBRANCH  12  13
ENDBRANCH   3  12
TORSDOF 2
ENDMDL
MODEL       67
REMARK 921   NORMALIZED FREE ENERGY PREDICTED BY IDOCK:   -4.89 KCAL/MOL
REMARK 922        TOTAL FREE ENERGY PREDICTED BY IDOCK:   -5.80 KCAL/MOL
REMARK 923 INTER-LIGAND FREE ENERGY PREDICTED BY IDOCK:   -5.49 KCAL/MOL
REMARK 924 INTRA-LIGAND FREE ENERGY PREDICTED BY IDOCK:   -0.31 KCAL/MOL
REMARK 927      BINDING AFFINITY PREDICTED BY RF-SCORE:    0.00 PKD
ROOT
HETATM    1 CL   UNL     1     -12.270  10.901  69.907  1.00  0.00    -0.405 Cl 
HETATM    2  C   UNL     1     -12.097  12.558  70.343  1.00  0.00    -0.297 C  
HETATM    3  C   UNL     1     -11.336  13.445  69.675  1.00  0.00    -0.137 C  
HETATM    4  C   UNL     1     -12.838  13.020  71.555  1.00  0.00    -0.290 C  
HETATM    5  N   UNL     1     -11.231  14.738  70.157  1.00  0.00    -0.363 N  
HETATM    6  C   UNL     1     -11.810  15.202  71.298  1.00  0.00    -0.350 C  
HETATM    7  O   UNL     1     -13.640  12.312  72.158  1.00  0.00    -0.461 OA 
HETATM    8  H   UNL     1     -10.675  15.396  69.613  1.00  0.00     0.000 HD 
HETATM    9  O   UNL     1     -11.662  16.349  71.705  1.00  0.00    -0.478 OA 
HETATM   10  N   UNL     1     -12.574  14.296  71.974  1.00  0.00    -0.323 N  
HETATM   11  H   UNL     1     -12.980  14.593  72.861  1.00  0.00     0.000 HD 
ENDROOT
BRANCH   3  12
HETATM   12  C   UNL     1     -10.494  13.128  68.454  1.00  0.00    -0.253 C  
BRANCH  12  13
HETATM   13  N   UNL     1     -11.015  13.764  67.244  1.00  0.00    -0.288 NA 
HETATM   14  C   UNL     1     -11.935  12.806  65.315  1.00  0.00    -0.473 C  
HETATM   15  C   UNL     1     -10.850  13.780  64.865  1.00  0.00    -0.398 C  
HETATM   16  C   UNL     1     -12.295  13.284  66.721  1.00  0.00    -0.178 C  
HETATM   17  C   UNL     1     -10.187  14.086  66.189  1.00  0.00    -0.302 C  
HETATM   18  N   UNL     1      -9.000  14.578  66.276  1.00  0.00    -0.498 NA 
HETATM   19  H2  UNL     1      -8.638  14.746  67.215  1.00  0.00     0.000 HD 
HETATM   20  H1  UNL     1      -8.388  14.816  65.495  1.00  0.00     0.000 HD 
ENDBRANCH  12  13
ENDBRANCH   3  12
TORSDOF 2
ENDMDL
MODEL       68
REMARK 921   NORMALIZED FREE ENERGY PREDICTED BY IDOCK:   -4.89 KCAL/MOL
REMARK 922        TOTAL FREE ENERGY PREDICTED BY IDOCK:   -5.80 KCAL/MOL
REMARK 923 INTER-LIGAND FREE ENERGY PREDICTED BY IDOCK:   -5.39 KCAL/MOL
REMARK 924 INTRA-LIGAND FREE ENERGY PREDICTED BY IDOCK:   -0.41 KCAL/MOL
REMARK 927      BINDING AFFINITY PREDICTED BY RF-SCORE:    0.00 PKD
ROOT
HETATM    1 CL   UNL     1      -8.572   8.247  72.276  1.00  0.00    -0.237 Cl 
HETATM    2  C   UNL     1     -10.264   8.379  71.989  1.00  0.00    -0.294 C  
HETATM    3  C   UNL     1     -10.813   9.103  70.995  1.00  0.00    -0.291 C  
HETATM    4  C   UNL     1     -11.169   7.646  72.925  1.00  0.00    -0.372 C  
HETATM    5  N   UNL     1     -12.191   9.178  70.902  1.00  0.00    -0.453 N  
HETATM    6  C   UNL     1     -13.072   8.606  71.768  1.00  0.00    -0.361 C  
HETATM    7  O   UNL     1     -10.755   6.876  73.787  1.00  0.00    -0.347 OA 
HETATM    8  H   UNL     1     -12.579   9.706  70.121  1.00  0.00     0.000 HD 
HETATM    9  O   UNL     1     -14.288   8.728  71.664  1.00  0.00    -0.381 OA 
HETATM   10  N   UNL     1     -12.509   7.880  72.776  1.00  0.00    -0.574 N  
HETATM   11  H   UNL     1     -13.136   7.480  73.474  1.00  0.00     0.000 HD 
ENDROOT
BRANCH   3  12
HETATM   12  C   UNL     1     -10.039   9.933  69.990  1.00  0.00    -0.260 C  
BRANCH  12  13
HETATM   13  N   UNL     1     -10.267   9.489  68.615  1.00  0.00    -0.188 NA 
HETATM   14  C   UNL     1      -8.918   9.719  66.714  1.00  0.00    -0.156 C  
HETATM   15  C   UNL     1     -10.312  10.222  66.346  1.00  0.00    -0.262 C  
HETATM   16  C   UNL     1      -9.162   8.820  67.925  1.00  0.00    -0.139 C  
HETATM   17  C   UNL     1     -10.957  10.269  67.712  1.00  0.00    -0.300 C  
HETATM   18  N   UNL     1     -12.012  10.967  67.960  1.00  0.00    -0.777 NA 
HETATM   19  H2  UNL     1     -12.370  10.938  68.915  1.00  0.00     0.000 HD 
HETATM   20  H1  UNL     1     -12.523  11.545  67.292  1.00  0.00     0.000 HD 
ENDBRANCH  12  13
ENDBRANCH   3  12
TORSDOF 2
ENDMDL
MODEL       69
REMARK 921   NORMALIZED FREE ENERGY PREDICTED BY IDOCK:   -4.88 KCAL/MOL
REMARK 922        TOTAL FREE ENERGY PREDICTED BY IDOCK:   -5.80 KCAL/MOL
REMARK 923 INTER-LIGAND FREE ENERGY PREDICTED BY IDOCK:   -5.55 KCAL/MOL
REMARK 924 INTRA-LIGAND FREE ENERGY PREDICTED BY IDOCK:   -0.24 KCAL/MOL
REMARK 927      BINDING AFFINITY PREDICTED BY RF-SCORE:    0.00 PKD
ROOT
HETATM    1 CL   UNL     1     -12.402  14.055  69.422  1.00  0.00    -0.326 Cl 
HETATM    2  C   UNL     1     -11.481  14.879  68.224  1.00  0.00    -0.324 C  
HETATM    3  C   UNL     1     -11.640  14.719  66.897  1.00  0.00    -0.327 C  
HETATM    4  C   UNL     1     -10.428  15.822  68.710  1.00  0.00    -0.228 C  
HETATM    5  N   UNL     1     -10.799  15.395  66.032  1.00  0.00    -0.321 N  
HETATM    6  C   UNL     1      -9.768  16.202  66.406  1.00  0.00    -0.286 C  
HETATM    7  O   UNL     1     -10.287  16.113  69.894  1.00  0.00    -0.268 OA 
HETATM    8  H   UNL     1     -10.964  15.280  65.033  1.00  0.00     0.000 HD 
HETATM    9  O   UNL     1      -9.025  16.755  65.603  1.00  0.00    -0.475 OA 
HETATM   10  N   UNL     1      -9.607  16.354  67.752  1.00  0.00    -0.230 N  
HETATM   11  H   UNL     1      -8.812  16.909  68.071  1.00  0.00     0.000 HD 
ENDROOT
BRANCH   3  12
HETATM   12  C   UNL     1     -12.632  13.775  66.245  1.00  0.00    -0.321 C  
BRANCH  12  13
HETATM   13  N   UNL     1     -11.994  12.549  65.766  1.00  0.00    -0.517 NA 
HETATM   14  C   UNL     1      -9.826  11.739  66.125  1.00  0.00    -0.254 C  
HETATM   15  C   UNL     1     -10.081  11.706  64.620  1.00  0.00    -0.305 C  
HETATM   16  C   UNL     1     -11.228  11.760  66.732  1.00  0.00    -0.328 C  
HETATM   17  C   UNL     1     -11.366  12.498  64.540  1.00  0.00    -0.330 C  
HETATM   18  N   UNL     1     -11.781  13.043  63.449  1.00  0.00    -0.713 NA 
HETATM   19  H2  UNL     1     -12.658  13.561  63.497  1.00  0.00     0.000 HD 
HETATM   20  H1  UNL     1     -11.315  13.005  62.542  1.00  0.00     0.000 HD 
ENDBRANCH  12  13
ENDBRANCH   3  12
TORSDOF 2
ENDMDL
MODEL       70
REMARK 921   NORMALIZED FREE ENERGY PREDICTED BY IDOCK:   -4.87 KCAL/MOL
REMARK 922        TOTAL FREE ENERGY PREDICTED BY IDOCK:   -5.78 KCAL/MOL
REMARK 923 INTER-LIGAND FREE ENERGY PREDICTED BY IDOCK:   -5.48 KCAL/MOL
REMARK 924 INTRA-LIGAND FREE ENERGY PREDICTED BY IDOCK:   -0.30 KCAL/MOL
REMARK 927      BINDING AFFINITY PREDICTED BY RF-SCORE:    0.00 PKD
ROOT
HETATM    1 CL   UNL     1     -11.794  15.776  69.877  1.00  0.00    -0.359 Cl 
HETATM    2  C   UNL     1     -11.275  15.370  68.287  1.00  0.00    -0.323 C  
HETATM    3  C   UNL     1     -10.786  16.254  67.396  1.00  0.00    -0.287 C  
HETATM    4  C   UNL     1     -11.396  13.937  67.880  1.00  0.00    -0.292 C  
HETATM    5  N   UNL     1     -10.455  15.816  66.126  1.00  0.00    -0.305 N  
HETATM    6  C   UNL     1     -10.618  14.546  65.664  1.00  0.00    -0.332 C  
HETATM    7  O   UNL     1     -11.724  13.047  68.659  1.00  0.00    -0.285 OA 
HETATM    8  H   UNL     1     -10.057  16.500  65.484  1.00  0.00     0.000 HD 
HETATM    9  O   UNL     1     -10.341  14.210  64.518  1.00  0.00    -0.390 OA 
HETATM   10  N   UNL     1     -11.120  13.656  66.569  1.00  0.00    -0.302 N  
HETATM   11  H   UNL     1     -11.305  12.708  66.242  1.00  0.00     0.000 HD 
ENDROOT
BRANCH   3  12
HETATM   12  C   UNL     1     -10.637  17.743  67.637  1.00  0.00    -0.379 C  
BRANCH  12  13
HETATM   13  N   UNL     1      -9.294  18.224  67.312  1.00  0.00    -0.254 NA 
HETATM   14  C   UNL     1      -7.686  19.242  68.677  1.00  0.00    -0.394 C  
HETATM   15  C   UNL     1      -7.855  20.120  67.440  1.00  0.00    -0.348 C  
HETATM   16  C   UNL     1      -8.208  17.877  68.230  1.00  0.00    -0.290 C  
HETATM   17  C   UNL     1      -9.085  19.496  66.824  1.00  0.00    -0.339 C  
HETATM   18  N   UNL     1      -9.820  20.110  65.961  1.00  0.00    -0.606 NA 
HETATM   19  H2  UNL     1     -10.633  19.607  65.607  1.00  0.00     0.000 HD 
HETATM   20  H1  UNL     1      -9.665  21.052  65.600  1.00  0.00     0.000 HD 
ENDBRANCH  12  13
ENDBRANCH   3  12
TORSDOF 2
ENDMDL
MODEL       71
REMARK 921   NORMALIZED FREE ENERGY PREDICTED BY IDOCK:   -4.86 KCAL/MOL
REMARK 922        TOTAL FREE ENERGY PREDICTED BY IDOCK:   -5.77 KCAL/MOL
REMARK 923 INTER-LIGAND FREE ENERGY PREDICTED BY IDOCK:   -5.66 KCAL/MOL
REMARK 924 INTRA-LIGAND FREE ENERGY PREDICTED BY IDOCK:   -0.12 KCAL/MOL
REMARK 927      BINDING AFFINITY PREDICTED BY RF-SCORE:    0.00 PKD
ROOT
HETATM    1 CL   UNL     1     -13.181  11.643  72.054  1.00  0.00    -0.562 Cl 
HETATM    2  C   UNL     1     -12.640  10.080  71.577  1.00  0.00    -0.425 C  
HETATM    3  C   UNL     1     -11.624   9.854  70.722  1.00  0.00    -0.349 C  
HETATM    4  C   UNL     1     -13.367   8.907  72.150  1.00  0.00    -0.440 C  
HETATM    5  N   UNL     1     -11.319   8.551  70.371  1.00  0.00    -0.391 N  
HETATM    6  C   UNL     1     -11.992   7.444  70.788  1.00  0.00    -0.230 C  
HETATM    7  O   UNL     1     -14.229   9.016  73.018  1.00  0.00    -0.444 OA 
HETATM    8  H   UNL     1     -10.525   8.408  69.748  1.00  0.00     0.000 HD 
HETATM    9  O   UNL     1     -11.707   6.309  70.423  1.00  0.00    -0.367 OA 
HETATM   10  N   UNL     1     -13.025   7.681  71.648  1.00  0.00    -0.344 N  
HETATM   11  H   UNL     1     -13.585   6.881  71.941  1.00  0.00     0.000 HD 
ENDROOT
BRANCH   3  12
HETATM   12  C   UNL     1     -10.814  10.930  70.026  1.00  0.00    -0.072 C  
BRANCH  12  13
HETATM   13  N   UNL     1     -11.630  11.731  69.113  1.00  0.00    -0.283 NA 
HETATM   14  C   UNL     1     -11.116  12.596  66.998  1.00  0.00    -0.322 C  
HETATM   15  C   UNL     1     -11.662  13.747  67.840  1.00  0.00    -0.395 C  
HETATM   16  C   UNL     1     -11.645  11.347  67.700  1.00  0.00    -0.238 C  
HETATM   17  C   UNL     1     -11.675  13.106  69.209  1.00  0.00    -0.321 C  
HETATM   18  N   UNL     1     -11.717  13.791  70.298  1.00  0.00    -0.476 NA 
HETATM   19  H2  UNL     1     -11.717  13.267  71.174  1.00  0.00     0.000 HD 
HETATM   20  H1  UNL     1     -11.750  14.809  70.369  1.00  0.00     0.000 HD 
ENDBRANCH  12  13
ENDBRANCH   3  12
TORSDOF 2
ENDMDL
MODEL       72
REMARK 921   NORMALIZED FREE ENERGY PREDICTED BY IDOCK:   -4.84 KCAL/MOL
REMARK 922        TOTAL FREE ENERGY PREDICTED BY IDOCK:   -5.75 KCAL/MOL
REMARK 923 INTER-LIGAND FREE ENERGY PREDICTED BY IDOCK:   -5.50 KCAL/MOL
REMARK 924 INTRA-LIGAND FREE ENERGY PREDICTED BY IDOCK:   -0.25 KCAL/MOL
REMARK 927      BINDING AFFINITY PREDICTED BY RF-SCORE:    0.00 PKD
ROOT
HETATM    1 CL   UNL     1      -8.215  14.657  67.392  1.00  0.00    -0.203 Cl 
HETATM    2  C   UNL     1      -9.522  14.454  66.290  1.00  0.00    -0.271 C  
HETATM    3  C   UNL     1     -10.047  13.263  65.943  1.00  0.00    -0.291 C  
HETATM    4  C   UNL     1     -10.089  15.692  65.675  1.00  0.00    -0.365 C  
HETATM    5  N   UNL     1     -11.060  13.224  65.001  1.00  0.00    -0.300 N  
HETATM    6  C   UNL     1     -11.565  14.302  64.342  1.00  0.00    -0.344 C  
HETATM    7  O   UNL     1      -9.749  16.822  66.015  1.00  0.00    -0.369 OA 
HETATM    8  H   UNL     1     -11.461  12.312  64.783  1.00  0.00     0.000 HD 
HETATM    9  O   UNL     1     -12.441  14.216  63.489  1.00  0.00    -0.817 OA 
HETATM   10  N   UNL     1     -11.024  15.505  64.693  1.00  0.00    -0.664 N  
HETATM   11  H   UNL     1     -11.340  16.329  64.182  1.00  0.00     0.000 HD 
ENDROOT
BRANCH   3  12
HETATM   12  C   UNL     1      -9.562  11.916  66.443  1.00  0.00    -0.225 C  
BRANCH  12  13
HETATM   13  N   UNL     1      -9.785  11.747  67.879  1.00  0.00    -0.180 NA 
HETATM   14  C   UNL     1      -9.173   9.991  69.302  1.00  0.00    -0.212 C  
HETATM   15  C   UNL     1     -10.661  10.255  69.519  1.00  0.00    -0.270 C  
HETATM   16  C   UNL     1      -8.656  11.293  68.693  1.00  0.00    -0.139 C  
HETATM   17  C   UNL     1     -10.947  11.186  68.364  1.00  0.00    -0.227 C  
HETATM   18  N   UNL     1     -12.137  11.396  67.918  1.00  0.00    -0.621 NA 
HETATM   19  H2  UNL     1     -12.228  12.039  67.131  1.00  0.00     0.000 HD 
HETATM   20  H1  UNL     1     -12.997  10.981  68.277  1.00  0.00     0.000 HD 
ENDBRANCH  12  13
ENDBRANCH   3  12
TORSDOF 2
ENDMDL
MODEL       73
REMARK 921   NORMALIZED FREE ENERGY PREDICTED BY IDOCK:   -4.83 KCAL/MOL
REMARK 922        TOTAL FREE ENERGY PREDICTED BY IDOCK:   -5.74 KCAL/MOL
REMARK 923 INTER-LIGAND FREE ENERGY PREDICTED BY IDOCK:   -5.35 KCAL/MOL
REMARK 924 INTRA-LIGAND FREE ENERGY PREDICTED BY IDOCK:   -0.39 KCAL/MOL
REMARK 927      BINDING AFFINITY PREDICTED BY RF-SCORE:    0.00 PKD
ROOT
HETATM    1 CL   UNL     1     -11.012  12.385  63.289  1.00  0.00    -0.431 Cl 
HETATM    2  C   UNL     1     -10.983  11.813  64.912  1.00  0.00    -0.300 C  
HETATM    3  C   UNL     1     -11.656  12.381  65.932  1.00  0.00    -0.396 C  
HETATM    4  C   UNL     1     -10.137  10.614  65.194  1.00  0.00    -0.307 C  
HETATM    5  N   UNL     1     -11.507  11.864  67.206  1.00  0.00    -0.321 N  
HETATM    6  C   UNL     1     -10.691  10.829  67.546  1.00  0.00    -0.264 C  
HETATM    7  O   UNL     1      -9.580   9.968  64.310  1.00  0.00    -0.297 OA 
HETATM    8  H   UNL     1     -12.054  12.293  67.952  1.00  0.00     0.000 HD 
HETATM    9  O   UNL     1     -10.565  10.425  68.697  1.00  0.00    -0.186 OA 
HETATM   10  N   UNL     1     -10.006  10.263  66.510  1.00  0.00    -0.215 N  
HETATM   11  H   UNL     1      -9.345   9.520  66.735  1.00  0.00     0.000 HD 
ENDROOT
BRANCH   3  12
HETATM   12  C   UNL     1     -12.522  13.621  65.822  1.00  0.00    -0.477 C  
BRANCH  12  13
HETATM   13  N   UNL     1     -11.812  14.829  66.243  1.00  0.00    -0.272 NA 
HETATM   14  C   UNL     1      -9.526  15.333  66.178  1.00  0.00    -0.361 C  
HETATM   15  C   UNL     1     -10.015  15.623  67.595  1.00  0.00    -0.237 C  
HETATM   16  C   UNL     1     -10.799  15.373  65.336  1.00  0.00    -0.391 C  
HETATM   17  C   UNL     1     -11.391  14.998  67.544  1.00  0.00    -0.333 C  
HETATM   18  N   UNL     1     -12.047  14.674  68.605  1.00  0.00    -0.562 NA 
HETATM   19  H2  UNL     1     -12.967  14.253  68.467  1.00  0.00     0.000 HD 
HETATM   20  H1  UNL     1     -11.735  14.799  69.568  1.00  0.00     0.000 HD 
ENDBRANCH  12  13
ENDBRANCH   3  12
TORSDOF 2
ENDMDL
MODEL       74
REMARK 921   NORMALIZED FREE ENERGY PREDICTED BY IDOCK:   -4.81 KCAL/MOL
REMARK 922        TOTAL FREE ENERGY PREDICTED BY IDOCK:   -5.72 KCAL/MOL
REMARK 923 INTER-LIGAND FREE ENERGY PREDICTED BY IDOCK:   -5.34 KCAL/MOL
REMARK 924 INTRA-LIGAND FREE ENERGY PREDICTED BY IDOCK:   -0.38 KCAL/MOL
REMARK 927      BINDING AFFINITY PREDICTED BY RF-SCORE:    0.00 PKD
ROOT
HETATM    1 CL   UNL     1      -9.798   8.882  68.377  1.00  0.00    -0.182 Cl 
HETATM    2  C   UNL     1     -10.857   9.881  69.295  1.00  0.00    -0.227 C  
HETATM    3  C   UNL     1     -11.166  11.154  68.980  1.00  0.00    -0.256 C  
HETATM    4  C   UNL     1     -11.452   9.284  70.528  1.00  0.00    -0.248 C  
HETATM    5  N   UNL     1     -11.986  11.875  69.829  1.00  0.00    -0.315 N  
HETATM    6  C   UNL     1     -12.494  11.422  71.008  1.00  0.00    -0.383 C  
HETATM    7  O   UNL     1     -11.315   8.102  70.831  1.00  0.00    -0.264 OA 
HETATM    8  H   UNL     1     -12.230  12.825  69.549  1.00  0.00     0.000 HD 
HETATM    9  O   UNL     1     -13.190  12.110  71.746  1.00  0.00    -0.448 OA 
HETATM   10  N   UNL     1     -12.170  10.134  71.325  1.00  0.00    -0.369 N  
HETATM   11  H   UNL     1     -12.489   9.778  72.226  1.00  0.00     0.000 HD 
ENDROOT
BRANCH   3  12
HETATM   12  C   UNL     1     -10.618  11.916  67.790  1.00  0.00    -0.203 C  
BRANCH  12  13
HETATM   13  N   UNL     1     -11.680  12.510  66.977  1.00  0.00    -0.420 NA 
HETATM   14  C   UNL     1     -11.592  13.443  64.831  1.00  0.00    -0.354 C  
HETATM   15  C   UNL     1     -12.285  14.456  65.739  1.00  0.00    -0.353 C  
HETATM   16  C   UNL     1     -11.759  12.116  65.569  1.00  0.00    -0.324 C  
HETATM   17  C   UNL     1     -12.014  13.842  67.094  1.00  0.00    -0.420 C  
HETATM   18  N   UNL     1     -12.091  14.514  68.190  1.00  0.00    -0.573 NA 
HETATM   19  H2  UNL     1     -11.885  14.012  69.054  1.00  0.00     0.000 HD 
HETATM   20  H1  UNL     1     -12.338  15.500  68.276  1.00  0.00     0.000 HD 
ENDBRANCH  12  13
ENDBRANCH   3  12
TORSDOF 2
ENDMDL
MODEL       75
REMARK 921   NORMALIZED FREE ENERGY PREDICTED BY IDOCK:   -4.80 KCAL/MOL
REMARK 922        TOTAL FREE ENERGY PREDICTED BY IDOCK:   -5.70 KCAL/MOL
REMARK 923 INTER-LIGAND FREE ENERGY PREDICTED BY IDOCK:   -5.45 KCAL/MOL
REMARK 924 INTRA-LIGAND FREE ENERGY PREDICTED BY IDOCK:   -0.25 KCAL/MOL
REMARK 927      BINDING AFFINITY PREDICTED BY RF-SCORE:    0.00 PKD
ROOT
HETATM    1 CL   UNL     1      -9.207  14.745  66.964  1.00  0.00    -0.232 Cl 
HETATM    2  C   UNL     1     -10.381  14.006  65.945  1.00  0.00    -0.318 C  
HETATM    3  C   UNL     1     -10.804  12.733  66.070  1.00  0.00    -0.276 C  
HETATM    4  C   UNL     1     -10.949  14.844  64.846  1.00  0.00    -0.408 C  
HETATM    5  N   UNL     1     -11.711  12.233  65.153  1.00  0.00    -0.370 N  
HETATM    6  C   UNL     1     -12.203  12.913  64.081  1.00  0.00    -0.414 C  
HETATM    7  O   UNL     1     -10.706  16.041  64.726  1.00  0.00    -0.611 OA 
HETATM    8  H   UNL     1     -12.037  11.277  65.291  1.00  0.00     0.000 HD 
HETATM    9  O   UNL     1     -12.981  12.417  63.273  1.00  0.00    -0.675 OA 
HETATM   10  N   UNL     1     -11.766  14.200  63.956  1.00  0.00    -0.658 N  
HETATM   11  H   UNL     1     -12.072  14.723  63.136  1.00  0.00     0.000 HD 
ENDROOT
BRANCH   3  12
HETATM   12  C   UNL     1     -10.300  11.744  67.102  1.00  0.00    -0.215 C  
BRANCH  12  13
HETATM   13  N   UNL     1     -10.037  10.426  66.523  1.00  0.00    -0.220 NA 
HETATM   14  C   UNL     1      -9.255   8.464  67.534  1.00  0.00    -0.158 C  
HETATM   15  C   UNL     1      -8.383   8.722  66.308  1.00  0.00    -0.120 C  
HETATM   16  C   UNL     1     -10.531   9.254  67.248  1.00  0.00    -0.264 C  
HETATM   17  C   UNL     1      -8.821  10.123  65.949  1.00  0.00    -0.149 C  
HETATM   18  N   UNL     1      -8.116  10.903  65.204  1.00  0.00    -0.364 NA 
HETATM   19  H2  UNL     1      -8.494  11.833  65.022  1.00  0.00     0.000 HD 
HETATM   20  H1  UNL     1      -7.216  10.679  64.779  1.00  0.00     0.000 HD 
ENDBRANCH  12  13
ENDBRANCH   3  12
TORSDOF 2
ENDMDL
MODEL       76
REMARK 921   NORMALIZED FREE ENERGY PREDICTED BY IDOCK:   -4.80 KCAL/MOL
REMARK 922        TOTAL FREE ENERGY PREDICTED BY IDOCK:   -5.70 KCAL/MOL
REMARK 923 INTER-LIGAND FREE ENERGY PREDICTED BY IDOCK:   -5.36 KCAL/MOL
REMARK 924 INTRA-LIGAND FREE ENERGY PREDICTED BY IDOCK:   -0.34 KCAL/MOL
REMARK 927      BINDING AFFINITY PREDICTED BY RF-SCORE:    0.00 PKD
ROOT
HETATM    1 CL   UNL     1     -11.108  13.534  64.093  1.00  0.00    -0.352 Cl 
HETATM    2  C   UNL     1     -10.530  14.735  65.182  1.00  0.00    -0.418 C  
HETATM    3  C   UNL     1      -9.747  14.482  66.248  1.00  0.00    -0.309 C  
HETATM    4  C   UNL     1     -10.948  16.145  64.919  1.00  0.00    -0.349 C  
HETATM    5  N   UNL     1      -9.394  15.526  67.085  1.00  0.00    -0.211 N  
HETATM    6  C   UNL     1      -9.807  16.816  66.953  1.00  0.00    -0.266 C  
HETATM    7  O   UNL     1     -11.566  16.482  63.913  1.00  0.00    -1.175 OA 
HETATM    8  H   UNL     1      -8.774  15.310  67.865  1.00  0.00     0.000 HD 
HETATM    9  O   UNL     1      -9.495  17.703  67.740  1.00  0.00    -0.254 OA 
HETATM   10  N   UNL     1     -10.606  17.064  65.875  1.00  0.00    -0.282 N  
HETATM   11  H   UNL     1     -10.978  18.008  65.773  1.00  0.00     0.000 HD 
ENDROOT
BRANCH   3  12
HETATM   12  C   UNL     1      -9.271  13.107  66.675  1.00  0.00    -0.215 C  
BRANCH  12  13
HETATM   13  N   UNL     1     -10.368  12.268  67.158  1.00  0.00    -0.217 NA 
HETATM   14  C   UNL     1     -10.547  11.007  69.123  1.00  0.00    -0.253 C  
HETATM   15  C   UNL     1     -10.903  10.087  67.958  1.00  0.00    -0.311 C  
HETATM   16  C   UNL     1     -10.765  12.410  68.560  1.00  0.00    -0.238 C  
HETATM   17  C   UNL     1     -10.476  10.944  66.789  1.00  0.00    -0.251 C  
HETATM   18  N   UNL     1     -10.247  10.460  65.617  1.00  0.00    -0.260 NA 
HETATM   19  H2  UNL     1      -9.959  11.119  64.894  1.00  0.00     0.000 HD 
HETATM   20  H1  UNL     1     -10.327   9.480  65.344  1.00  0.00     0.000 HD 
ENDBRANCH  12  13
ENDBRANCH   3  12
TORSDOF 2
ENDMDL
MODEL       77
REMARK 921   NORMALIZED FREE ENERGY PREDICTED BY IDOCK:   -4.79 KCAL/MOL
REMARK 922        TOTAL FREE ENERGY PREDICTED BY IDOCK:   -5.70 KCAL/MOL
REMARK 923 INTER-LIGAND FREE ENERGY PREDICTED BY IDOCK:   -5.38 KCAL/MOL
REMARK 924 INTRA-LIGAND FREE ENERGY PREDICTED BY IDOCK:   -0.32 KCAL/MOL
REMARK 927      BINDING AFFINITY PREDICTED BY RF-SCORE:    0.00 PKD
ROOT
HETATM    1 CL   UNL     1     -11.751  12.416  65.694  1.00  0.00    -0.448 Cl 
HETATM    2  C   UNL     1     -11.462  13.321  67.130  1.00  0.00    -0.341 C  
HETATM    3  C   UNL     1     -11.558  12.821  68.377  1.00  0.00    -0.325 C  
HETATM    4  C   UNL     1     -11.095  14.760  66.962  1.00  0.00    -0.333 C  
HETATM    5  N   UNL     1     -11.358  13.664  69.456  1.00  0.00    -0.400 N  
HETATM    6  C   UNL     1     -11.104  14.999  69.376  1.00  0.00    -0.278 C  
HETATM    7  O   UNL     1     -10.877  15.269  65.867  1.00  0.00    -0.328 OA 
HETATM    8  H   UNL     1     -11.405  13.251  70.387  1.00  0.00     0.000 HD 
HETATM    9  O   UNL     1     -10.966  15.714  70.362  1.00  0.00    -0.301 OA 
HETATM   10  N   UNL     1     -11.015  15.500  68.110  1.00  0.00    -0.299 N  
HETATM   11  H   UNL     1     -10.878  16.506  68.012  1.00  0.00     0.000 HD 
ENDROOT
BRANCH   3  12
HETATM   12  C   UNL     1     -11.958  11.399  68.719  1.00  0.00    -0.287 C  
BRANCH  12  13
HETATM   13  N   UNL     1     -11.293  10.914  69.929  1.00  0.00    -0.289 NA 
HETATM   14  C   UNL     1     -10.537   8.766  70.474  1.00  0.00    -0.252 C  
HETATM   15  C   UNL     1     -11.396   9.255  71.638  1.00  0.00    -0.467 C  
HETATM   16  C   UNL     1     -10.122  10.051  69.761  1.00  0.00    -0.248 C  
HETATM   17  C   UNL     1     -12.015  10.490  71.024  1.00  0.00    -0.364 C  
HETATM   18  N   UNL     1     -13.082  11.040  71.491  1.00  0.00    -0.422 NA 
HETATM   19  H2  UNL     1     -13.426  11.868  71.004  1.00  0.00     0.000 HD 
HETATM   20  H1  UNL     1     -13.616  10.725  72.302  1.00  0.00     0.000 HD 
ENDBRANCH  12  13
ENDBRANCH   3  12
TORSDOF 2
ENDMDL
MODEL       78
REMARK 921   NORMALIZED FREE ENERGY PREDICTED BY IDOCK:   -4.79 KCAL/MOL
REMARK 922        TOTAL FREE ENERGY PREDICTED BY IDOCK:   -5.69 KCAL/MOL
REMARK 923 INTER-LIGAND FREE ENERGY PREDICTED BY IDOCK:   -5.23 KCAL/MOL
REMARK 924 INTRA-LIGAND FREE ENERGY PREDICTED BY IDOCK:   -0.46 KCAL/MOL
REMARK 927      BINDING AFFINITY PREDICTED BY RF-SCORE:    0.00 PKD
ROOT
HETATM    1 CL   UNL     1     -11.589   7.853  72.499  1.00  0.00    -0.430 Cl 
HETATM    2  C   UNL     1     -11.717   8.940  71.170  1.00  0.00    -0.298 C  
HETATM    3  C   UNL     1     -11.024   8.822  70.022  1.00  0.00    -0.209 C  
HETATM    4  C   UNL     1     -12.654  10.093  71.326  1.00  0.00    -0.404 C  
HETATM    5  N   UNL     1     -11.169   9.793  69.047  1.00  0.00    -0.436 N  
HETATM    6  C   UNL     1     -11.939  10.910  69.156  1.00  0.00    -0.288 C  
HETATM    7  O   UNL     1     -13.406  10.217  72.289  1.00  0.00    -0.407 OA 
HETATM    8  H   UNL     1     -10.658   9.661  68.175  1.00  0.00     0.000 HD 
HETATM    9  O   UNL     1     -12.012  11.762  68.278  1.00  0.00    -0.487 OA 
HETATM   10  N   UNL     1     -12.633  11.027  70.326  1.00  0.00    -0.276 N  
HETATM   11  H   UNL     1     -13.180  11.877  70.465  1.00  0.00     0.000 HD 
ENDROOT
BRANCH   3  12
HETATM   12  C   UNL     1     -10.008   7.737  69.723  1.00  0.00    -0.189 C  
BRANCH  12  13
HETATM   13  N   UNL     1     -10.613   6.580  69.062  1.00  0.00    -0.221 NA 
HETATM   14  C   UNL     1      -9.660   4.537  68.429  1.00  0.00    -0.207 C  
HETATM   15  C   UNL     1     -10.388   5.097  67.209  1.00  0.00    -0.225 C  
HETATM   16  C   UNL     1     -10.316   5.254  69.607  1.00  0.00    -0.278 C  
HETATM   17  C   UNL     1     -10.692   6.498  67.688  1.00  0.00    -0.307 C  
HETATM   18  N   UNL     1     -10.978   7.462  66.883  1.00  0.00    -0.572 NA 
HETATM   19  H2  UNL     1     -11.163   8.373  67.302  1.00  0.00     0.000 HD 
HETATM   20  H1  UNL     1     -11.036   7.400  65.866  1.00  0.00     0.000 HD 
ENDBRANCH  12  13
ENDBRANCH   3  12
TORSDOF 2
ENDMDL
MODEL       79
REMARK 921   NORMALIZED FREE ENERGY PREDICTED BY IDOCK:   -4.79 KCAL/MOL
REMARK 922        TOTAL FREE ENERGY PREDICTED BY IDOCK:   -5.69 KCAL/MOL
REMARK 923 INTER-LIGAND FREE ENERGY PREDICTED BY IDOCK:   -5.55 KCAL/MOL
REMARK 924 INTRA-LIGAND FREE ENERGY PREDICTED BY IDOCK:   -0.14 KCAL/MOL
REMARK 927      BINDING AFFINITY PREDICTED BY RF-SCORE:    0.00 PKD
ROOT
HETATM    1 CL   UNL     1      -8.915  10.166  65.442  1.00  0.00    -0.190 Cl 
HETATM    2  C   UNL     1      -9.966  10.557  66.748  1.00  0.00    -0.204 C  
HETATM    3  C   UNL     1     -10.175  11.805  67.209  1.00  0.00    -0.203 C  
HETATM    4  C   UNL     1     -10.673   9.421  67.412  1.00  0.00    -0.210 C  
HETATM    5  N   UNL     1     -11.000  11.987  68.305  1.00  0.00    -0.219 N  
HETATM    6  C   UNL     1     -11.608  10.992  69.007  1.00  0.00    -0.323 C  
HETATM    7  O   UNL     1     -10.629   8.269  66.990  1.00  0.00    -0.321 OA 
HETATM    8  H   UNL     1     -11.166  12.945  68.611  1.00  0.00     0.000 HD 
HETATM    9  O   UNL     1     -12.306  11.199  69.994  1.00  0.00    -0.304 OA 
HETATM   10  N   UNL     1     -11.386   9.730  68.539  1.00  0.00    -0.508 N  
HETATM   11  H   UNL     1     -11.782   8.955  69.071  1.00  0.00     0.000 HD 
ENDROOT
BRANCH   3  12
HETATM   12  C   UNL     1      -9.506  13.057  66.675  1.00  0.00    -0.256 C  
BRANCH  12  13
HETATM   13  N   UNL     1     -10.382  13.810  65.777  1.00  0.00    -0.299 NA 
HETATM   14  C   UNL     1     -12.713  13.760  65.554  1.00  0.00    -0.530 C  
HETATM   15  C   UNL     1     -12.119  13.584  64.158  1.00  0.00    -0.488 C  
HETATM   16  C   UNL     1     -11.586  14.414  66.351  1.00  0.00    -0.375 C  
HETATM   17  C   UNL     1     -10.664  13.361  64.504  1.00  0.00    -0.419 C  
HETATM   18  N   UNL     1      -9.831  12.813  63.689  1.00  0.00    -0.699 NA 
HETATM   19  H2  UNL     1      -8.871  12.701  64.016  1.00  0.00     0.000 HD 
HETATM   20  H1  UNL     1     -10.040  12.480  62.747  1.00  0.00     0.000 HD 
ENDBRANCH  12  13
ENDBRANCH   3  12
TORSDOF 2
ENDMDL
MODEL       80
REMARK 921   NORMALIZED FREE ENERGY PREDICTED BY IDOCK:   -4.76 KCAL/MOL
REMARK 922        TOTAL FREE ENERGY PREDICTED BY IDOCK:   -5.67 KCAL/MOL
REMARK 923 INTER-LIGAND FREE ENERGY PREDICTED BY IDOCK:   -5.31 KCAL/MOL
REMARK 924 INTRA-LIGAND FREE ENERGY PREDICTED BY IDOCK:   -0.35 KCAL/MOL
REMARK 927      BINDING AFFINITY PREDICTED BY RF-SCORE:    0.00 PKD
ROOT
HETATM    1 CL   UNL     1      -9.591  10.220  69.444  1.00  0.00    -0.239 Cl 
HETATM    2  C   UNL     1     -10.950   9.879  70.444  1.00  0.00    -0.318 C  
HETATM    3  C   UNL     1     -10.887   9.215  71.615  1.00  0.00    -0.372 C  
HETATM    4  C   UNL     1     -12.283  10.346  69.958  1.00  0.00    -0.189 C  
HETATM    5  N   UNL     1     -12.058   8.951  72.302  1.00  0.00    -0.349 N  
HETATM    6  C   UNL     1     -13.310   9.273  71.877  1.00  0.00    -0.429 C  
HETATM    7  O   UNL     1     -12.421  11.052  68.963  1.00  0.00    -0.449 OA 
HETATM    8  H   UNL     1     -11.976   8.476  73.200  1.00  0.00     0.000 HD 
HETATM    9  O   UNL     1     -14.324   8.989  72.504  1.00  0.00    -0.570 OA 
HETATM   10  N   UNL     1     -13.368   9.939  70.687  1.00  0.00    -0.612 N  
HETATM   11  H   UNL     1     -14.293  10.150  70.311  1.00  0.00     0.000 HD 
ENDROOT
BRANCH   3  12
HETATM   12  C   UNL     1      -9.622   8.642  72.225  1.00  0.00    -0.278 C  
BRANCH  12  13
HETATM   13  N   UNL     1      -9.552   7.188  72.085  1.00  0.00    -0.143 NA 
HETATM   14  C   UNL     1     -10.654   5.763  70.588  1.00  0.00    -0.346 C  
HETATM   15  C   UNL     1     -10.873   5.205  71.992  1.00  0.00    -0.194 C  
HETATM   16  C   UNL     1      -9.413   6.642  70.733  1.00  0.00    -0.168 C  
HETATM   17  C   UNL     1     -10.359   6.354  72.829  1.00  0.00    -0.201 C  
HETATM   18  N   UNL     1     -10.665   6.502  74.072  1.00  0.00    -0.452 NA 
HETATM   19  H2  UNL     1     -10.272   7.312  74.550  1.00  0.00     0.000 HD 
HETATM   20  H1  UNL     1     -11.263   5.884  74.622  1.00  0.00     0.000 HD 
ENDBRANCH  12  13
ENDBRANCH   3  12
TORSDOF 2
ENDMDL
MODEL       81
REMARK 921   NORMALIZED FREE ENERGY PREDICTED BY IDOCK:   -4.76 KCAL/MOL
REMARK 922        TOTAL FREE ENERGY PREDICTED BY IDOCK:   -5.66 KCAL/MOL
REMARK 923 INTER-LIGAND FREE ENERGY PREDICTED BY IDOCK:   -5.33 KCAL/MOL
REMARK 924 INTRA-LIGAND FREE ENERGY PREDICTED BY IDOCK:   -0.33 KCAL/MOL
REMARK 927      BINDING AFFINITY PREDICTED BY RF-SCORE:    0.00 PKD
ROOT
HETATM    1 CL   UNL     1     -13.058  11.346  71.517  1.00  0.00    -0.498 Cl 
HETATM    2  C   UNL     1     -12.549   9.702  71.486  1.00  0.00    -0.391 C  
HETATM    3  C   UNL     1     -11.446   9.259  70.854  1.00  0.00    -0.303 C  
HETATM    4  C   UNL     1     -13.410   8.713  72.203  1.00  0.00    -0.396 C  
HETATM    5  N   UNL     1     -11.172   7.903  70.852  1.00  0.00    -0.267 N  
HETATM    6  C   UNL     1     -11.955   6.940  71.412  1.00  0.00    -0.349 C  
HETATM    7  O   UNL     1     -14.369   9.041  72.896  1.00  0.00    -0.550 OA 
HETATM    8  H   UNL     1     -10.314   7.600  70.394  1.00  0.00     0.000 HD 
HETATM    9  O   UNL     1     -11.689   5.745  71.357  1.00  0.00    -0.074 OA 
HETATM   10  N   UNL     1     -13.076   7.395  72.045  1.00  0.00    -0.515 N  
HETATM   11  H   UNL     1     -13.713   6.699  72.430  1.00  0.00     0.000 HD 
ENDROOT
BRANCH   3  12
HETATM   12  C   UNL     1     -10.493  10.123  70.052  1.00  0.00    -0.274 C  
BRANCH  12  13
HETATM   13  N   UNL     1     -10.516   9.793  68.626  1.00  0.00    -0.201 NA 
HETATM   14  C   UNL     1      -8.883  10.116  66.979  1.00  0.00    -0.144 C  
HETATM   15  C   UNL     1     -10.189  10.698  66.445  1.00  0.00    -0.291 C  
HETATM   16  C   UNL     1      -9.335   9.138  68.062  1.00  0.00    -0.137 C  
HETATM   17  C   UNL     1     -11.038  10.666  67.695  1.00  0.00    -0.319 C  
HETATM   18  N   UNL     1     -12.100  11.382  67.835  1.00  0.00    -0.621 NA 
HETATM   19  H2  UNL     1     -12.602  11.294  68.718  1.00  0.00     0.000 HD 
HETATM   20  H1  UNL     1     -12.485  12.028  67.145  1.00  0.00     0.000 HD 
ENDBRANCH  12  13
ENDBRANCH   3  12
TORSDOF 2
ENDMDL
MODEL       82
REMARK 921   NORMALIZED FREE ENERGY PREDICTED BY IDOCK:   -4.75 KCAL/MOL
REMARK 922        TOTAL FREE ENERGY PREDICTED BY IDOCK:   -5.64 KCAL/MOL
REMARK 923 INTER-LIGAND FREE ENERGY PREDICTED BY IDOCK:   -5.28 KCAL/MOL
REMARK 924 INTRA-LIGAND FREE ENERGY PREDICTED BY IDOCK:   -0.36 KCAL/MOL
REMARK 927      BINDING AFFINITY PREDICTED BY RF-SCORE:    0.00 PKD
ROOT
HETATM    1 CL   UNL     1     -11.375  11.114  67.170  1.00  0.00    -0.324 Cl 
HETATM    2  C   UNL     1     -11.762  12.235  68.418  1.00  0.00    -0.337 C  
HETATM    3  C   UNL     1     -12.033  13.538  68.213  1.00  0.00    -0.342 C  
HETATM    4  C   UNL     1     -11.779  11.712  69.817  1.00  0.00    -0.352 C  
HETATM    5  N   UNL     1     -12.274  14.354  69.304  1.00  0.00    -0.504 N  
HETATM    6  C   UNL     1     -12.223  13.963  70.607  1.00  0.00    -0.373 C  
HETATM    7  O   UNL     1     -11.654  10.521  70.086  1.00  0.00    -0.275 OA 
HETATM    8  H   UNL     1     -12.508  15.328  69.117  1.00  0.00     0.000 HD 
HETATM    9  O   UNL     1     -12.411  14.730  71.544  1.00  0.00    -0.311 OA 
HETATM   10  N   UNL     1     -11.940  12.643  70.808  1.00  0.00    -0.471 N  
HETATM   11  H   UNL     1     -11.842  12.325  71.772  1.00  0.00     0.000 HD 
ENDROOT
BRANCH   3  12
HETATM   12  C   UNL     1     -12.017  14.231  66.864  1.00  0.00    -0.438 C  
BRANCH  12  13
HETATM   13  N   UNL     1     -10.729  14.866  66.585  1.00  0.00    -0.306 NA 
HETATM   14  C   UNL     1      -8.559  14.172  67.126  1.00  0.00    -0.230 C  
HETATM   15  C   UNL     1      -8.704  15.618  67.595  1.00  0.00    -0.182 C  
HETATM   16  C   UNL     1      -9.651  14.019  66.070  1.00  0.00    -0.205 C  
HETATM   17  C   UNL     1     -10.195  15.811  67.435  1.00  0.00    -0.270 C  
HETATM   18  N   UNL     1     -10.844  16.747  68.037  1.00  0.00    -0.358 NA 
HETATM   19  H2  UNL     1     -11.849  16.793  67.868  1.00  0.00     0.000 HD 
HETATM   20  H1  UNL     1     -10.449  17.446  68.665  1.00  0.00     0.000 HD 
ENDBRANCH  12  13
ENDBRANCH   3  12
TORSDOF 2
ENDMDL
MODEL       83
REMARK 921   NORMALIZED FREE ENERGY PREDICTED BY IDOCK:   -4.71 KCAL/MOL
REMARK 922        TOTAL FREE ENERGY PREDICTED BY IDOCK:   -5.60 KCAL/MOL
REMARK 923 INTER-LIGAND FREE ENERGY PREDICTED BY IDOCK:   -5.12 KCAL/MOL
REMARK 924 INTRA-LIGAND FREE ENERGY PREDICTED BY IDOCK:   -0.48 KCAL/MOL
REMARK 927      BINDING AFFINITY PREDICTED BY RF-SCORE:    0.00 PKD
ROOT
HETATM    1 CL   UNL     1     -12.652  11.797  63.229  1.00  0.00    -0.578 Cl 
HETATM    2  C   UNL     1     -11.633  12.687  64.294  1.00  0.00    -0.374 C  
HETATM    3  C   UNL     1     -10.572  12.169  64.942  1.00  0.00    -0.293 C  
HETATM    4  C   UNL     1     -11.974  14.125  64.513  1.00  0.00    -0.458 C  
HETATM    5  N   UNL     1      -9.863  12.971  65.818  1.00  0.00    -0.403 N  
HETATM    6  C   UNL     1     -10.168  14.262  66.127  1.00  0.00    -0.307 C  
HETATM    7  O   UNL     1     -12.852  14.707  63.882  1.00  0.00    -0.691 OA 
HETATM    8  H   UNL     1      -9.045  12.562  66.269  1.00  0.00     0.000 HD 
HETATM    9  O   UNL     1      -9.529  14.925  66.937  1.00  0.00    -0.218 OA 
HETATM   10  N   UNL     1     -11.248  14.778  65.473  1.00  0.00    -0.337 N  
HETATM   11  H   UNL     1     -11.538  15.724  65.718  1.00  0.00     0.000 HD 
ENDROOT
BRANCH   3  12
HETATM   12  C   UNL     1     -10.119  10.724  64.859  1.00  0.00    -0.322 C  
BRANCH  12  13
HETATM   13  N   UNL     1      -8.909  10.570  64.052  1.00  0.00    -0.191 NA 
HETATM   14  C   UNL     1      -7.967   8.649  63.101  1.00  0.00    -0.162 C  
HETATM   15  C   UNL     1      -6.862   9.359  63.880  1.00  0.00    -0.096 C  
HETATM   16  C   UNL     1      -8.997   9.746  62.845  1.00  0.00    -0.257 C  
HETATM   17  C   UNL     1      -7.674  10.385  64.637  1.00  0.00    -0.063 C  
HETATM   18  N   UNL     1      -7.235  10.980  65.692  1.00  0.00    -0.369 NA 
HETATM   19  H2  UNL     1      -7.860  11.653  66.136  1.00  0.00     0.000 HD 
HETATM   20  H1  UNL     1      -6.321  10.842  66.124  1.00  0.00     0.000 HD 
ENDBRANCH  12  13
ENDBRANCH   3  12
TORSDOF 2
ENDMDL
MODEL       84
REMARK 921   NORMALIZED FREE ENERGY PREDICTED BY IDOCK:   -4.70 KCAL/MOL
REMARK 922        TOTAL FREE ENERGY PREDICTED BY IDOCK:   -5.59 KCAL/MOL
REMARK 923 INTER-LIGAND FREE ENERGY PREDICTED BY IDOCK:   -5.25 KCAL/MOL
REMARK 924 INTRA-LIGAND FREE ENERGY PREDICTED BY IDOCK:   -0.34 KCAL/MOL
REMARK 927      BINDING AFFINITY PREDICTED BY RF-SCORE:    0.00 PKD
ROOT
HETATM    1 CL   UNL     1     -12.436  14.708  69.869  1.00  0.00    -0.327 Cl 
HETATM    2  C   UNL     1     -11.970  13.396  68.857  1.00  0.00    -0.324 C  
HETATM    3  C   UNL     1     -11.840  12.122  69.274  1.00  0.00    -0.313 C  
HETATM    4  C   UNL     1     -11.679  13.715  67.426  1.00  0.00    -0.381 C  
HETATM    5  N   UNL     1     -11.401  11.164  68.378  1.00  0.00    -0.262 N  
HETATM    6  C   UNL     1     -11.040  11.399  67.086  1.00  0.00    -0.305 C  
HETATM    7  O   UNL     1     -11.878  14.822  66.935  1.00  0.00    -0.354 OA 
HETATM    8  H   UNL     1     -11.344  10.202  68.712  1.00  0.00     0.000 HD 
HETATM    9  O   UNL     1     -10.625  10.522  66.337  1.00  0.00    -0.219 OA 
HETATM   10  N   UNL     1     -11.167  12.693  66.673  1.00  0.00    -0.285 N  
HETATM   11  H   UNL     1     -10.856  12.917  65.728  1.00  0.00     0.000 HD 
ENDROOT
BRANCH   3  12
HETATM   12  C   UNL     1     -12.057  11.643  70.696  1.00  0.00    -0.335 C  
BRANCH  12  13
HETATM   13  N   UNL     1     -12.144  10.184  70.779  1.00  0.00    -0.318 NA 
HETATM   14  C   UNL     1     -12.914   8.818  72.519  1.00  0.00    -0.382 C  
HETATM   15  C   UNL     1     -11.536   8.302  72.111  1.00  0.00    -0.428 C  
HETATM   16  C   UNL     1     -13.385   9.606  71.298  1.00  0.00    -0.330 C  
HETATM   17  C   UNL     1     -11.077   9.425  71.209  1.00  0.00    -0.376 C  
HETATM   18  N   UNL     1      -9.838   9.616  70.912  1.00  0.00    -0.309 NA 
HETATM   19  H2  UNL     1      -9.627  10.404  70.299  1.00  0.00     0.000 HD 
HETATM   20  H1  UNL     1      -9.048   9.053  71.230  1.00  0.00     0.000 HD 
ENDBRANCH  12  13
ENDBRANCH   3  12
TORSDOF 2
ENDMDL
MODEL       85
REMARK 921   NORMALIZED FREE ENERGY PREDICTED BY IDOCK:   -4.68 KCAL/MOL
REMARK 922        TOTAL FREE ENERGY PREDICTED BY IDOCK:   -5.57 KCAL/MOL
REMARK 923 INTER-LIGAND FREE ENERGY PREDICTED BY IDOCK:   -5.18 KCAL/MOL
REMARK 924 INTRA-LIGAND FREE ENERGY PREDICTED BY IDOCK:   -0.38 KCAL/MOL
REMARK 927      BINDING AFFINITY PREDICTED BY RF-SCORE:    0.00 PKD
ROOT
HETATM    1 CL   UNL     1     -12.435  13.367  70.641  1.00  0.00    -0.404 Cl 
HETATM    2  C   UNL     1     -11.873  14.692  69.697  1.00  0.00    -0.320 C  
HETATM    3  C   UNL     1     -11.728  14.666  68.358  1.00  0.00    -0.320 C  
HETATM    4  C   UNL     1     -11.513  15.943  70.431  1.00  0.00    -0.378 C  
HETATM    5  N   UNL     1     -11.211  15.777  67.716  1.00  0.00    -0.320 N  
HETATM    6  C   UNL     1     -10.785  16.915  68.331  1.00  0.00    -0.368 C  
HETATM    7  O   UNL     1     -11.717  16.094  71.632  1.00  0.00    -0.467 OA 
HETATM    8  H   UNL     1     -11.143  15.741  66.700  1.00  0.00     0.000 HD 
HETATM    9  O   UNL     1     -10.302  17.864  67.723  1.00  0.00    -0.352 OA 
HETATM   10  N   UNL     1     -10.928  16.933  69.688  1.00  0.00    -0.365 N  
HETATM   11  H   UNL     1     -10.572  17.747  70.187  1.00  0.00     0.000 HD 
ENDROOT
BRANCH   3  12
HETATM   12  C   UNL     1     -12.009  13.467  67.473  1.00  0.00    -0.346 C  
BRANCH  12  13
HETATM   13  N   UNL     1     -10.789  12.740  67.124  1.00  0.00    -0.252 NA 
HETATM   14  C   UNL     1      -8.764  12.550  68.286  1.00  0.00    -0.171 C  
HETATM   15  C   UNL     1      -8.430  12.972  66.857  1.00  0.00    -0.087 C  
HETATM   16  C   UNL     1     -10.156  11.933  68.169  1.00  0.00    -0.198 C  
HETATM   17  C   UNL     1      -9.809  13.314  66.342  1.00  0.00    -0.281 C  
HETATM   18  N   UNL     1     -10.001  14.055  65.305  1.00  0.00    -0.554 NA 
HETATM   19  H2  UNL     1     -10.969  14.234  65.038  1.00  0.00     0.000 HD 
HETATM   20  H1  UNL     1      -9.276  14.480  64.726  1.00  0.00     0.000 HD 
ENDBRANCH  12  13
ENDBRANCH   3  12
TORSDOF 2
ENDMDL
MODEL       86
REMARK 921   NORMALIZED FREE ENERGY PREDICTED BY IDOCK:   -4.65 KCAL/MOL
REMARK 922        TOTAL FREE ENERGY PREDICTED BY IDOCK:   -5.53 KCAL/MOL
REMARK 923 INTER-LIGAND FREE ENERGY PREDICTED BY IDOCK:   -5.27 KCAL/MOL
REMARK 924 INTRA-LIGAND FREE ENERGY PREDICTED BY IDOCK:   -0.26 KCAL/MOL
REMARK 927      BINDING AFFINITY PREDICTED BY RF-SCORE:    0.00 PKD
ROOT
HETATM    1 CL   UNL     1     -10.803  19.763  66.890  1.00  0.00    -0.545 Cl 
HETATM    2  C   UNL     1      -9.491  18.968  67.671  1.00  0.00    -0.306 C  
HETATM    3  C   UNL     1      -9.519  17.690  68.096  1.00  0.00    -0.286 C  
HETATM    4  C   UNL     1      -8.250  19.769  67.895  1.00  0.00    -0.301 C  
HETATM    5  N   UNL     1      -8.421  17.179  68.763  1.00  0.00    -0.250 N  
HETATM    6  C   UNL     1      -7.293  17.876  69.074  1.00  0.00    -0.190 C  
HETATM    7  O   UNL     1      -8.095  20.900  67.444  1.00  0.00    -0.279 OA 
HETATM    8  H   UNL     1      -8.458  16.200  69.044  1.00  0.00     0.000 HD 
HETATM    9  O   UNL     1      -6.356  17.390  69.697  1.00  0.00    -0.250 OA 
HETATM   10  N   UNL     1      -7.274  19.172  68.647  1.00  0.00    -0.307 N  
HETATM   11  H   UNL     1      -6.468  19.741  68.908  1.00  0.00     0.000 HD 
ENDROOT
BRANCH   3  12
HETATM   12  C   UNL     1     -10.711  16.759  67.981  1.00  0.00    -0.355 C  
BRANCH  12  13
HETATM   13  N   UNL     1     -10.498  15.711  66.982  1.00  0.00    -0.297 NA 
HETATM   14  C   UNL     1     -11.149  15.618  64.734  1.00  0.00    -0.426 C  
HETATM   15  C   UNL     1     -11.611  14.322  65.396  1.00  0.00    -0.346 C  
HETATM   16  C   UNL     1     -10.038  16.122  65.654  1.00  0.00    -0.337 C  
HETATM   17  C   UNL     1     -11.374  14.655  66.851  1.00  0.00    -0.356 C  
HETATM   18  N   UNL     1     -11.942  14.014  67.813  1.00  0.00    -0.440 NA 
HETATM   19  H2  UNL     1     -11.723  14.317  68.762  1.00  0.00     0.000 HD 
HETATM   20  H1  UNL     1     -12.591  13.232  67.716  1.00  0.00     0.000 HD 
ENDBRANCH  12  13
ENDBRANCH   3  12
TORSDOF 2
ENDMDL
MODEL       87
REMARK 921   NORMALIZED FREE ENERGY PREDICTED BY IDOCK:   -4.61 KCAL/MOL
REMARK 922        TOTAL FREE ENERGY PREDICTED BY IDOCK:   -5.49 KCAL/MOL
REMARK 923 INTER-LIGAND FREE ENERGY PREDICTED BY IDOCK:   -5.21 KCAL/MOL
REMARK 924 INTRA-LIGAND FREE ENERGY PREDICTED BY IDOCK:   -0.28 KCAL/MOL
REMARK 927      BINDING AFFINITY PREDICTED BY RF-SCORE:    0.00 PKD
ROOT
HETATM    1 CL   UNL     1      -8.410  14.108  67.115  1.00  0.00    -0.211 Cl 
HETATM    2  C   UNL     1      -9.274  15.592  67.234  1.00  0.00    -0.204 C  
HETATM    3  C   UNL     1     -10.093  16.075  66.281  1.00  0.00    -0.313 C  
HETATM    4  C   UNL     1      -9.078  16.392  68.481  1.00  0.00    -0.223 C  
HETATM    5  N   UNL     1     -10.688  17.310  66.468  1.00  0.00    -0.157 N  
HETATM    6  C   UNL     1     -10.488  18.127  67.538  1.00  0.00    -0.410 C  
HETATM    7  O   UNL     1      -8.440  15.979  69.445  1.00  0.00    -0.247 OA 
HETATM    8  H   UNL     1     -11.329  17.635  65.744  1.00  0.00     0.000 HD 
HETATM    9  O   UNL     1     -11.012  19.230  67.646  1.00  0.00    -0.431 OA 
HETATM   10  N   UNL     1      -9.651  17.635  68.497  1.00  0.00    -0.303 N  
HETATM   11  H   UNL     1      -9.436  18.241  69.289  1.00  0.00     0.000 HD 
ENDROOT
BRANCH   3  12
HETATM   12  C   UNL     1     -10.367  15.408  64.946  1.00  0.00    -0.221 C  
BRANCH  12  13
HETATM   13  N   UNL     1     -11.253  14.251  65.079  1.00  0.00    -0.345 NA 
HETATM   14  C   UNL     1     -11.847  13.019  66.980  1.00  0.00    -0.437 C  
HETATM   15  C   UNL     1     -11.383  12.024  65.919  1.00  0.00    -0.391 C  
HETATM   16  C   UNL     1     -12.224  14.261  66.175  1.00  0.00    -0.410 C  
HETATM   17  C   UNL     1     -10.789  12.966  64.898  1.00  0.00    -0.308 C  
HETATM   18  N   UNL     1      -9.955  12.579  63.996  1.00  0.00    -0.601 NA 
HETATM   19  H2  UNL     1      -9.605  13.291  63.354  1.00  0.00     0.000 HD 
HETATM   20  H1  UNL     1      -9.611  11.628  63.862  1.00  0.00     0.000 HD 
ENDBRANCH  12  13
ENDBRANCH   3  12
TORSDOF 2
ENDMDL
MODEL       88
REMARK 921   NORMALIZED FREE ENERGY PREDICTED BY IDOCK:   -4.54 KCAL/MOL
REMARK 922        TOTAL FREE ENERGY PREDICTED BY IDOCK:   -5.42 KCAL/MOL
REMARK 923 INTER-LIGAND FREE ENERGY PREDICTED BY IDOCK:   -5.22 KCAL/MOL
REMARK 924 INTRA-LIGAND FREE ENERGY PREDICTED BY IDOCK:   -0.20 KCAL/MOL
REMARK 927      BINDING AFFINITY PREDICTED BY RF-SCORE:    0.00 PKD
ROOT
HETATM    1 CL   UNL     1     -10.906  19.055  67.234  1.00  0.00    -0.544 Cl 
HETATM    2  C   UNL     1      -9.478  18.121  67.013  1.00  0.00    -0.274 C  
HETATM    3  C   UNL     1      -9.391  17.040  66.215  1.00  0.00    -0.248 C  
HETATM    4  C   UNL     1      -8.266  18.546  67.777  1.00  0.00    -0.251 C  
HETATM    5  N   UNL     1      -8.201  16.336  66.164  1.00  0.00    -0.272 N  
HETATM    6  C   UNL     1      -7.088  16.617  66.896  1.00  0.00    -0.229 C  
HETATM    7  O   UNL     1      -8.222  19.579  68.439  1.00  0.00    -0.333 OA 
HETATM    8  H   UNL     1      -8.154  15.542  65.527  1.00  0.00     0.000 HD 
HETATM    9  O   UNL     1      -6.064  15.944  66.843  1.00  0.00    -0.297 OA 
HETATM   10  N   UNL     1      -7.185  17.709  67.708  1.00  0.00    -0.187 N  
HETATM   11  H   UNL     1      -6.389  17.919  68.310  1.00  0.00     0.000 HD 
ENDROOT
BRANCH   3  12
HETATM   12  C   UNL     1     -10.534  16.458  65.406  1.00  0.00    -0.311 C  
BRANCH  12  13
HETATM   13  N   UNL     1     -10.980  15.167  65.932  1.00  0.00    -0.338 NA 
HETATM   14  C   UNL     1     -10.303  14.006  67.849  1.00  0.00    -0.239 C  
HETATM   15  C   UNL     1     -10.218  13.034  66.675  1.00  0.00    -0.257 C  
HETATM   16  C   UNL     1     -11.273  15.081  67.364  1.00  0.00    -0.335 C  
HETATM   17  C   UNL     1     -10.406  13.985  65.516  1.00  0.00    -0.339 C  
HETATM   18  N   UNL     1     -10.056  13.692  64.311  1.00  0.00    -0.763 NA 
HETATM   19  H2  UNL     1     -10.220  14.402  63.597  1.00  0.00     0.000 HD 
HETATM   20  H1  UNL     1      -9.632  12.817  64.003  1.00  0.00     0.000 HD 
ENDBRANCH  12  13
ENDBRANCH   3  12
TORSDOF 2
ENDMDL
MODEL       89
REMARK 921   NORMALIZED FREE ENERGY PREDICTED BY IDOCK:   -4.54 KCAL/MOL
REMARK 922        TOTAL FREE ENERGY PREDICTED BY IDOCK:   -5.41 KCAL/MOL
REMARK 923 INTER-LIGAND FREE ENERGY PREDICTED BY IDOCK:   -5.44 KCAL/MOL
REMARK 924 INTRA-LIGAND FREE ENERGY PREDICTED BY IDOCK:    0.02 KCAL/MOL
REMARK 927      BINDING AFFINITY PREDICTED BY RF-SCORE:    0.00 PKD
ROOT
HETATM    1 CL   UNL     1      -9.889   9.576  66.086  1.00  0.00    -0.323 Cl 
HETATM    2  C   UNL     1     -10.575  10.590  67.296  1.00  0.00    -0.264 C  
HETATM    3  C   UNL     1     -11.347  11.664  67.041  1.00  0.00    -0.305 C  
HETATM    4  C   UNL     1     -10.270  10.249  68.718  1.00  0.00    -0.192 C  
HETATM    5  N   UNL     1     -11.793  12.436  68.098  1.00  0.00    -0.346 N  
HETATM    6  C   UNL     1     -11.485  12.232  69.409  1.00  0.00    -0.277 C  
HETATM    7  O   UNL     1      -9.670   9.229  69.046  1.00  0.00    -0.157 OA 
HETATM    8  H   UNL     1     -12.402  13.224  67.878  1.00  0.00     0.000 HD 
HETATM    9  O   UNL     1     -11.877  12.964  70.311  1.00  0.00    -0.305 OA 
HETATM   10  N   UNL     1     -10.696  11.147  69.659  1.00  0.00    -0.447 N  
HETATM   11  H   UNL     1     -10.402  10.993  70.623  1.00  0.00     0.000 HD 
ENDROOT
BRANCH   3  12
HETATM   12  C   UNL     1     -11.714  12.166  65.659  1.00  0.00    -0.323 C  
BRANCH  12  13
HETATM   13  N   UNL     1     -10.762  13.160  65.161  1.00  0.00    -0.304 NA 
HETATM   14  C   UNL     1      -9.747  14.959  66.265  1.00  0.00    -0.320 C  
HETATM   15  C   UNL     1     -10.359  15.502  64.976  1.00  0.00    -0.327 C  
HETATM   16  C   UNL     1      -9.598  13.463  65.996  1.00  0.00    -0.159 C  
HETATM   17  C   UNL     1     -11.188  14.315  64.542  1.00  0.00    -0.322 C  
HETATM   18  N   UNL     1     -12.161  14.415  63.704  1.00  0.00    -1.068 NA 
HETATM   19  H2  UNL     1     -12.665  13.557  63.477  1.00  0.00     0.000 HD 
HETATM   20  H1  UNL     1     -12.476  15.271  63.246  1.00  0.00     0.000 HD 
ENDBRANCH  12  13
ENDBRANCH   3  12
TORSDOF 2
ENDMDL
MODEL       90
REMARK 921   NORMALIZED FREE ENERGY PREDICTED BY IDOCK:   -4.51 KCAL/MOL
REMARK 922        TOTAL FREE ENERGY PREDICTED BY IDOCK:   -5.38 KCAL/MOL
REMARK 923 INTER-LIGAND FREE ENERGY PREDICTED BY IDOCK:   -4.95 KCAL/MOL
REMARK 924 INTRA-LIGAND FREE ENERGY PREDICTED BY IDOCK:   -0.43 KCAL/MOL
REMARK 927      BINDING AFFINITY PREDICTED BY RF-SCORE:    0.00 PKD
ROOT
HETATM    1 CL   UNL     1     -11.655  11.634  64.045  1.00  0.00    -0.413 Cl 
HETATM    2  C   UNL     1     -11.699  12.439  65.566  1.00  0.00    -0.407 C  
HETATM    3  C   UNL     1     -11.224  11.922  66.715  1.00  0.00    -0.327 C  
HETATM    4  C   UNL     1     -12.321  13.797  65.596  1.00  0.00    -0.482 C  
HETATM    5  N   UNL     1     -11.369  12.642  67.887  1.00  0.00    -0.268 N  
HETATM    6  C   UNL     1     -11.999  13.844  68.000  1.00  0.00    -0.355 C  
HETATM    7  O   UNL     1     -12.678  14.391  64.582  1.00  0.00    -0.655 OA 
HETATM    8  H   UNL     1     -10.971  12.241  68.735  1.00  0.00     0.000 HD 
HETATM    9  O   UNL     1     -12.132  14.432  69.068  1.00  0.00    -0.312 OA 
HETATM   10  N   UNL     1     -12.483  14.360  66.833  1.00  0.00    -0.510 N  
HETATM   11  H   UNL     1     -13.007  15.233  66.887  1.00  0.00     0.000 HD 
ENDROOT
BRANCH   3  12
HETATM   12  C   UNL     1     -10.602  10.547  66.862  1.00  0.00    -0.243 C  
BRANCH  12  13
HETATM   13  N   UNL     1      -9.217  10.614  67.327  1.00  0.00    -0.143 NA 
HETATM   14  C   UNL     1      -7.472   9.069  67.094  1.00  0.00    -0.087 C  
HETATM   15  C   UNL     1      -7.555   9.442  68.572  1.00  0.00    -0.081 C  
HETATM   16  C   UNL     1      -8.164  10.232  66.385  1.00  0.00    -0.129 C  
HETATM   17  C   UNL     1      -8.864  10.197  68.593  1.00  0.00    -0.136 C  
HETATM   18  N   UNL     1      -9.534  10.399  69.675  1.00  0.00    -0.401 NA 
HETATM   19  H2  UNL     1     -10.409  10.916  69.586  1.00  0.00     0.000 HD 
HETATM   20  H1  UNL     1      -9.272  10.090  70.612  1.00  0.00     0.000 HD 
ENDBRANCH  12  13
ENDBRANCH   3  12
TORSDOF 2
ENDMDL
MODEL       91
REMARK 921   NORMALIZED FREE ENERGY PREDICTED BY IDOCK:   -4.50 KCAL/MOL
REMARK 922        TOTAL FREE ENERGY PREDICTED BY IDOCK:   -5.38 KCAL/MOL
REMARK 923 INTER-LIGAND FREE ENERGY PREDICTED BY IDOCK:   -4.93 KCAL/MOL
REMARK 924 INTRA-LIGAND FREE ENERGY PREDICTED BY IDOCK:   -0.45 KCAL/MOL
REMARK 927      BINDING AFFINITY PREDICTED BY RF-SCORE:    0.00 PKD
ROOT
HETATM    1 CL   UNL     1      -9.794  10.735  65.826  1.00  0.00    -0.276 Cl 
HETATM    2  C   UNL     1     -10.205  10.412  67.466  1.00  0.00    -0.210 C  
HETATM    3  C   UNL     1     -10.172  11.327  68.454  1.00  0.00    -0.195 C  
HETATM    4  C   UNL     1     -10.610   9.013  67.800  1.00  0.00    -0.214 C  
HETATM    5  N   UNL     1     -10.469  10.932  69.745  1.00  0.00    -0.448 N  
HETATM    6  C   UNL     1     -10.764   9.660  70.133  1.00  0.00    -0.275 C  
HETATM    7  O   UNL     1     -10.775   8.145  66.948  1.00  0.00    -0.309 OA 
HETATM    8  H   UNL     1     -10.468  11.652  70.467  1.00  0.00     0.000 HD 
HETATM    9  O   UNL     1     -10.989   9.350  71.297  1.00  0.00    -0.317 OA 
HETATM   10  N   UNL     1     -10.789   8.737  69.128  1.00  0.00    -0.412 N  
HETATM   11  H   UNL     1     -10.954   7.765  69.388  1.00  0.00     0.000 HD 
ENDROOT
BRANCH   3  12
HETATM   12  C   UNL     1      -9.746  12.773  68.290  1.00  0.00    -0.216 C  
BRANCH  12  13
HETATM   13  N   UNL     1     -10.891  13.682  68.232  1.00  0.00    -0.244 NA 
HETATM   14  C   UNL     1     -10.970  15.978  67.774  1.00  0.00    -0.307 C  
HETATM   15  C   UNL     1     -11.743  15.746  69.070  1.00  0.00    -0.405 C  
HETATM   16  C   UNL     1     -10.968  14.607  67.100  1.00  0.00    -0.316 C  
HETATM   17  C   UNL     1     -11.366  14.312  69.363  1.00  0.00    -0.282 C  
HETATM   18  N   UNL     1     -11.483  13.786  70.534  1.00  0.00    -0.502 NA 
HETATM   19  H2  UNL     1     -11.197  12.812  70.633  1.00  0.00     0.000 HD 
HETATM   20  H1  UNL     1     -11.835  14.252  71.371  1.00  0.00     0.000 HD 
ENDBRANCH  12  13
ENDBRANCH   3  12
TORSDOF 2
ENDMDL
MODEL       92
REMARK 921   NORMALIZED FREE ENERGY PREDICTED BY IDOCK:   -4.50 KCAL/MOL
REMARK 922        TOTAL FREE ENERGY PREDICTED BY IDOCK:   -5.37 KCAL/MOL
REMARK 923 INTER-LIGAND FREE ENERGY PREDICTED BY IDOCK:   -5.10 KCAL/MOL
REMARK 924 INTRA-LIGAND FREE ENERGY PREDICTED BY IDOCK:   -0.27 KCAL/MOL
REMARK 927      BINDING AFFINITY PREDICTED BY RF-SCORE:    0.00 PKD
ROOT
HETATM    1 CL   UNL     1     -10.823  14.973  66.405  1.00  0.00    -0.322 Cl 
HETATM    2  C   UNL     1     -10.463  16.635  66.671  1.00  0.00    -0.258 C  
HETATM    3  C   UNL     1      -9.934  17.127  67.808  1.00  0.00    -0.290 C  
HETATM    4  C   UNL     1     -10.779  17.583  65.560  1.00  0.00    -0.062 C  
HETATM    5  N   UNL     1      -9.743  18.492  67.925  1.00  0.00    -0.303 N  
HETATM    6  C   UNL     1     -10.085  19.419  66.988  1.00  0.00    -0.387 C  
HETATM    7  O   UNL     1     -11.157  17.212  64.453  1.00  0.00    -1.100 OA 
HETATM    8  H   UNL     1      -9.311  18.832  68.784  1.00  0.00     0.000 HD 
HETATM    9  O   UNL     1      -9.927  20.624  67.149  1.00  0.00    -0.452 OA 
HETATM   10  N   UNL     1     -10.627  18.915  65.841  1.00  0.00    -0.459 N  
HETATM   11  H   UNL     1     -10.944  19.582  65.139  1.00  0.00     0.000 HD 
ENDROOT
BRANCH   3  12
HETATM   12  C   UNL     1      -9.596  16.308  69.038  1.00  0.00    -0.257 C  
BRANCH  12  13
HETATM   13  N   UNL     1      -8.228  15.790  68.998  1.00  0.00    -0.217 NA 
HETATM   14  C   UNL     1      -6.650  15.838  67.267  1.00  0.00    -0.169 C  
HETATM   15  C   UNL     1      -6.743  14.395  67.759  1.00  0.00    -0.191 C  
HETATM   16  C   UNL     1      -7.190  16.658  68.438  1.00  0.00    -0.173 C  
HETATM   17  C   UNL     1      -7.964  14.484  68.645  1.00  0.00    -0.145 C  
HETATM   18  N   UNL     1      -8.646  13.449  68.997  1.00  0.00    -0.314 NA 
HETATM   19  H2  UNL     1      -9.457  13.611  69.594  1.00  0.00     0.000 HD 
HETATM   20  H1  UNL     1      -8.450  12.482  68.736  1.00  0.00     0.000 HD 
ENDBRANCH  12  13
ENDBRANCH   3  12
TORSDOF 2
ENDMDL
MODEL       93
REMARK 921   NORMALIZED FREE ENERGY PREDICTED BY IDOCK:   -4.50 KCAL/MOL
REMARK 922        TOTAL FREE ENERGY PREDICTED BY IDOCK:   -5.37 KCAL/MOL
REMARK 923 INTER-LIGAND FREE ENERGY PREDICTED BY IDOCK:   -5.05 KCAL/MOL
REMARK 924 INTRA-LIGAND FREE ENERGY PREDICTED BY IDOCK:   -0.32 KCAL/MOL
REMARK 927      BINDING AFFINITY PREDICTED BY RF-SCORE:    0.00 PKD
ROOT
HETATM    1 CL   UNL     1      -9.583   9.946  65.141  1.00  0.00    -0.347 Cl 
HETATM    2  C   UNL     1     -10.689  11.251  65.334  1.00  0.00    -0.227 C  
HETATM    3  C   UNL     1     -10.947  11.864  66.505  1.00  0.00    -0.292 C  
HETATM    4  C   UNL     1     -11.413  11.712  64.110  1.00  0.00    -0.280 C  
HETATM    5  N   UNL     1     -11.901  12.865  66.544  1.00  0.00    -0.398 N  
HETATM    6  C   UNL     1     -12.656  13.276  65.488  1.00  0.00    -0.446 C  
HETATM    7  O   UNL     1     -11.160  11.288  62.986  1.00  0.00    -0.071 OA 
HETATM    8  H   UNL     1     -12.052  13.333  67.437  1.00  0.00     0.000 HD 
HETATM    9  O   UNL     1     -13.515  14.145  65.577  1.00  0.00    -0.643 OA 
HETATM   10  N   UNL     1     -12.395  12.646  64.305  1.00  0.00    -0.508 N  
HETATM   11  H   UNL     1     -12.976  12.890  63.504  1.00  0.00     0.000 HD 
ENDROOT
BRANCH   3  12
HETATM   12  C   UNL     1     -10.330  11.491  67.839  1.00  0.00    -0.183 C  
BRANCH  12  13
HETATM   13  N   UNL     1     -11.209  10.631  68.632  1.00  0.00    -0.262 NA 
HETATM   14  C   UNL     1     -11.571  10.573  70.946  1.00  0.00    -0.385 C  
HETATM   15  C   UNL     1     -11.262   9.146  70.497  1.00  0.00    -0.309 C  
HETATM   16  C   UNL     1     -12.030  11.267  69.665  1.00  0.00    -0.353 C  
HETATM   17  C   UNL     1     -10.790   9.398  69.084  1.00  0.00    -0.155 C  
HETATM   18  N   UNL     1     -10.084   8.546  68.423  1.00  0.00    -0.189 NA 
HETATM   19  H2  UNL     1      -9.810   8.809  67.477  1.00  0.00     0.000 HD 
HETATM   20  H1  UNL     1      -9.774   7.633  68.757  1.00  0.00     0.000 HD 
ENDBRANCH  12  13
ENDBRANCH   3  12
TORSDOF 2
ENDMDL
MODEL       94
REMARK 921   NORMALIZED FREE ENERGY PREDICTED BY IDOCK:   -4.49 KCAL/MOL
REMARK 922        TOTAL FREE ENERGY PREDICTED BY IDOCK:   -5.35 KCAL/MOL
REMARK 923 INTER-LIGAND FREE ENERGY PREDICTED BY IDOCK:   -5.01 KCAL/MOL
REMARK 924 INTRA-LIGAND FREE ENERGY PREDICTED BY IDOCK:   -0.35 KCAL/MOL
REMARK 927      BINDING AFFINITY PREDICTED BY RF-SCORE:    0.00 PKD
ROOT
HETATM    1 CL   UNL     1     -13.778   9.072  72.540  1.00  0.00    -0.515 Cl 
HETATM    2  C   UNL     1     -12.627   9.531  71.345  1.00  0.00    -0.359 C  
HETATM    3  C   UNL     1     -11.910   8.663  70.606  1.00  0.00    -0.102 C  
HETATM    4  C   UNL     1     -12.414  10.995  71.136  1.00  0.00    -0.397 C  
HETATM    5  N   UNL     1     -10.973   9.153  69.715  1.00  0.00    -0.334 N  
HETATM    6  C   UNL     1     -10.668  10.468  69.536  1.00  0.00    -0.255 C  
HETATM    7  O   UNL     1     -13.100  11.854  71.683  1.00  0.00    -0.436 OA 
HETATM    8  H   UNL     1     -10.468   8.475  69.146  1.00  0.00     0.000 HD 
HETATM    9  O   UNL     1      -9.804  10.856  68.757  1.00  0.00    -0.184 OA 
HETATM   10  N   UNL     1     -11.394  11.342  70.292  1.00  0.00    -0.498 N  
HETATM   11  H   UNL     1     -11.157  12.332  70.224  1.00  0.00     0.000 HD 
ENDROOT
BRANCH   3  12
HETATM   12  C   UNL     1     -11.979   7.153  70.723  1.00  0.00    -0.310 C  
BRANCH  12  13
HETATM   13  N   UNL     1     -10.713   6.576  71.178  1.00  0.00    -0.233 NA 
HETATM   14  C   UNL     1     -10.030   4.339  71.286  1.00  0.00    -0.230 C  
HETATM   15  C   UNL     1      -9.764   4.962  72.654  1.00  0.00    -0.184 C  
HETATM   16  C   UNL     1     -10.101   5.539  70.345  1.00  0.00    -0.230 C  
HETATM   17  C   UNL     1     -10.497   6.276  72.506  1.00  0.00    -0.203 C  
HETATM   18  N   UNL     1     -10.860   6.989  73.516  1.00  0.00    -0.540 NA 
HETATM   19  H2  UNL     1     -11.354   7.858  73.313  1.00  0.00     0.000 HD 
HETATM   20  H1  UNL     1     -10.699   6.766  74.498  1.00  0.00     0.000 HD 
ENDBRANCH  12  13
ENDBRANCH   3  12
TORSDOF 2
ENDMDL
MODEL       95
REMARK 921   NORMALIZED FREE ENERGY PREDICTED BY IDOCK:   -4.47 KCAL/MOL
REMARK 922        TOTAL FREE ENERGY PREDICTED BY IDOCK:   -5.34 KCAL/MOL
REMARK 923 INTER-LIGAND FREE ENERGY PREDICTED BY IDOCK:   -5.04 KCAL/MOL
REMARK 924 INTRA-LIGAND FREE ENERGY PREDICTED BY IDOCK:   -0.30 KCAL/MOL
REMARK 927      BINDING AFFINITY PREDICTED BY RF-SCORE:    0.00 PKD
ROOT
HETATM    1 CL   UNL     1     -10.287  19.790  67.915  1.00  0.00    -0.563 Cl 
HETATM    2  C   UNL     1      -9.079  18.650  68.368  1.00  0.00    -0.324 C  
HETATM    3  C   UNL     1      -9.318  17.352  68.635  1.00  0.00    -0.267 C  
HETATM    4  C   UNL     1      -7.678  19.158  68.481  1.00  0.00    -0.341 C  
HETATM    5  N   UNL     1      -8.272  16.547  69.046  1.00  0.00    -0.232 N  
HETATM    6  C   UNL     1      -6.991  16.962  69.250  1.00  0.00    -0.211 C  
HETATM    7  O   UNL     1      -7.351  20.294  68.149  1.00  0.00    -0.279 OA 
HETATM    8  H   UNL     1      -8.476  15.561  69.210  1.00  0.00     0.000 HD 
HETATM    9  O   UNL     1      -6.101  16.218  69.647  1.00  0.00    -0.170 OA 
HETATM   10  N   UNL     1      -6.757  18.280  68.984  1.00  0.00    -0.257 N  
HETATM   11  H   UNL     1      -5.821  18.638  69.176  1.00  0.00     0.000 HD 
ENDROOT
BRANCH   3  12
HETATM   12  C   UNL     1     -10.683  16.693  68.607  1.00  0.00    -0.349 C  
BRANCH  12  13
HETATM   13  N   UNL     1     -10.593  15.233  68.660  1.00  0.00    -0.230 NA 
HETATM   14  C   UNL     1     -11.951  13.602  67.671  1.00  0.00    -0.386 C  
HETATM   15  C   UNL     1     -11.827  13.254  69.152  1.00  0.00    -0.378 C  
HETATM   16  C   UNL     1     -10.742  14.497  67.404  1.00  0.00    -0.282 C  
HETATM   17  C   UNL     1     -11.181  14.514  69.679  1.00  0.00    -0.253 C  
HETATM   18  N   UNL     1     -11.205  14.840  70.925  1.00  0.00    -0.514 NA 
HETATM   19  H2  UNL     1     -10.744  15.713  71.182  1.00  0.00     0.000 HD 
HETATM   20  H1  UNL     1     -11.640  14.308  71.679  1.00  0.00     0.000 HD 
ENDBRANCH  12  13
ENDBRANCH   3  12
TORSDOF 2
ENDMDL
MODEL       96
REMARK 921   NORMALIZED FREE ENERGY PREDICTED BY IDOCK:   -4.46 KCAL/MOL
REMARK 922        TOTAL FREE ENERGY PREDICTED BY IDOCK:   -5.33 KCAL/MOL
REMARK 923 INTER-LIGAND FREE ENERGY PREDICTED BY IDOCK:   -5.29 KCAL/MOL
REMARK 924 INTRA-LIGAND FREE ENERGY PREDICTED BY IDOCK:   -0.04 KCAL/MOL
REMARK 927      BINDING AFFINITY PREDICTED BY RF-SCORE:    0.00 PKD
ROOT
HETATM    1 CL   UNL     1     -11.532  16.276  64.259  1.00  0.00    -0.267 Cl 
HETATM    2  C   UNL     1     -10.565  15.428  65.403  1.00  0.00    -0.410 C  
HETATM    3  C   UNL     1      -9.965  15.999  66.465  1.00  0.00    -0.279 C  
HETATM    4  C   UNL     1     -10.380  13.962  65.179  1.00  0.00    -0.383 C  
HETATM    5  N   UNL     1      -9.165  15.222  67.283  1.00  0.00    -0.194 N  
HETATM    6  C   UNL     1      -8.886  13.903  67.090  1.00  0.00    -0.226 C  
HETATM    7  O   UNL     1     -10.977  13.339  64.306  1.00  0.00    -0.378 OA 
HETATM    8  H   UNL     1      -8.749  15.674  68.097  1.00  0.00     0.000 HD 
HETATM    9  O   UNL     1      -8.143  13.261  67.824  1.00  0.00    -0.138 OA 
HETATM   10  N   UNL     1      -9.492  13.332  66.009  1.00  0.00    -0.470 N  
HETATM   11  H   UNL     1      -9.265  12.360  65.802  1.00  0.00     0.000 HD 
ENDROOT
BRANCH   3  12
HETATM   12  C   UNL     1     -10.020  17.475  66.809  1.00  0.00    -0.313 C  
BRANCH  12  13
HETATM   13  N   UNL     1      -8.991  18.244  66.108  1.00  0.00    -0.498 NA 
HETATM   14  C   UNL     1      -6.762  18.660  66.692  1.00  0.00    -0.218 C  
HETATM   15  C   UNL     1      -7.406  20.006  66.368  1.00  0.00    -0.301 C  
HETATM   16  C   UNL     1      -7.660  17.646  65.987  1.00  0.00    -0.220 C  
HETATM   17  C   UNL     1      -8.861  19.604  66.291  1.00  0.00    -0.371 C  
HETATM   18  N   UNL     1      -9.825  20.453  66.395  1.00  0.00    -0.626 NA 
HETATM   19  H2  UNL     1     -10.774  20.083  66.336  1.00  0.00     0.000 HD 
HETATM   20  H1  UNL     1      -9.728  21.459  66.531  1.00  0.00     0.000 HD 
ENDBRANCH  12  13
ENDBRANCH   3  12
TORSDOF 2
ENDMDL
MODEL       97
REMARK 921   NORMALIZED FREE ENERGY PREDICTED BY IDOCK:   -4.46 KCAL/MOL
REMARK 922        TOTAL FREE ENERGY PREDICTED BY IDOCK:   -5.33 KCAL/MOL
REMARK 923 INTER-LIGAND FREE ENERGY PREDICTED BY IDOCK:   -4.99 KCAL/MOL
REMARK 924 INTRA-LIGAND FREE ENERGY PREDICTED BY IDOCK:   -0.33 KCAL/MOL
REMARK 927      BINDING AFFINITY PREDICTED BY RF-SCORE:    0.00 PKD
ROOT
HETATM    1 CL   UNL     1     -11.109  11.357  65.524  1.00  0.00    -0.257 Cl 
HETATM    2  C   UNL     1     -11.261  12.422  66.868  1.00  0.00    -0.305 C  
HETATM    3  C   UNL     1     -10.717  12.200  68.080  1.00  0.00    -0.213 C  
HETATM    4  C   UNL     1     -12.065  13.664  66.661  1.00  0.00    -0.411 C  
HETATM    5  N   UNL     1     -10.957  13.103  69.100  1.00  0.00    -0.404 N  
HETATM    6  C   UNL     1     -11.747  14.208  69.004  1.00  0.00    -0.324 C  
HETATM    7  O   UNL     1     -12.502  14.002  65.565  1.00  0.00    -0.458 OA 
HETATM    8  H   UNL     1     -10.507  12.926  69.997  1.00  0.00     0.000 HD 
HETATM    9  O   UNL     1     -11.959  14.964  69.946  1.00  0.00    -0.294 OA 
HETATM   10  N   UNL     1     -12.301  14.423  67.775  1.00  0.00    -0.603 N  
HETATM   11  H   UNL     1     -12.940  15.212  67.680  1.00  0.00     0.000 HD 
ENDROOT
BRANCH   3  12
HETATM   12  C   UNL     1      -9.911  10.974  68.463  1.00  0.00    -0.192 C  
BRANCH  12  13
HETATM   13  N   UNL     1     -10.745   9.928  69.056  1.00  0.00    -0.216 NA 
HETATM   14  C   UNL     1     -10.295   8.470  70.833  1.00  0.00    -0.245 C  
HETATM   15  C   UNL     1     -10.784   7.622  69.661  1.00  0.00    -0.230 C  
HETATM   16  C   UNL     1     -10.823   9.869  70.517  1.00  0.00    -0.326 C  
HETATM   17  C   UNL     1     -10.757   8.646  68.550  1.00  0.00    -0.043 C  
HETATM   18  N   UNL     1     -10.742   8.321  67.303  1.00  0.00    -0.471 NA 
HETATM   19  H2  UNL     1     -10.719   9.084  66.627  1.00  0.00     0.000 HD 
HETATM   20  H1  UNL     1     -10.752   7.372  66.929  1.00  0.00     0.000 HD 
ENDBRANCH  12  13
ENDBRANCH   3  12
TORSDOF 2
ENDMDL
MODEL       98
REMARK 921   NORMALIZED FREE ENERGY PREDICTED BY IDOCK:   -4.44 KCAL/MOL
REMARK 922        TOTAL FREE ENERGY PREDICTED BY IDOCK:   -5.30 KCAL/MOL
REMARK 923 INTER-LIGAND FREE ENERGY PREDICTED BY IDOCK:   -4.95 KCAL/MOL
REMARK 924 INTRA-LIGAND FREE ENERGY PREDICTED BY IDOCK:   -0.35 KCAL/MOL
REMARK 927      BINDING AFFINITY PREDICTED BY RF-SCORE:    0.00 PKD
ROOT
HETATM    1 CL   UNL     1      -8.617   9.639  68.437  1.00  0.00    -0.119 Cl 
HETATM    2  C   UNL     1     -10.056   9.846  69.358  1.00  0.00    -0.212 C  
HETATM    3  C   UNL     1     -11.192  10.393  68.885  1.00  0.00    -0.235 C  
HETATM    4  C   UNL     1     -10.019   9.396  70.783  1.00  0.00    -0.289 C  
HETATM    5  N   UNL     1     -12.266  10.560  69.740  1.00  0.00    -0.512 N  
HETATM    6  C   UNL     1     -12.272  10.250  71.066  1.00  0.00    -0.384 C  
HETATM    7  O   UNL     1      -9.068   8.787  71.266  1.00  0.00    -0.192 OA 
HETATM    8  H   UNL     1     -13.123  10.946  69.346  1.00  0.00     0.000 HD 
HETATM    9  O   UNL     1     -13.238  10.446  71.795  1.00  0.00    -0.420 OA 
HETATM   10  N   UNL     1     -11.116   9.702  71.542  1.00  0.00    -0.345 N  
HETATM   11  H   UNL     1     -11.066   9.506  72.541  1.00  0.00     0.000 HD 
ENDROOT
BRANCH   3  12
HETATM   12  C   UNL     1     -11.380  10.935  67.481  1.00  0.00    -0.232 C  
BRANCH  12  13
HETATM   13  N   UNL     1     -10.868  12.299  67.343  1.00  0.00    -0.232 NA 
HETATM   14  C   UNL     1     -11.793  14.150  66.246  1.00  0.00    -0.427 C  
HETATM   15  C   UNL     1     -10.355  14.001  65.753  1.00  0.00    -0.330 C  
HETATM   16  C   UNL     1     -11.803  13.402  67.577  1.00  0.00    -0.366 C  
HETATM   17  C   UNL     1     -10.009  12.644  66.321  1.00  0.00    -0.258 C  
HETATM   18  N   UNL     1      -9.032  11.932  65.876  1.00  0.00    -0.398 NA 
HETATM   19  H2  UNL     1      -8.881  11.027  66.321  1.00  0.00     0.000 HD 
HETATM   20  H1  UNL     1      -8.396  12.187  65.120  1.00  0.00     0.000 HD 
ENDBRANCH  12  13
ENDBRANCH   3  12
TORSDOF 2
ENDMDL
MODEL       99
REMARK 921   NORMALIZED FREE ENERGY PREDICTED BY IDOCK:   -4.43 KCAL/MOL
REMARK 922        TOTAL FREE ENERGY PREDICTED BY IDOCK:   -5.29 KCAL/MOL
REMARK 923 INTER-LIGAND FREE ENERGY PREDICTED BY IDOCK:   -4.84 KCAL/MOL
REMARK 924 INTRA-LIGAND FREE ENERGY PREDICTED BY IDOCK:   -0.45 KCAL/MOL
REMARK 927      BINDING AFFINITY PREDICTED BY RF-SCORE:    0.00 PKD
ROOT
HETATM    1 CL   UNL     1      -9.462  17.578  69.023  1.00  0.00    -0.170 Cl 
HETATM    2  C   UNL     1     -10.144  17.202  67.488  1.00  0.00    -0.301 C  
HETATM    3  C   UNL     1     -10.361  15.951  67.038  1.00  0.00    -0.297 C  
HETATM    4  C   UNL     1     -10.499  18.353  66.604  1.00  0.00    -0.385 C  
HETATM    5  N   UNL     1     -10.862  15.775  65.761  1.00  0.00    -0.308 N  
HETATM    6  C   UNL     1     -11.128  16.773  64.873  1.00  0.00    -0.054 C  
HETATM    7  O   UNL     1     -10.440  19.522  66.974  1.00  0.00    -0.411 OA 
HETATM    8  H   UNL     1     -11.047  14.819  65.459  1.00  0.00     0.000 HD 
HETATM    9  O   UNL     1     -11.540  16.567  63.738  1.00  0.00    -1.109 OA 
HETATM   10  N   UNL     1     -10.899  18.037  65.334  1.00  0.00    -0.046 N  
HETATM   11  H   UNL     1     -11.037  18.807  64.679  1.00  0.00     0.000 HD 
ENDROOT
BRANCH   3  12
HETATM   12  C   UNL     1     -10.020  14.681  67.792  1.00  0.00    -0.224 C  
BRANCH  12  13
HETATM   13  N   UNL     1     -11.210  14.024  68.332  1.00  0.00    -0.253 NA 
HETATM   14  C   UNL     1     -11.415  12.475  70.077  1.00  0.00    -0.095 C  
HETATM   15  C   UNL     1     -12.148  11.898  68.869  1.00  0.00    -0.213 C  
HETATM   16  C   UNL     1     -11.357  13.974  69.788  1.00  0.00    -0.179 C  
HETATM   17  C   UNL     1     -11.693  12.852  67.789  1.00  0.00    -0.362 C  
HETATM   18  N   UNL     1     -11.760  12.567  66.534  1.00  0.00    -0.429 NA 
HETATM   19  H2  UNL     1     -11.423  13.275  65.881  1.00  0.00     0.000 HD 
HETATM   20  H1  UNL     1     -12.118  11.700  66.132  1.00  0.00     0.000 HD 
ENDBRANCH  12  13
ENDBRANCH   3  12
TORSDOF 2
ENDMDL
MODEL      100
REMARK 921   NORMALIZED FREE ENERGY PREDICTED BY IDOCK:   -4.38 KCAL/MOL
REMARK 922        TOTAL FREE ENERGY PREDICTED BY IDOCK:   -5.24 KCAL/MOL
REMARK 923 INTER-LIGAND FREE ENERGY PREDICTED BY IDOCK:   -5.09 KCAL/MOL
REMARK 924 INTRA-LIGAND FREE ENERGY PREDICTED BY IDOCK:   -0.15 KCAL/MOL
REMARK 927      BINDING AFFINITY PREDICTED BY RF-SCORE:    0.00 PKD
ROOT
HETATM    1 CL   UNL     1      -9.616  12.812  68.302  1.00  0.00    -0.221 Cl 
HETATM    2  C   UNL     1      -9.878  11.206  67.741  1.00  0.00    -0.171 C  
HETATM    3  C   UNL     1      -9.630  10.788  66.485  1.00  0.00    -0.183 C  
HETATM    4  C   UNL     1     -10.433  10.227  68.724  1.00  0.00    -0.203 C  
HETATM    5  N   UNL     1      -9.936   9.485  66.137  1.00  0.00    -0.275 N  
HETATM    6  C   UNL     1     -10.519   8.567  66.956  1.00  0.00    -0.292 C  
HETATM    7  O   UNL     1     -10.584  10.488  69.913  1.00  0.00    -0.259 OA 
HETATM    8  H   UNL     1      -9.707   9.188  65.189  1.00  0.00     0.000 HD 
HETATM    9  O   UNL     1     -10.804   7.431  66.593  1.00  0.00    -0.198 OA 
HETATM   10  N   UNL     1     -10.775   8.999  68.225  1.00  0.00    -0.419 N  
HETATM   11  H   UNL     1     -11.259   8.355  68.851  1.00  0.00     0.000 HD 
ENDROOT
BRANCH   3  12
HETATM   12  C   UNL     1      -9.107  11.663  65.362  1.00  0.00     0.002 C  
BRANCH  12  13
HETATM   13  N   UNL     1     -10.187  12.312  64.618  1.00  0.00    -0.289 NA 
HETATM   14  C   UNL     1     -12.433  12.636  65.200  1.00  0.00    -0.531 C  
HETATM   15  C   UNL     1     -12.410  12.005  63.810  1.00  0.00    -0.602 C  
HETATM   16  C   UNL     1     -11.043  13.252  65.345  1.00  0.00    -0.282 C  
HETATM   17  C   UNL     1     -10.953  11.614  63.709  1.00  0.00    -0.422 C  
HETATM   18  N   UNL     1     -10.526  10.733  62.872  1.00  0.00    -0.741 NA 
HETATM   19  H2  UNL     1      -9.525  10.533  62.883  1.00  0.00     0.000 HD 
HETATM   20  H1  UNL     1     -11.093  10.217  62.199  1.00  0.00     0.000 HD 
ENDBRANCH  12  13
ENDBRANCH   3  12
TORSDOF 2
ENDMDL
MODEL      101
REMARK 921   NORMALIZED FREE ENERGY PREDICTED BY IDOCK:   -4.38 KCAL/MOL
REMARK 922        TOTAL FREE ENERGY PREDICTED BY IDOCK:   -5.24 KCAL/MOL
REMARK 923 INTER-LIGAND FREE ENERGY PREDICTED BY IDOCK:   -5.11 KCAL/MOL
REMARK 924 INTRA-LIGAND FREE ENERGY PREDICTED BY IDOCK:   -0.12 KCAL/MOL
REMARK 927      BINDING AFFINITY PREDICTED BY RF-SCORE:    0.00 PKD
ROOT
HETATM    1 CL   UNL     1      -9.588  16.442  65.987  1.00  0.00    -0.351 Cl 
HETATM    2  C   UNL     1     -10.558  16.057  67.355  1.00  0.00    -0.316 C  
HETATM    3  C   UNL     1     -11.389  14.999  67.426  1.00  0.00    -0.332 C  
HETATM    4  C   UNL     1     -10.471  16.978  68.529  1.00  0.00    -0.373 C  
HETATM    5  N   UNL     1     -12.162  14.826  68.560  1.00  0.00    -0.605 N  
HETATM    6  C   UNL     1     -12.194  15.670  69.628  1.00  0.00    -0.240 C  
HETATM    7  O   UNL     1      -9.662  17.899  68.595  1.00  0.00    -0.328 OA 
HETATM    8  H   UNL     1     -12.757  13.999  68.600  1.00  0.00     0.000 HD 
HETATM    9  O   UNL     1     -12.921  15.494  70.599  1.00  0.00    -0.462 OA 
HETATM   10  N   UNL     1     -11.355  16.744  69.547  1.00  0.00    -0.237 N  
HETATM   11  H   UNL     1     -11.390  17.426  70.304  1.00  0.00     0.000 HD 
ENDROOT
BRANCH   3  12
HETATM   12  C   UNL     1     -11.622  13.997  66.313  1.00  0.00    -0.369 C  
BRANCH  12  13
HETATM   13  N   UNL     1     -11.052  12.685  66.622  1.00  0.00    -0.263 NA 
HETATM   14  C   UNL     1     -11.016  11.497  68.640  1.00  0.00    -0.270 C  
HETATM   15  C   UNL     1      -9.585  11.536  68.109  1.00  0.00    -0.187 C  
HETATM   16  C   UNL     1     -11.872  11.755  67.402  1.00  0.00    -0.135 C  
HETATM   17  C   UNL     1      -9.732  12.545  66.993  1.00  0.00    -0.213 C  
HETATM   18  N   UNL     1      -8.729  13.174  66.487  1.00  0.00    -0.431 NA 
HETATM   19  H2  UNL     1      -8.931  13.840  65.740  1.00  0.00     0.000 HD 
HETATM   20  H1  UNL     1      -7.752  13.070  66.762  1.00  0.00     0.000 HD 
ENDBRANCH  12  13
ENDBRANCH   3  12
TORSDOF 2
ENDMDL
MODEL      102
REMARK 921   NORMALIZED FREE ENERGY PREDICTED BY IDOCK:   -4.38 KCAL/MOL
REMARK 922        TOTAL FREE ENERGY PREDICTED BY IDOCK:   -5.23 KCAL/MOL
REMARK 923 INTER-LIGAND FREE ENERGY PREDICTED BY IDOCK:   -4.76 KCAL/MOL
REMARK 924 INTRA-LIGAND FREE ENERGY PREDICTED BY IDOCK:   -0.47 KCAL/MOL
REMARK 927      BINDING AFFINITY PREDICTED BY RF-SCORE:    0.00 PKD
ROOT
HETATM    1 CL   UNL     1     -10.195   8.768  67.970  1.00  0.00    -0.248 Cl 
HETATM    2  C   UNL     1     -10.672   7.890  69.372  1.00  0.00    -0.168 C  
HETATM    3  C   UNL     1     -10.871   8.441  70.584  1.00  0.00    -0.231 C  
HETATM    4  C   UNL     1     -10.859   6.415  69.216  1.00  0.00    -0.327 C  
HETATM    5  N   UNL     1     -11.197   7.622  71.649  1.00  0.00    -0.243 N  
HETATM    6  C   UNL     1     -11.301   6.265  71.597  1.00  0.00    -0.294 C  
HETATM    7  O   UNL     1     -10.808   5.847  68.130  1.00  0.00    -0.271 OA 
HETATM    8  H   UNL     1     -11.374   8.070  72.548  1.00  0.00     0.000 HD 
HETATM    9  O   UNL     1     -11.560   5.575  72.577  1.00  0.00    -0.283 OA 
HETATM   10  N   UNL     1     -11.091   5.712  70.368  1.00  0.00    -0.213 N  
HETATM   11  H   UNL     1     -11.108   4.695  70.301  1.00  0.00     0.000 HD 
ENDROOT
BRANCH   3  12
HETATM   12  C   UNL     1     -10.685   9.909  70.916  1.00  0.00    -0.235 C  
BRANCH  12  13
HETATM   13  N   UNL     1     -11.911  10.681  70.712  1.00  0.00    -0.349 NA 
HETATM   14  C   UNL     1     -12.291  12.984  70.903  1.00  0.00    -0.376 C  
HETATM   15  C   UNL     1     -13.362  12.276  71.729  1.00  0.00    -0.353 C  
HETATM   16  C   UNL     1     -11.816  11.911  69.924  1.00  0.00    -0.343 C  
HETATM   17  C   UNL     1     -12.822  10.865  71.731  1.00  0.00    -0.404 C  
HETATM   18  N   UNL     1     -13.187   9.981  72.594  1.00  0.00    -0.425 NA 
HETATM   19  H2  UNL     1     -12.761   9.057  72.516  1.00  0.00     0.000 HD 
HETATM   20  H1  UNL     1     -13.861  10.118  73.348  1.00  0.00     0.000 HD 
ENDBRANCH  12  13
ENDBRANCH   3  12
TORSDOF 2
ENDMDL
MODEL      103
REMARK 921   NORMALIZED FREE ENERGY PREDICTED BY IDOCK:   -4.36 KCAL/MOL
REMARK 922        TOTAL FREE ENERGY PREDICTED BY IDOCK:   -5.22 KCAL/MOL
REMARK 923 INTER-LIGAND FREE ENERGY PREDICTED BY IDOCK:   -4.87 KCAL/MOL
REMARK 924 INTRA-LIGAND FREE ENERGY PREDICTED BY IDOCK:   -0.34 KCAL/MOL
REMARK 927      BINDING AFFINITY PREDICTED BY RF-SCORE:    0.00 PKD
ROOT
HETATM    1 CL   UNL     1      -9.582   9.640  70.170  1.00  0.00    -0.282 Cl 
HETATM    2  C   UNL     1     -11.073   9.396  70.995  1.00  0.00    -0.344 C  
HETATM    3  C   UNL     1     -12.193  10.108  70.770  1.00  0.00    -0.338 C  
HETATM    4  C   UNL     1     -11.103   8.326  72.038  1.00  0.00    -0.311 C  
HETATM    5  N   UNL     1     -13.315   9.857  71.539  1.00  0.00    -0.385 N  
HETATM    6  C   UNL     1     -13.386   8.957  72.559  1.00  0.00    -0.399 C  
HETATM    7  O   UNL     1     -10.166   7.556  72.231  1.00  0.00    -0.191 OA 
HETATM    8  H   UNL     1     -14.158  10.388  71.325  1.00  0.00     0.000 HD 
HETATM    9  O   UNL     1     -14.395   8.791  73.236  1.00  0.00    -0.190 OA 
HETATM   10  N   UNL     1     -12.246   8.244  72.786  1.00  0.00    -0.580 N  
HETATM   11  H   UNL     1     -12.245   7.598  73.576  1.00  0.00     0.000 HD 
ENDROOT
BRANCH   3  12
HETATM   12  C   UNL     1     -12.317  11.250  69.780  1.00  0.00    -0.209 C  
BRANCH  12  13
HETATM   13  N   UNL     1     -11.791  12.505  70.316  1.00  0.00    -0.283 NA 
HETATM   14  C   UNL     1     -12.748  14.642  70.364  1.00  0.00    -0.370 C  
HETATM   15  C   UNL     1     -11.348  14.784  69.773  1.00  0.00    -0.319 C  
HETATM   16  C   UNL     1     -12.688  13.324  71.134  1.00  0.00    -0.320 C  
HETATM   17  C   UNL     1     -10.991  13.332  69.556  1.00  0.00     0.068 C  
HETATM   18  N   UNL     1     -10.058  12.957  68.751  1.00  0.00    -0.421 NA 
HETATM   19  H2  UNL     1      -9.895  11.954  68.668  1.00  0.00     0.000 HD 
HETATM   20  H1  UNL     1      -9.466  13.569  68.188  1.00  0.00     0.000 HD 
ENDBRANCH  12  13
ENDBRANCH   3  12
TORSDOF 2
ENDMDL
MODEL      104
REMARK 921   NORMALIZED FREE ENERGY PREDICTED BY IDOCK:   -4.35 KCAL/MOL
REMARK 922        TOTAL FREE ENERGY PREDICTED BY IDOCK:   -5.20 KCAL/MOL
REMARK 923 INTER-LIGAND FREE ENERGY PREDICTED BY IDOCK:   -4.94 KCAL/MOL
REMARK 924 INTRA-LIGAND FREE ENERGY PREDICTED BY IDOCK:   -0.27 KCAL/MOL
REMARK 927      BINDING AFFINITY PREDICTED BY RF-SCORE:    0.00 PKD
ROOT
HETATM    1 CL   UNL     1      -8.013  10.562  65.272  1.00  0.00    -0.142 Cl 
HETATM    2  C   UNL     1      -9.521  11.210  64.755  1.00  0.00    -0.218 C  
HETATM    3  C   UNL     1     -10.264  12.075  65.471  1.00  0.00    -0.258 C  
HETATM    4  C   UNL     1     -10.031  10.760  63.424  1.00  0.00    -0.328 C  
HETATM    5  N   UNL     1     -11.489  12.481  64.973  1.00  0.00    -0.315 N  
HETATM    6  C   UNL     1     -12.050  12.048  63.811  1.00  0.00    -0.499 C  
HETATM    7  O   UNL     1      -9.371  10.064  62.657  1.00  0.00    -0.289 OA 
HETATM    8  H   UNL     1     -12.015  13.161  65.522  1.00  0.00     0.000 HD 
HETATM    9  O   UNL     1     -13.156  12.411  63.425  1.00  0.00    -0.689 OA 
HETATM   10  N   UNL     1     -11.296  11.166  63.094  1.00  0.00    -0.764 N  
HETATM   11  H   UNL     1     -11.706  10.779  62.244  1.00  0.00     0.000 HD 
ENDROOT
BRANCH   3  12
HETATM   12  C   UNL     1      -9.909  12.595  66.851  1.00  0.00    -0.234 C  
BRANCH  12  13
HETATM   13  N   UNL     1      -8.709  13.432  66.833  1.00  0.00    -0.185 NA 
HETATM   14  C   UNL     1      -7.635  14.563  68.580  1.00  0.00    -0.131 C  
HETATM   15  C   UNL     1      -7.853  15.569  67.453  1.00  0.00    -0.213 C  
HETATM   16  C   UNL     1      -7.709  13.208  67.880  1.00  0.00    -0.147 C  
HETATM   17  C   UNL     1      -8.776  14.780  66.553  1.00  0.00    -0.125 C  
HETATM   18  N   UNL     1      -9.518  15.335  65.658  1.00  0.00    -0.402 NA 
HETATM   19  H2  UNL     1     -10.111  14.718  65.103  1.00  0.00     0.000 HD 
HETATM   20  H1  UNL     1      -9.568  16.333  65.451  1.00  0.00     0.000 HD 
ENDBRANCH  12  13
ENDBRANCH   3  12
TORSDOF 2
ENDMDL
MODEL      105
REMARK 921   NORMALIZED FREE ENERGY PREDICTED BY IDOCK:   -4.35 KCAL/MOL
REMARK 922        TOTAL FREE ENERGY PREDICTED BY IDOCK:   -5.20 KCAL/MOL
REMARK 923 INTER-LIGAND FREE ENERGY PREDICTED BY IDOCK:   -5.06 KCAL/MOL
REMARK 924 INTRA-LIGAND FREE ENERGY PREDICTED BY IDOCK:   -0.14 KCAL/MOL
REMARK 927      BINDING AFFINITY PREDICTED BY RF-SCORE:    0.00 PKD
ROOT
HETATM    1 CL   UNL     1      -8.526   8.895  71.238  1.00  0.00    -0.239 Cl 
HETATM    2  C   UNL     1      -9.422   8.115  69.993  1.00  0.00    -0.167 C  
HETATM    3  C   UNL     1     -10.733   7.815  70.071  1.00  0.00    -0.244 C  
HETATM    4  C   UNL     1      -8.676   7.740  68.754  1.00  0.00    -0.128 C  
HETATM    5  N   UNL     1     -11.330   7.134  69.026  1.00  0.00    -0.472 N  
HETATM    6  C   UNL     1     -10.692   6.689  67.909  1.00  0.00    -0.274 C  
HETATM    7  O   UNL     1      -7.511   8.071  68.551  1.00  0.00    -0.097 OA 
HETATM    8  H   UNL     1     -12.330   6.950  69.099  1.00  0.00     0.000 HD 
HETATM    9  O   UNL     1     -11.257   6.059  67.021  1.00  0.00    -0.238 OA 
HETATM   10  N   UNL     1      -9.363   6.990  67.839  1.00  0.00    -0.124 N  
HETATM   11  H   UNL     1      -8.841   6.627  67.041  1.00  0.00     0.000 HD 
ENDROOT
BRANCH   3  12
HETATM   12  C   UNL     1     -11.621   8.091  71.269  1.00  0.00    -0.276 C  
BRANCH  12  13
HETATM   13  N   UNL     1     -12.537   9.206  71.032  1.00  0.00    -0.216 NA 
HETATM   14  C   UNL     1     -12.118  11.509  70.950  1.00  0.00    -0.352 C  
HETATM   15  C   UNL     1     -13.284  11.293  71.912  1.00  0.00    -0.491 C  
HETATM   16  C   UNL     1     -12.114  10.245  70.092  1.00  0.00    -0.202 C  
HETATM   17  C   UNL     1     -13.241   9.790  72.064  1.00  0.00    -0.460 C  
HETATM   18  N   UNL     1     -13.797   9.174  73.049  1.00  0.00    -1.083 NA 
HETATM   19  H2  UNL     1     -13.709   8.158  73.067  1.00  0.00     0.000 HD 
HETATM   20  H1  UNL     1     -14.318   9.606  73.813  1.00  0.00     0.000 HD 
ENDBRANCH  12  13
ENDBRANCH   3  12
TORSDOF 2
ENDMDL
MODEL      106
REMARK 921   NORMALIZED FREE ENERGY PREDICTED BY IDOCK:   -4.34 KCAL/MOL
REMARK 922        TOTAL FREE ENERGY PREDICTED BY IDOCK:   -5.19 KCAL/MOL
REMARK 923 INTER-LIGAND FREE ENERGY PREDICTED BY IDOCK:   -5.17 KCAL/MOL
REMARK 924 INTRA-LIGAND FREE ENERGY PREDICTED BY IDOCK:   -0.02 KCAL/MOL
REMARK 927      BINDING AFFINITY PREDICTED BY RF-SCORE:    0.00 PKD
ROOT
HETATM    1 CL   UNL     1      -8.769  17.464  68.647  1.00  0.00    -0.277 Cl 
HETATM    2  C   UNL     1      -9.655  17.046  67.231  1.00  0.00    -0.244 C  
HETATM    3  C   UNL     1      -9.637  15.830  66.653  1.00  0.00    -0.247 C  
HETATM    4  C   UNL     1     -10.483  18.123  66.609  1.00  0.00    -0.339 C  
HETATM    5  N   UNL     1     -10.347  15.632  65.483  1.00  0.00    -0.370 N  
HETATM    6  C   UNL     1     -11.053  16.588  64.818  1.00  0.00    -0.186 C  
HETATM    7  O   UNL     1     -10.647  19.223  67.127  1.00  0.00    -0.421 OA 
HETATM    8  H   UNL     1     -10.342  14.693  65.085  1.00  0.00     0.000 HD 
HETATM    9  O   UNL     1     -11.641  16.374  63.763  1.00  0.00    -1.055 OA 
HETATM   10  N   UNL     1     -11.061  17.820  65.405  1.00  0.00     0.201 N  
HETATM   11  H   UNL     1     -11.536  18.574  64.909  1.00  0.00     0.000 HD 
ENDROOT
BRANCH   3  12
HETATM   12  C   UNL     1      -8.820  14.647  67.135  1.00  0.00    -0.221 C  
BRANCH  12  13
HETATM   13  N   UNL     1      -9.662  13.507  67.500  1.00  0.00    -0.222 NA 
HETATM   14  C   UNL     1     -11.671  12.756  66.559  1.00  0.00    -0.463 C  
HETATM   15  C   UNL     1     -11.891  12.875  68.065  1.00  0.00    -0.390 C  
HETATM   16  C   UNL     1     -10.154  12.651  66.418  1.00  0.00    -0.253 C  
HETATM   17  C   UNL     1     -10.637  13.616  68.469  1.00  0.00    -0.250 C  
HETATM   18  N   UNL     1     -10.535  14.257  69.582  1.00  0.00    -0.439 NA 
HETATM   19  H2  UNL     1      -9.650  14.730  69.762  1.00  0.00     0.000 HD 
HETATM   20  H1  UNL     1     -11.257  14.337  70.299  1.00  0.00     0.000 HD 
ENDBRANCH  12  13
ENDBRANCH   3  12
TORSDOF 2
ENDMDL
MODEL      107
REMARK 921   NORMALIZED FREE ENERGY PREDICTED BY IDOCK:   -4.34 KCAL/MOL
REMARK 922        TOTAL FREE ENERGY PREDICTED BY IDOCK:   -5.19 KCAL/MOL
REMARK 923 INTER-LIGAND FREE ENERGY PREDICTED BY IDOCK:   -5.03 KCAL/MOL
REMARK 924 INTRA-LIGAND FREE ENERGY PREDICTED BY IDOCK:   -0.15 KCAL/MOL
REMARK 927      BINDING AFFINITY PREDICTED BY RF-SCORE:    0.00 PKD
ROOT
HETATM    1 CL   UNL     1     -12.178  13.051  65.118  1.00  0.00    -0.472 Cl 
HETATM    2  C   UNL     1     -11.585  14.216  66.239  1.00  0.00    -0.370 C  
HETATM    3  C   UNL     1     -11.745  14.139  67.574  1.00  0.00    -0.386 C  
HETATM    4  C   UNL     1     -10.857  15.391  65.672  1.00  0.00    -0.355 C  
HETATM    5  N   UNL     1     -11.272  15.167  68.368  1.00  0.00    -0.284 N  
HETATM    6  C   UNL     1     -10.676  16.304  67.913  1.00  0.00    -0.329 C  
HETATM    7  O   UNL     1     -10.568  15.488  64.483  1.00  0.00    -0.307 OA 
HETATM    8  H   UNL     1     -11.378  15.067  69.377  1.00  0.00     0.000 HD 
HETATM    9  O   UNL     1     -10.301  17.206  68.653  1.00  0.00    -0.315 OA 
HETATM   10  N   UNL     1     -10.523  16.379  66.559  1.00  0.00    -0.301 N  
HETATM   11  H   UNL     1     -10.128  17.239  66.177  1.00  0.00     0.000 HD 
ENDROOT
BRANCH   3  12
HETATM   12  C   UNL     1     -12.490  13.036  68.301  1.00  0.00     0.495 C  
BRANCH  12  13
HETATM   13  N   UNL     1     -12.157  12.991  69.725  1.00  0.00    -0.290 NA 
HETATM   14  C   UNL     1     -12.859  11.500  71.389  1.00  0.00    -0.489 C  
HETATM   15  C   UNL     1     -13.103  12.914  71.912  1.00  0.00    -0.474 C  
HETATM   16  C   UNL     1     -11.806  11.691  70.299  1.00  0.00    -0.326 C  
HETATM   17  C   UNL     1     -12.872  13.717  70.653  1.00  0.00    -0.192 C  
HETATM   18  N   UNL     1     -13.309  14.920  70.505  1.00  0.00    -0.637 NA 
HETATM   19  H2  UNL     1     -13.107  15.379  69.616  1.00  0.00     0.000 HD 
HETATM   20  H1  UNL     1     -13.838  15.458  71.192  1.00  0.00     0.000 HD 
ENDBRANCH  12  13
ENDBRANCH   3  12
TORSDOF 2
ENDMDL
MODEL      108
REMARK 921   NORMALIZED FREE ENERGY PREDICTED BY IDOCK:   -4.32 KCAL/MOL
REMARK 922        TOTAL FREE ENERGY PREDICTED BY IDOCK:   -5.17 KCAL/MOL
REMARK 923 INTER-LIGAND FREE ENERGY PREDICTED BY IDOCK:   -5.12 KCAL/MOL
REMARK 924 INTRA-LIGAND FREE ENERGY PREDICTED BY IDOCK:   -0.05 KCAL/MOL
REMARK 927      BINDING AFFINITY PREDICTED BY RF-SCORE:    0.00 PKD
ROOT
HETATM    1 CL   UNL     1      -8.754  13.307  67.350  1.00  0.00    -0.196 Cl 
HETATM    2  C   UNL     1     -10.139  12.993  66.376  1.00  0.00    -0.279 C  
HETATM    3  C   UNL     1     -11.284  13.700  66.430  1.00  0.00    -0.308 C  
HETATM    4  C   UNL     1     -10.050  11.846  65.423  1.00  0.00    -0.253 C  
HETATM    5  N   UNL     1     -12.349  13.315  65.637  1.00  0.00    -0.459 N  
HETATM    6  C   UNL     1     -12.366  12.233  64.810  1.00  0.00    -0.339 C  
HETATM    7  O   UNL     1      -9.013  11.219  65.228  1.00  0.00    -0.169 OA 
HETATM    8  H   UNL     1     -13.192  13.888  65.674  1.00  0.00     0.000 HD 
HETATM    9  O   UNL     1     -13.346  11.909  64.150  1.00  0.00    -0.652 OA 
HETATM   10  N   UNL     1     -11.205  11.517  64.766  1.00  0.00    -0.237 N  
HETATM   11  H   UNL     1     -11.197  10.670  64.198  1.00  0.00     0.000 HD 
ENDROOT
BRANCH   3  12
HETATM   12  C   UNL     1     -11.548  14.862  67.367  1.00  0.00    -0.332 C  
BRANCH  12  13
HETATM   13  N   UNL     1     -11.072  14.596  68.725  1.00  0.00    -0.248 NA 
HETATM   14  C   UNL     1     -12.260  14.472  70.740  1.00  0.00    -0.403 C  
HETATM   15  C   UNL     1     -11.090  15.429  70.959  1.00  0.00    -0.377 C  
HETATM   16  C   UNL     1     -11.829  13.639  69.534  1.00  0.00    -0.337 C  
HETATM   17  C   UNL     1     -10.613  15.611  69.537  1.00  0.00    -0.266 C  
HETATM   18  N   UNL     1      -9.877  16.603  69.172  1.00  0.00    -0.262 NA 
HETATM   19  H2  UNL     1      -9.609  16.642  68.188  1.00  0.00     0.000 HD 
HETATM   20  H1  UNL     1      -9.537  17.354  69.773  1.00  0.00     0.000 HD 
ENDBRANCH  12  13
ENDBRANCH   3  12
TORSDOF 2
ENDMDL
MODEL      109
REMARK 921   NORMALIZED FREE ENERGY PREDICTED BY IDOCK:   -4.31 KCAL/MOL
REMARK 922        TOTAL FREE ENERGY PREDICTED BY IDOCK:   -5.16 KCAL/MOL
REMARK 923 INTER-LIGAND FREE ENERGY PREDICTED BY IDOCK:   -4.82 KCAL/MOL
REMARK 924 INTRA-LIGAND FREE ENERGY PREDICTED BY IDOCK:   -0.35 KCAL/MOL
REMARK 927      BINDING AFFINITY PREDICTED BY RF-SCORE:    0.00 PKD
ROOT
HETATM    1 CL   UNL     1     -13.481   9.421  72.606  1.00  0.00    -0.415 Cl 
HETATM    2  C   UNL     1     -11.992   9.269  71.756  1.00  0.00    -0.385 C  
HETATM    3  C   UNL     1     -11.635  10.029  70.704  1.00  0.00    -0.340 C  
HETATM    4  C   UNL     1     -11.050   8.208  72.225  1.00  0.00    -0.344 C  
HETATM    5  N   UNL     1     -10.434   9.774  70.067  1.00  0.00    -0.250 N  
HETATM    6  C   UNL     1      -9.570   8.772  70.387  1.00  0.00    -0.182 C  
HETATM    7  O   UNL     1     -11.243   7.545  73.240  1.00  0.00    -0.346 OA 
HETATM    8  H   UNL     1     -10.175  10.386  69.294  1.00  0.00     0.000 HD 
HETATM    9  O   UNL     1      -8.530   8.561  69.772  1.00  0.00    -0.124 OA 
HETATM   10  N   UNL     1      -9.941   8.000  71.450  1.00  0.00    -0.174 N  
HETATM   11  H   UNL     1      -9.344   7.208  71.686  1.00  0.00     0.000 HD 
ENDROOT
BRANCH   3  12
HETATM   12  C   UNL     1     -12.490  11.117  70.083  1.00  0.00    -0.241 C  
BRANCH  12  13
HETATM   13  N   UNL     1     -11.698  12.054  69.285  1.00  0.00    -0.310 NA 
HETATM   14  C   UNL     1     -12.263  14.162  68.436  1.00  0.00    -0.200 C  
HETATM   15  C   UNL     1     -11.703  13.340  67.277  1.00  0.00    -0.424 C  
HETATM   16  C   UNL     1     -11.714  13.464  69.678  1.00  0.00    -0.310 C  
HETATM   17  C   UNL     1     -11.656  11.968  67.909  1.00  0.00    -0.337 C  
HETATM   18  N   UNL     1     -11.592  10.884  67.216  1.00  0.00    -0.434 NA 
HETATM   19  H2  UNL     1     -11.570  10.006  67.734  1.00  0.00     0.000 HD 
HETATM   20  H1  UNL     1     -11.561  10.821  66.198  1.00  0.00     0.000 HD 
ENDBRANCH  12  13
ENDBRANCH   3  12
TORSDOF 2
ENDMDL
MODEL      110
REMARK 921   NORMALIZED FREE ENERGY PREDICTED BY IDOCK:   -4.30 KCAL/MOL
REMARK 922        TOTAL FREE ENERGY PREDICTED BY IDOCK:   -5.14 KCAL/MOL
REMARK 923 INTER-LIGAND FREE ENERGY PREDICTED BY IDOCK:   -4.77 KCAL/MOL
REMARK 924 INTRA-LIGAND FREE ENERGY PREDICTED BY IDOCK:   -0.37 KCAL/MOL
REMARK 927      BINDING AFFINITY PREDICTED BY RF-SCORE:    0.00 PKD
ROOT
HETATM    1 CL   UNL     1     -10.515  11.659  68.605  1.00  0.00    -0.220 Cl 
HETATM    2  C   UNL     1     -10.571  12.798  67.316  1.00  0.00    -0.233 C  
HETATM    3  C   UNL     1      -9.844  12.705  66.186  1.00  0.00    -0.259 C  
HETATM    4  C   UNL     1     -11.483  13.969  67.485  1.00  0.00    -0.343 C  
HETATM    5  N   UNL     1      -9.933  13.714  65.245  1.00  0.00    -0.535 N  
HETATM    6  C   UNL     1     -10.677  14.847  65.372  1.00  0.00    -0.377 C  
HETATM    7  O   UNL     1     -12.262  14.077  68.427  1.00  0.00    -0.332 OA 
HETATM    8  H   UNL     1      -9.396  13.601  64.385  1.00  0.00     0.000 HD 
HETATM    9  O   UNL     1     -10.699  15.733  64.524  1.00  0.00    -0.449 OA 
HETATM   10  N   UNL     1     -11.406  14.939  66.522  1.00  0.00    -0.342 N  
HETATM   11  H   UNL     1     -11.935  15.797  66.676  1.00  0.00     0.000 HD 
ENDROOT
BRANCH   3  12
HETATM   12  C   UNL     1      -8.846  11.605  65.878  1.00  0.00    -0.057 C  
BRANCH  12  13
HETATM   13  N   UNL     1      -9.362  10.651  64.896  1.00  0.00    -0.211 NA 
HETATM   14  C   UNL     1      -8.404   8.684  64.060  1.00  0.00    -0.125 C  
HETATM   15  C   UNL     1      -8.838   9.524  62.861  1.00  0.00    -0.242 C  
HETATM   16  C   UNL     1      -9.251   9.225  65.211  1.00  0.00    -0.212 C  
HETATM   17  C   UNL     1      -9.162  10.833  63.544  1.00  0.00    -0.257 C  
HETATM   18  N   UNL     1      -9.227  11.952  62.909  1.00  0.00    -0.579 NA 
HETATM   19  H2  UNL     1      -9.448  12.782  63.460  1.00  0.00     0.000 HD 
HETATM   20  H1  UNL     1      -9.079  12.086  61.909  1.00  0.00     0.000 HD 
ENDBRANCH  12  13
ENDBRANCH   3  12
TORSDOF 2
ENDMDL
MODEL      111
REMARK 921   NORMALIZED FREE ENERGY PREDICTED BY IDOCK:   -4.29 KCAL/MOL
REMARK 922        TOTAL FREE ENERGY PREDICTED BY IDOCK:   -5.13 KCAL/MOL
REMARK 923 INTER-LIGAND FREE ENERGY PREDICTED BY IDOCK:   -4.72 KCAL/MOL
REMARK 924 INTRA-LIGAND FREE ENERGY PREDICTED BY IDOCK:   -0.42 KCAL/MOL
REMARK 927      BINDING AFFINITY PREDICTED BY RF-SCORE:    0.00 PKD
ROOT
HETATM    1 CL   UNL     1      -9.049  14.155  68.445  1.00  0.00    -0.190 Cl 
HETATM    2  C   UNL     1     -10.279  13.590  67.382  1.00  0.00    -0.237 C  
HETATM    3  C   UNL     1     -10.236  12.417  66.722  1.00  0.00    -0.219 C  
HETATM    4  C   UNL     1     -11.461  14.482  67.180  1.00  0.00    -0.368 C  
HETATM    5  N   UNL     1     -11.261  12.099  65.849  1.00  0.00    -0.326 N  
HETATM    6  C   UNL     1     -12.322  12.899  65.555  1.00  0.00    -0.461 C  
HETATM    7  O   UNL     1     -11.637  15.513  67.823  1.00  0.00    -0.302 OA 
HETATM    8  H   UNL     1     -11.218  11.190  65.389  1.00  0.00     0.000 HD 
HETATM    9  O   UNL     1     -13.191  12.589  64.748  1.00  0.00    -0.839 OA 
HETATM   10  N   UNL     1     -12.356  14.089  66.222  1.00  0.00    -0.465 N  
HETATM   11  H   UNL     1     -13.108  14.737  65.988  1.00  0.00     0.000 HD 
ENDROOT
BRANCH   3  12
HETATM   12  C   UNL     1      -9.094  11.421  66.787  1.00  0.00    -0.176 C  
BRANCH  12  13
HETATM   13  N   UNL     1      -9.103  10.651  68.031  1.00  0.00    -0.144 NA 
HETATM   14  C   UNL     1      -7.642   8.981  68.779  1.00  0.00    -0.087 C  
HETATM   15  C   UNL     1      -9.062   8.437  68.914  1.00  0.00    -0.147 C  
HETATM   16  C   UNL     1      -7.833  10.496  68.743  1.00  0.00    -0.116 C  
HETATM   17  C   UNL     1      -9.834   9.489  68.151  1.00  0.00    -0.155 C  
HETATM   18  N   UNL     1     -11.017   9.282  67.685  1.00  0.00    -0.483 NA 
HETATM   19  H2  UNL     1     -11.454  10.053  67.179  1.00  0.00     0.000 HD 
HETATM   20  H1  UNL     1     -11.558   8.422  67.774  1.00  0.00     0.000 HD 
ENDBRANCH  12  13
ENDBRANCH   3  12
TORSDOF 2
ENDMDL
MODEL      112
REMARK 921   NORMALIZED FREE ENERGY PREDICTED BY IDOCK:   -4.28 KCAL/MOL
REMARK 922        TOTAL FREE ENERGY PREDICTED BY IDOCK:   -5.13 KCAL/MOL
REMARK 923 INTER-LIGAND FREE ENERGY PREDICTED BY IDOCK:   -4.99 KCAL/MOL
REMARK 924 INTRA-LIGAND FREE ENERGY PREDICTED BY IDOCK:   -0.14 KCAL/MOL
REMARK 927      BINDING AFFINITY PREDICTED BY RF-SCORE:    0.00 PKD
ROOT
HETATM    1 CL   UNL     1      -9.432  13.769  66.624  1.00  0.00    -0.282 Cl 
HETATM    2  C   UNL     1     -10.326  13.899  68.089  1.00  0.00    -0.247 C  
HETATM    3  C   UNL     1     -10.014  14.732  69.100  1.00  0.00    -0.181 C  
HETATM    4  C   UNL     1     -11.517  13.009  68.237  1.00  0.00    -0.312 C  
HETATM    5  N   UNL     1     -10.777  14.705  70.253  1.00  0.00    -0.477 N  
HETATM    6  C   UNL     1     -11.821  13.864  70.487  1.00  0.00    -0.247 C  
HETATM    7  O   UNL     1     -11.939  12.302  67.327  1.00  0.00    -0.546 OA 
HETATM    8  H   UNL     1     -10.538  15.370  70.988  1.00  0.00     0.000 HD 
HETATM    9  O   UNL     1     -12.449  13.853  71.540  1.00  0.00    -0.339 OA 
HETATM   10  N   UNL     1     -12.128  13.017  69.462  1.00  0.00    -0.270 N  
HETATM   11  H   UNL     1     -12.870  12.336  69.621  1.00  0.00     0.000 HD 
ENDROOT
BRANCH   3  12
HETATM   12  C   UNL     1      -8.819  15.666  69.123  1.00  0.00    -0.251 C  
BRANCH  12  13
HETATM   13  N   UNL     1      -9.184  17.037  68.765  1.00  0.00    -0.265 NA 
HETATM   14  C   UNL     1      -9.850  17.929  66.705  1.00  0.00    -0.342 C  
HETATM   15  C   UNL     1      -8.718  18.806  67.235  1.00  0.00    -0.287 C  
HETATM   16  C   UNL     1     -10.386  17.231  67.953  1.00  0.00    -0.360 C  
HETATM   17  C   UNL     1      -8.230  17.959  68.387  1.00  0.00    -0.300 C  
HETATM   18  N   UNL     1      -7.064  18.107  68.915  1.00  0.00    -0.280 NA 
HETATM   19  H2  UNL     1      -6.824  17.483  69.686  1.00  0.00     0.000 HD 
HETATM   20  H1  UNL     1      -6.359  18.789  68.636  1.00  0.00     0.000 HD 
ENDBRANCH  12  13
ENDBRANCH   3  12
TORSDOF 2
ENDMDL
MODEL      113
REMARK 921   NORMALIZED FREE ENERGY PREDICTED BY IDOCK:   -4.28 KCAL/MOL
REMARK 922        TOTAL FREE ENERGY PREDICTED BY IDOCK:   -5.12 KCAL/MOL
REMARK 923 INTER-LIGAND FREE ENERGY PREDICTED BY IDOCK:   -4.87 KCAL/MOL
REMARK 924 INTRA-LIGAND FREE ENERGY PREDICTED BY IDOCK:   -0.25 KCAL/MOL
REMARK 927      BINDING AFFINITY PREDICTED BY RF-SCORE:    0.00 PKD
ROOT
HETATM    1 CL   UNL     1     -12.689   6.603  71.860  1.00  0.00    -0.344 Cl 
HETATM    2  C   UNL     1     -12.564   8.277  71.481  1.00  0.00    -0.309 C  
HETATM    3  C   UNL     1     -11.680   8.796  70.608  1.00  0.00    -0.166 C  
HETATM    4  C   UNL     1     -13.499   9.204  72.188  1.00  0.00    -0.469 C  
HETATM    5  N   UNL     1     -11.637  10.167  70.430  1.00  0.00    -0.294 N  
HETATM    6  C   UNL     1     -12.399  11.073  71.101  1.00  0.00    -0.359 C  
HETATM    7  O   UNL     1     -14.408   8.809  72.913  1.00  0.00    -0.520 OA 
HETATM    8  H   UNL     1     -10.980  10.529  69.739  1.00  0.00     0.000 HD 
HETATM    9  O   UNL     1     -12.303  12.284  70.934  1.00  0.00    -0.376 OA 
HETATM   10  N   UNL     1     -13.288  10.542  71.990  1.00  0.00    -0.504 N  
HETATM   11  H   UNL     1     -13.840  11.192  72.549  1.00  0.00     0.000 HD 
ENDROOT
BRANCH   3  12
HETATM   12  C   UNL     1     -10.641   8.001  69.842  1.00  0.00    -0.242 C  
BRANCH  12  13
HETATM   13  N   UNL     1      -9.455   7.717  70.651  1.00  0.00    -0.162 NA 
HETATM   14  C   UNL     1      -9.275   7.193  72.927  1.00  0.00    -0.171 C  
HETATM   15  C   UNL     1      -8.304   8.337  72.645  1.00  0.00    -0.235 C  
HETATM   16  C   UNL     1      -9.508   6.565  71.554  1.00  0.00    -0.157 C  
HETATM   17  C   UNL     1      -8.736   8.729  71.251  1.00  0.00    -0.215 C  
HETATM   18  N   UNL     1      -8.454   9.873  70.731  1.00  0.00    -0.344 NA 
HETATM   19  H2  UNL     1      -8.795  10.047  69.785  1.00  0.00     0.000 HD 
HETATM   20  H1  UNL     1      -7.922  10.622  71.175  1.00  0.00     0.000 HD 
ENDBRANCH  12  13
ENDBRANCH   3  12
TORSDOF 2
ENDMDL
MODEL      114
REMARK 921   NORMALIZED FREE ENERGY PREDICTED BY IDOCK:   -4.27 KCAL/MOL
REMARK 922        TOTAL FREE ENERGY PREDICTED BY IDOCK:   -5.12 KCAL/MOL
REMARK 923 INTER-LIGAND FREE ENERGY PREDICTED BY IDOCK:   -4.64 KCAL/MOL
REMARK 924 INTRA-LIGAND FREE ENERGY PREDICTED BY IDOCK:   -0.48 KCAL/MOL
REMARK 927      BINDING AFFINITY PREDICTED BY RF-SCORE:    0.00 PKD
ROOT
HETATM    1 CL   UNL     1      -8.308   6.472  67.790  1.00  0.00    -0.118 Cl 
HETATM    2  C   UNL     1      -9.672   6.785  68.792  1.00  0.00    -0.132 C  
HETATM    3  C   UNL     1     -10.203   8.006  68.995  1.00  0.00    -0.210 C  
HETATM    4  C   UNL     1     -10.286   5.614  69.487  1.00  0.00    -0.275 C  
HETATM    5  N   UNL     1     -11.265   8.140  69.870  1.00  0.00    -0.446 N  
HETATM    6  C   UNL     1     -11.819   7.131  70.598  1.00  0.00    -0.291 C  
HETATM    7  O   UNL     1      -9.940   4.455  69.274  1.00  0.00    -0.183 OA 
HETATM    8  H   UNL     1     -11.668   9.070  69.979  1.00  0.00     0.000 HD 
HETATM    9  O   UNL     1     -12.740   7.303  71.389  1.00  0.00    -0.362 OA 
HETATM   10  N   UNL     1     -11.272   5.898  70.393  1.00  0.00    -0.297 N  
HETATM   11  H   UNL     1     -11.625   5.127  70.960  1.00  0.00     0.000 HD 
ENDROOT
BRANCH   3  12
HETATM   12  C   UNL     1      -9.675   9.297  68.400  1.00  0.00    -0.154 C  
BRANCH  12  13
HETATM   13  N   UNL     1     -10.516   9.784  67.306  1.00  0.00    -0.255 NA 
HETATM   14  C   UNL     1     -10.043  11.339  65.619  1.00  0.00    -0.295 C  
HETATM   15  C   UNL     1     -11.358  11.760  66.270  1.00  0.00    -0.350 C  
HETATM   16  C   UNL     1      -9.919   9.857  65.971  1.00  0.00    -0.268 C  
HETATM   17  C   UNL     1     -11.371  10.852  67.478  1.00  0.00    -0.232 C  
HETATM   18  N   UNL     1     -12.098  11.084  68.516  1.00  0.00    -0.770 NA 
HETATM   19  H2  UNL     1     -12.035  10.415  69.283  1.00  0.00     0.000 HD 
HETATM   20  H1  UNL     1     -12.731  11.874  68.643  1.00  0.00     0.000 HD 
ENDBRANCH  12  13
ENDBRANCH   3  12
TORSDOF 2
ENDMDL
MODEL      115
REMARK 921   NORMALIZED FREE ENERGY PREDICTED BY IDOCK:   -4.27 KCAL/MOL
REMARK 922        TOTAL FREE ENERGY PREDICTED BY IDOCK:   -5.11 KCAL/MOL
REMARK 923 INTER-LIGAND FREE ENERGY PREDICTED BY IDOCK:   -4.84 KCAL/MOL
REMARK 924 INTRA-LIGAND FREE ENERGY PREDICTED BY IDOCK:   -0.28 KCAL/MOL
REMARK 927      BINDING AFFINITY PREDICTED BY RF-SCORE:    0.00 PKD
ROOT
HETATM    1 CL   UNL     1      -8.924   9.352  64.027  1.00  0.00    -0.220 Cl 
HETATM    2  C   UNL     1      -9.807  10.244  65.205  1.00  0.00    -0.306 C  
HETATM    3  C   UNL     1      -9.922   9.891  66.500  1.00  0.00    -0.228 C  
HETATM    4  C   UNL     1     -10.499  11.484  64.738  1.00  0.00    -0.299 C  
HETATM    5  N   UNL     1     -10.708  10.660  67.339  1.00  0.00    -0.256 N  
HETATM    6  C   UNL     1     -11.430  11.751  66.962  1.00  0.00    -0.298 C  
HETATM    7  O   UNL     1     -10.358  11.940  63.607  1.00  0.00    -0.359 OA 
HETATM    8  H   UNL     1     -10.750  10.388  68.320  1.00  0.00     0.000 HD 
HETATM    9  O   UNL     1     -12.141  12.383  67.735  1.00  0.00    -0.447 OA 
HETATM   10  N   UNL     1     -11.316  12.099  65.647  1.00  0.00    -0.340 N  
HETATM   11  H   UNL     1     -11.884  12.879  65.317  1.00  0.00     0.000 HD 
ENDROOT
BRANCH   3  12
HETATM   12  C   UNL     1      -9.318   8.647  67.121  1.00  0.00    -0.151 C  
BRANCH  12  13
HETATM   13  N   UNL     1     -10.175   8.078  68.162  1.00  0.00    -0.201 NA 
HETATM   14  C   UNL     1      -9.646   6.631  69.925  1.00  0.00    -0.161 C  
HETATM   15  C   UNL     1     -10.841   6.032  69.189  1.00  0.00    -0.422 C  
HETATM   16  C   UNL     1      -9.683   8.109  69.540  1.00  0.00    -0.170 C  
HETATM   17  C   UNL     1     -10.873   6.906  67.957  1.00  0.00    -0.200 C  
HETATM   18  N   UNL     1     -11.479   6.562  66.873  1.00  0.00    -0.780 NA 
HETATM   19  H2  UNL     1     -11.439   7.218  66.094  1.00  0.00     0.000 HD 
HETATM   20  H1  UNL     1     -11.995   5.695  66.722  1.00  0.00     0.000 HD 
ENDBRANCH  12  13
ENDBRANCH   3  12
TORSDOF 2
ENDMDL
MODEL      116
REMARK 921   NORMALIZED FREE ENERGY PREDICTED BY IDOCK:   -4.27 KCAL/MOL
REMARK 922        TOTAL FREE ENERGY PREDICTED BY IDOCK:   -5.11 KCAL/MOL
REMARK 923 INTER-LIGAND FREE ENERGY PREDICTED BY IDOCK:   -4.80 KCAL/MOL
REMARK 924 INTRA-LIGAND FREE ENERGY PREDICTED BY IDOCK:   -0.31 KCAL/MOL
REMARK 927      BINDING AFFINITY PREDICTED BY RF-SCORE:    0.00 PKD
ROOT
HETATM    1 CL   UNL     1      -9.029  19.130  67.780  1.00  0.00    -0.326 Cl 
HETATM    2  C   UNL     1      -8.462  17.559  68.195  1.00  0.00    -0.254 C  
HETATM    3  C   UNL     1      -9.106  16.414  67.898  1.00  0.00    -0.201 C  
HETATM    4  C   UNL     1      -7.175  17.481  68.950  1.00  0.00    -0.249 C  
HETATM    5  N   UNL     1      -8.578  15.213  68.336  1.00  0.00    -0.154 N  
HETATM    6  C   UNL     1      -7.457  15.076  69.097  1.00  0.00    -0.169 C  
HETATM    7  O   UNL     1      -6.467  18.461  69.166  1.00  0.00    -0.246 OA 
HETATM    8  H   UNL     1      -9.069  14.360  68.068  1.00  0.00     0.000 HD 
HETATM    9  O   UNL     1      -7.044  13.991  69.492  1.00  0.00    -0.071 OA 
HETATM   10  N   UNL     1      -6.814  16.240  69.401  1.00  0.00    -0.211 N  
HETATM   11  H   UNL     1      -6.000  16.181  70.013  1.00  0.00     0.000 HD 
ENDROOT
BRANCH   3  12
HETATM   12  C   UNL     1     -10.436  16.323  67.176  1.00  0.00    -0.297 C  
BRANCH  12  13
HETATM   13  N   UNL     1     -10.657  15.000  66.590  1.00  0.00    -0.295 NA 
HETATM   14  C   UNL     1     -11.792  14.390  64.634  1.00  0.00    -0.460 C  
HETATM   15  C   UNL     1     -12.340  13.526  65.767  1.00  0.00    -0.516 C  
HETATM   16  C   UNL     1     -10.430  14.849  65.151  1.00  0.00    -0.417 C  
HETATM   17  C   UNL     1     -11.729  14.219  66.963  1.00  0.00    -0.403 C  
HETATM   18  N   UNL     1     -12.186  14.075  68.159  1.00  0.00    -0.536 NA 
HETATM   19  H2  UNL     1     -11.708  14.589  68.900  1.00  0.00     0.000 HD 
HETATM   20  H1  UNL     1     -12.980  13.497  68.435  1.00  0.00     0.000 HD 
ENDBRANCH  12  13
ENDBRANCH   3  12
TORSDOF 2
ENDMDL
MODEL      117
REMARK 921   NORMALIZED FREE ENERGY PREDICTED BY IDOCK:   -4.25 KCAL/MOL
REMARK 922        TOTAL FREE ENERGY PREDICTED BY IDOCK:   -5.09 KCAL/MOL
REMARK 923 INTER-LIGAND FREE ENERGY PREDICTED BY IDOCK:   -4.78 KCAL/MOL
REMARK 924 INTRA-LIGAND FREE ENERGY PREDICTED BY IDOCK:   -0.31 KCAL/MOL
REMARK 927      BINDING AFFINITY PREDICTED BY RF-SCORE:    0.00 PKD
ROOT
HETATM    1 CL   UNL     1     -11.733  12.706  67.896  1.00  0.00    -0.401 Cl 
HETATM    2  C   UNL     1     -11.718  11.470  69.093  1.00  0.00    -0.329 C  
HETATM    3  C   UNL     1     -11.313  10.204  68.876  1.00  0.00    -0.120 C  
HETATM    4  C   UNL     1     -12.205  11.841  70.456  1.00  0.00    -0.347 C  
HETATM    5  N   UNL     1     -11.403   9.284  69.904  1.00  0.00    -0.423 N  
HETATM    6  C   UNL     1     -11.913   9.532  71.142  1.00  0.00    -0.348 C  
HETATM    7  O   UNL     1     -12.487  12.993  70.773  1.00  0.00    -0.354 OA 
HETATM    8  H   UNL     1     -11.059   8.342  69.721  1.00  0.00     0.000 HD 
HETATM    9  O   UNL     1     -12.003   8.675  72.014  1.00  0.00    -0.323 OA 
HETATM   10  N   UNL     1     -12.328  10.815  71.354  1.00  0.00    -0.351 N  
HETATM   11  H   UNL     1     -12.764  11.026  72.251  1.00  0.00     0.000 HD 
ENDROOT
BRANCH   3  12
HETATM   12  C   UNL     1     -10.832   9.658  67.545  1.00  0.00    -0.198 C  
BRANCH  12  13
HETATM   13  N   UNL     1      -9.964   8.492  67.709  1.00  0.00    -0.179 NA 
HETATM   14  C   UNL     1      -8.134   7.784  66.429  1.00  0.00    -0.109 C  
HETATM   15  C   UNL     1      -9.076   6.591  66.576  1.00  0.00    -0.166 C  
HETATM   16  C   UNL     1      -8.519   8.698  67.591  1.00  0.00    -0.125 C  
HETATM   17  C   UNL     1     -10.292   7.270  67.162  1.00  0.00    -0.297 C  
HETATM   18  N   UNL     1     -11.468   6.743  67.127  1.00  0.00    -0.709 NA 
HETATM   19  H2  UNL     1     -12.227   7.281  67.545  1.00  0.00     0.000 HD 
HETATM   20  H1  UNL     1     -11.710   5.838  66.722  1.00  0.00     0.000 HD 
ENDBRANCH  12  13
ENDBRANCH   3  12
TORSDOF 2
ENDMDL
MODEL      118
REMARK 921   NORMALIZED FREE ENERGY PREDICTED BY IDOCK:   -4.20 KCAL/MOL
REMARK 922        TOTAL FREE ENERGY PREDICTED BY IDOCK:   -5.04 KCAL/MOL
REMARK 923 INTER-LIGAND FREE ENERGY PREDICTED BY IDOCK:   -4.73 KCAL/MOL
REMARK 924 INTRA-LIGAND FREE ENERGY PREDICTED BY IDOCK:   -0.31 KCAL/MOL
REMARK 927      BINDING AFFINITY PREDICTED BY RF-SCORE:    0.00 PKD
ROOT
HETATM    1 CL   UNL     1      -8.985   4.399  71.658  1.00  0.00    -0.150 Cl 
HETATM    2  C   UNL     1     -10.419   5.324  71.429  1.00  0.00    -0.203 C  
HETATM    3  C   UNL     1     -10.732   5.975  70.293  1.00  0.00    -0.300 C  
HETATM    4  C   UNL     1     -11.361   5.411  72.586  1.00  0.00    -0.266 C  
HETATM    5  N   UNL     1     -11.887   6.734  70.249  1.00  0.00    -0.582 N  
HETATM    6  C   UNL     1     -12.745   6.924  71.289  1.00  0.00    -0.315 C  
HETATM    7  O   UNL     1     -11.213   4.763  73.618  1.00  0.00    -0.319 OA 
HETATM    8  H   UNL     1     -12.116   7.189  69.365  1.00  0.00     0.000 HD 
HETATM    9  O   UNL     1     -13.742   7.634  71.214  1.00  0.00    -0.314 OA 
HETATM   10  N   UNL     1     -12.418   6.268  72.440  1.00  0.00    -0.545 N  
HETATM   11  H   UNL     1     -13.009   6.429  73.256  1.00  0.00     0.000 HD 
ENDROOT
BRANCH   3  12
HETATM   12  C   UNL     1      -9.868   6.020  69.047  1.00  0.00    -0.148 C  
BRANCH  12  13
HETATM   13  N   UNL     1     -10.151   4.908  68.139  1.00  0.00    -0.113 NA 
HETATM   14  C   UNL     1      -8.688   3.595  66.865  1.00  0.00    -0.122 C  
HETATM   15  C   UNL     1      -9.781   4.100  65.926  1.00  0.00    -0.208 C  
HETATM   16  C   UNL     1      -9.317   3.710  68.253  1.00  0.00    -0.170 C  
HETATM   17  C   UNL     1     -10.453   5.124  66.811  1.00  0.00    -0.251 C  
HETATM   18  N   UNL     1     -11.200   6.064  66.345  1.00  0.00    -0.722 NA 
HETATM   19  H2  UNL     1     -11.606   6.710  67.022  1.00  0.00     0.000 HD 
HETATM   20  H1  UNL     1     -11.424   6.224  65.362  1.00  0.00     0.000 HD 
ENDBRANCH  12  13
ENDBRANCH   3  12
TORSDOF 2
ENDMDL
MODEL      119
REMARK 921   NORMALIZED FREE ENERGY PREDICTED BY IDOCK:   -4.20 KCAL/MOL
REMARK 922        TOTAL FREE ENERGY PREDICTED BY IDOCK:   -5.03 KCAL/MOL
REMARK 923 INTER-LIGAND FREE ENERGY PREDICTED BY IDOCK:   -4.97 KCAL/MOL
REMARK 924 INTRA-LIGAND FREE ENERGY PREDICTED BY IDOCK:   -0.07 KCAL/MOL
REMARK 927      BINDING AFFINITY PREDICTED BY RF-SCORE:    0.00 PKD
ROOT
HETATM    1 CL   UNL     1     -12.366  11.543  70.689  1.00  0.00    -0.462 Cl 
HETATM    2  C   UNL     1     -11.303  10.665  69.658  1.00  0.00    -0.294 C  
HETATM    3  C   UNL     1     -11.122  10.928  68.349  1.00  0.00    -0.262 C  
HETATM    4  C   UNL     1     -10.548   9.531  70.271  1.00  0.00    -0.266 C  
HETATM    5  N   UNL     1     -10.282  10.114  67.611  1.00  0.00    -0.190 N  
HETATM    6  C   UNL     1      -9.631   9.017  68.084  1.00  0.00    -0.148 C  
HETATM    7  O   UNL     1     -10.565   9.291  71.475  1.00  0.00    -0.333 OA 
HETATM    8  H   UNL     1     -10.140  10.356  66.630  1.00  0.00     0.000 HD 
HETATM    9  O   UNL     1      -8.921   8.304  67.383  1.00  0.00    -0.132 OA 
HETATM   10  N   UNL     1      -9.823   8.752  69.409  1.00  0.00    -0.182 N  
HETATM   11  H   UNL     1      -9.393   7.908  69.787  1.00  0.00     0.000 HD 
ENDROOT
BRANCH   3  12
HETATM   12  C   UNL     1     -11.839  12.013  67.570  1.00  0.00    -0.205 C  
BRANCH  12  13
HETATM   13  N   UNL     1     -11.085  12.436  66.390  1.00  0.00    -0.286 NA 
HETATM   14  C   UNL     1     -10.026  14.473  65.929  1.00  0.00    -0.352 C  
HETATM   15  C   UNL     1     -10.916  14.142  64.733  1.00  0.00    -0.409 C  
HETATM   16  C   UNL     1      -9.810  13.122  66.609  1.00  0.00    -0.261 C  
HETATM   17  C   UNL     1     -11.714  12.988  65.295  1.00  0.00    -0.353 C  
HETATM   18  N   UNL     1     -12.836  12.606  64.789  1.00  0.00    -0.830 NA 
HETATM   19  H2  UNL     1     -13.302  11.820  65.242  1.00  0.00     0.000 HD 
HETATM   20  H1  UNL     1     -13.301  13.015  63.979  1.00  0.00     0.000 HD 
ENDBRANCH  12  13
ENDBRANCH   3  12
TORSDOF 2
ENDMDL
MODEL      120
REMARK 921   NORMALIZED FREE ENERGY PREDICTED BY IDOCK:   -4.20 KCAL/MOL
REMARK 922        TOTAL FREE ENERGY PREDICTED BY IDOCK:   -5.03 KCAL/MOL
REMARK 923 INTER-LIGAND FREE ENERGY PREDICTED BY IDOCK:   -4.80 KCAL/MOL
REMARK 924 INTRA-LIGAND FREE ENERGY PREDICTED BY IDOCK:   -0.23 KCAL/MOL
REMARK 927      BINDING AFFINITY PREDICTED BY RF-SCORE:    0.00 PKD
ROOT
HETATM    1 CL   UNL     1      -8.883  13.183  68.110  1.00  0.00    -0.191 Cl 
HETATM    2  C   UNL     1      -9.286  14.762  67.554  1.00  0.00    -0.194 C  
HETATM    3  C   UNL     1     -10.498  15.333  67.697  1.00  0.00    -0.263 C  
HETATM    4  C   UNL     1      -8.211  15.530  66.857  1.00  0.00    -0.252 C  
HETATM    5  N   UNL     1     -10.717  16.587  67.157  1.00  0.00    -0.270 N  
HETATM    6  C   UNL     1      -9.811  17.305  66.438  1.00  0.00    -0.299 C  
HETATM    7  O   UNL     1      -7.051  15.135  66.780  1.00  0.00    -0.039 OA 
HETATM    8  H   UNL     1     -11.633  17.008  67.309  1.00  0.00     0.000 HD 
HETATM    9  O   UNL     1     -10.061  18.401  65.949  1.00  0.00    -0.540 OA 
HETATM   10  N   UNL     1      -8.588  16.718  66.291  1.00  0.00    -0.301 N  
HETATM   11  H   UNL     1      -7.901  17.203  65.715  1.00  0.00     0.000 HD 
ENDROOT
BRANCH   3  12
HETATM   12  C   UNL     1     -11.702  14.675  68.343  1.00  0.00    -0.320 C  
BRANCH  12  13
HETATM   13  N   UNL     1     -11.481  14.391  69.761  1.00  0.00    -0.272 NA 
HETATM   14  C   UNL     1     -12.858  13.302  71.311  1.00  0.00    -0.398 C  
HETATM   15  C   UNL     1     -12.435  14.630  71.934  1.00  0.00    -0.412 C  
HETATM   16  C   UNL     1     -11.798  13.045  70.242  1.00  0.00    -0.217 C  
HETATM   17  C   UNL     1     -11.809  15.308  70.737  1.00  0.00    -0.338 C  
HETATM   18  N   UNL     1     -11.629  16.583  70.674  1.00  0.00    -0.494 NA 
HETATM   19  H2  UNL     1     -11.204  16.947  69.821  1.00  0.00     0.000 HD 
HETATM   20  H1  UNL     1     -11.872  17.261  71.396  1.00  0.00     0.000 HD 
ENDBRANCH  12  13
ENDBRANCH   3  12
TORSDOF 2
ENDMDL
MODEL      121
REMARK 921   NORMALIZED FREE ENERGY PREDICTED BY IDOCK:   -4.19 KCAL/MOL
REMARK 922        TOTAL FREE ENERGY PREDICTED BY IDOCK:   -5.03 KCAL/MOL
REMARK 923 INTER-LIGAND FREE ENERGY PREDICTED BY IDOCK:   -4.65 KCAL/MOL
REMARK 924 INTRA-LIGAND FREE ENERGY PREDICTED BY IDOCK:   -0.38 KCAL/MOL
REMARK 927      BINDING AFFINITY PREDICTED BY RF-SCORE:    0.00 PKD
ROOT
HETATM    1 CL   UNL     1      -9.412  11.461  66.345  1.00  0.00    -0.214 Cl 
HETATM    2  C   UNL     1     -10.409  11.510  67.747  1.00  0.00    -0.182 C  
HETATM    3  C   UNL     1     -11.373  12.425  67.964  1.00  0.00    -0.287 C  
HETATM    4  C   UNL     1     -10.164  10.467  68.789  1.00  0.00    -0.190 C  
HETATM    5  N   UNL     1     -12.071  12.395  69.158  1.00  0.00    -0.213 N  
HETATM    6  C   UNL     1     -11.843  11.528  70.183  1.00  0.00    -0.356 C  
HETATM    7  O   UNL     1      -9.386   9.532  68.627  1.00  0.00    -0.140 OA 
HETATM    8  H   UNL     1     -12.817  13.079  69.281  1.00  0.00     0.000 HD 
HETATM    9  O   UNL     1     -12.465  11.561  71.239  1.00  0.00    -0.353 OA 
HETATM   10  N   UNL     1     -10.860  10.609  69.959  1.00  0.00    -0.429 N  
HETATM   11  H   UNL     1     -10.626   9.976  70.725  1.00  0.00     0.000 HD 
ENDROOT
BRANCH   3  12
HETATM   12  C   UNL     1     -11.719  13.567  67.029  1.00  0.00    -0.383 C  
BRANCH  12  13
HETATM   13  N   UNL     1     -11.059  14.815  67.414  1.00  0.00    -0.314 NA 
HETATM   14  C   UNL     1      -8.979  15.167  68.430  1.00  0.00    -0.183 C  
HETATM   15  C   UNL     1     -10.016  15.947  69.235  1.00  0.00    -0.254 C  
HETATM   16  C   UNL     1      -9.644  14.970  67.070  1.00  0.00    -0.225 C  
HETATM   17  C   UNL     1     -11.293  15.402  68.639  1.00  0.00    -0.330 C  
HETATM   18  N   UNL     1     -12.432  15.491  69.235  1.00  0.00    -0.593 NA 
HETATM   19  H2  UNL     1     -13.237  15.088  68.754  1.00  0.00     0.000 HD 
HETATM   20  H1  UNL     1     -12.605  15.926  70.141  1.00  0.00     0.000 HD 
ENDBRANCH  12  13
ENDBRANCH   3  12
TORSDOF 2
ENDMDL
MODEL      122
REMARK 921   NORMALIZED FREE ENERGY PREDICTED BY IDOCK:   -4.17 KCAL/MOL
REMARK 922        TOTAL FREE ENERGY PREDICTED BY IDOCK:   -5.00 KCAL/MOL
REMARK 923 INTER-LIGAND FREE ENERGY PREDICTED BY IDOCK:   -4.68 KCAL/MOL
REMARK 924 INTRA-LIGAND FREE ENERGY PREDICTED BY IDOCK:   -0.32 KCAL/MOL
REMARK 927      BINDING AFFINITY PREDICTED BY RF-SCORE:    0.00 PKD
ROOT
HETATM    1 CL   UNL     1      -9.378  13.389  67.810  1.00  0.00    -0.203 Cl 
HETATM    2  C   UNL     1     -10.457  12.924  66.552  1.00  0.00    -0.265 C  
HETATM    3  C   UNL     1     -10.287  11.847  65.762  1.00  0.00    -0.248 C  
HETATM    4  C   UNL     1     -11.650  13.795  66.326  1.00  0.00    -0.350 C  
HETATM    5  N   UNL     1     -11.194  11.609  64.745  1.00  0.00    -0.272 N  
HETATM    6  C   UNL     1     -12.253  12.405  64.432  1.00  0.00    -0.437 C  
HETATM    7  O   UNL     1     -11.943  14.730  67.066  1.00  0.00    -0.350 OA 
HETATM    8  H   UNL     1     -11.058  10.768  64.185  1.00  0.00     0.000 HD 
HETATM    9  O   UNL     1     -13.013  12.171  63.499  1.00  0.00    -0.794 OA 
HETATM   10  N   UNL     1     -12.416  13.499  65.231  1.00  0.00    -0.476 N  
HETATM   11  H   UNL     1     -13.167  14.146  64.994  1.00  0.00     0.000 HD 
ENDROOT
BRANCH   3  12
HETATM   12  C   UNL     1      -9.114  10.889  65.834  1.00  0.00    -0.193 C  
BRANCH  12  13
HETATM   13  N   UNL     1      -9.221   9.969  66.967  1.00  0.00    -0.145 NA 
HETATM   14  C   UNL     1     -10.705   9.977  68.779  1.00  0.00    -0.250 C  
HETATM   15  C   UNL     1      -9.294   9.862  69.348  1.00  0.00    -0.226 C  
HETATM   16  C   UNL     1     -10.558   9.498  67.336  1.00  0.00    -0.271 C  
HETATM   17  C   UNL     1      -8.473  10.148  68.112  1.00  0.00    -0.118 C  
HETATM   18  N   UNL     1      -7.240  10.516  68.164  1.00  0.00    -0.085 NA 
HETATM   19  H2  UNL     1      -6.772  10.690  67.275  1.00  0.00     0.000 HD 
HETATM   20  H1  UNL     1      -6.686  10.648  69.011  1.00  0.00     0.000 HD 
ENDBRANCH  12  13
ENDBRANCH   3  12
TORSDOF 2
ENDMDL
MODEL      123
REMARK 921   NORMALIZED FREE ENERGY PREDICTED BY IDOCK:   -4.16 KCAL/MOL
REMARK 922        TOTAL FREE ENERGY PREDICTED BY IDOCK:   -4.99 KCAL/MOL
REMARK 923 INTER-LIGAND FREE ENERGY PREDICTED BY IDOCK:   -4.65 KCAL/MOL
REMARK 924 INTRA-LIGAND FREE ENERGY PREDICTED BY IDOCK:   -0.34 KCAL/MOL
REMARK 927      BINDING AFFINITY PREDICTED BY RF-SCORE:    0.00 PKD
ROOT
HETATM    1 CL   UNL     1     -11.015   5.792  73.195  1.00  0.00    -0.304 Cl 
HETATM    2  C   UNL     1     -10.851   5.859  71.483  1.00  0.00    -0.266 C  
HETATM    3  C   UNL     1     -11.613   6.619  70.674  1.00  0.00    -0.382 C  
HETATM    4  C   UNL     1      -9.796   4.997  70.869  1.00  0.00    -0.205 C  
HETATM    5  N   UNL     1     -11.424   6.544  69.306  1.00  0.00    -0.636 N  
HETATM    6  C   UNL     1     -10.542   5.720  68.676  1.00  0.00    -0.235 C  
HETATM    7  O   UNL     1      -8.985   4.359  71.534  1.00  0.00    -0.117 OA 
HETATM    8  H   UNL     1     -11.993   7.155  68.720  1.00  0.00     0.000 HD 
HETATM    9  O   UNL     1     -10.432   5.663  67.457  1.00  0.00    -0.210 OA 
HETATM   10  N   UNL     1      -9.777   4.947  69.501  1.00  0.00    -0.177 N  
HETATM   11  H   UNL     1      -9.142   4.280  69.064  1.00  0.00     0.000 HD 
ENDROOT
BRANCH   3  12
HETATM   12  C   UNL     1     -12.748   7.515  71.133  1.00  0.00    -0.241 C  
BRANCH  12  13
HETATM   13  N   UNL     1     -12.274   8.834  71.553  1.00  0.00    -0.313 NA 
HETATM   14  C   UNL     1     -13.483  10.757  72.122  1.00  0.00    -0.227 C  
HETATM   15  C   UNL     1     -12.439  11.167  71.087  1.00  0.00    -0.498 C  
HETATM   16  C   UNL     1     -12.931   9.457  72.704  1.00  0.00    -0.145 C  
HETATM   17  C   UNL     1     -11.954   9.809  70.632  1.00  0.00    -0.259 C  
HETATM   18  N   UNL     1     -11.332   9.629  69.519  1.00  0.00    -0.434 NA 
HETATM   19  H2  UNL     1     -11.049   8.674  69.297  1.00  0.00     0.000 HD 
HETATM   20  H1  UNL     1     -11.095  10.351  68.838  1.00  0.00     0.000 HD 
ENDBRANCH  12  13
ENDBRANCH   3  12
TORSDOF 2
ENDMDL
MODEL      124
REMARK 921   NORMALIZED FREE ENERGY PREDICTED BY IDOCK:   -4.16 KCAL/MOL
REMARK 922        TOTAL FREE ENERGY PREDICTED BY IDOCK:   -4.99 KCAL/MOL
REMARK 923 INTER-LIGAND FREE ENERGY PREDICTED BY IDOCK:   -4.68 KCAL/MOL
REMARK 924 INTRA-LIGAND FREE ENERGY PREDICTED BY IDOCK:   -0.32 KCAL/MOL
REMARK 927      BINDING AFFINITY PREDICTED BY RF-SCORE:    0.00 PKD
ROOT
HETATM    1 CL   UNL     1      -9.457   4.639  71.025  1.00  0.00    -0.212 Cl 
HETATM    2  C   UNL     1     -10.780   5.736  71.110  1.00  0.00    -0.261 C  
HETATM    3  C   UNL     1     -11.254   6.440  70.064  1.00  0.00    -0.411 C  
HETATM    4  C   UNL     1     -11.425   5.919  72.446  1.00  0.00    -0.306 C  
HETATM    5  N   UNL     1     -12.288   7.336  70.270  1.00  0.00    -0.480 N  
HETATM    6  C   UNL     1     -12.864   7.612  71.472  1.00  0.00    -0.344 C  
HETATM    7  O   UNL     1     -11.133   5.240  73.426  1.00  0.00    -0.301 OA 
HETATM    8  H   UNL     1     -12.648   7.830  69.454  1.00  0.00     0.000 HD 
HETATM    9  O   UNL     1     -13.756   8.441  71.612  1.00  0.00    -0.359 OA 
HETATM   10  N   UNL     1     -12.374   6.901  72.529  1.00  0.00    -0.493 N  
HETATM   11  H   UNL     1     -12.744   7.120  73.454  1.00  0.00     0.000 HD 
ENDROOT
BRANCH   3  12
HETATM   12  C   UNL     1     -10.689   6.399  68.658  1.00  0.00    -0.285 C  
BRANCH  12  13
HETATM   13  N   UNL     1      -9.692   7.447  68.433  1.00  0.00    -0.151 NA 
HETATM   14  C   UNL     1      -8.398   8.649  69.972  1.00  0.00    -0.124 C  
HETATM   15  C   UNL     1      -9.070   9.664  69.051  1.00  0.00    -0.148 C  
HETATM   16  C   UNL     1      -8.429   7.350  69.168  1.00  0.00    -0.133 C  
HETATM   17  C   UNL     1     -10.054   8.773  68.328  1.00  0.00    -0.188 C  
HETATM   18  N   UNL     1     -11.087   9.232  67.711  1.00  0.00    -0.478 NA 
HETATM   19  H2  UNL     1     -11.695   8.550  67.258  1.00  0.00     0.000 HD 
HETATM   20  H1  UNL     1     -11.355  10.214  67.634  1.00  0.00     0.000 HD 
ENDBRANCH  12  13
ENDBRANCH   3  12
TORSDOF 2
ENDMDL
MODEL      125
REMARK 921   NORMALIZED FREE ENERGY PREDICTED BY IDOCK:   -4.16 KCAL/MOL
REMARK 922        TOTAL FREE ENERGY PREDICTED BY IDOCK:   -4.99 KCAL/MOL
REMARK 923 INTER-LIGAND FREE ENERGY PREDICTED BY IDOCK:   -4.64 KCAL/MOL
REMARK 924 INTRA-LIGAND FREE ENERGY PREDICTED BY IDOCK:   -0.35 KCAL/MOL
REMARK 927      BINDING AFFINITY PREDICTED BY RF-SCORE:    0.00 PKD
ROOT
HETATM    1 CL   UNL     1     -10.097  12.246  67.947  1.00  0.00    -0.194 Cl 
HETATM    2  C   UNL     1     -10.894  12.575  66.457  1.00  0.00    -0.256 C  
HETATM    3  C   UNL     1     -10.919  11.734  65.406  1.00  0.00    -0.297 C  
HETATM    4  C   UNL     1     -11.586  13.893  66.335  1.00  0.00    -0.367 C  
HETATM    5  N   UNL     1     -11.544  12.135  64.239  1.00  0.00    -0.354 N  
HETATM    6  C   UNL     1     -12.121  13.351  64.032  1.00  0.00    -0.449 C  
HETATM    7  O   UNL     1     -11.709  14.672  67.276  1.00  0.00    -0.381 OA 
HETATM    8  H   UNL     1     -11.576  11.465  63.471  1.00  0.00     0.000 HD 
HETATM    9  O   UNL     1     -12.635  13.675  62.967  1.00  0.00    -0.729 OA 
HETATM   10  N   UNL     1     -12.085  14.201  65.098  1.00  0.00    -0.394 N  
HETATM   11  H   UNL     1     -12.460  15.140  64.963  1.00  0.00     0.000 HD 
ENDROOT
BRANCH   3  12
HETATM   12  C   UNL     1     -10.235  10.382  65.354  1.00  0.00    -0.259 C  
BRANCH  12  13
HETATM   13  N   UNL     1      -8.968  10.432  64.623  1.00  0.00    -0.195 NA 
HETATM   14  C   UNL     1      -7.850   8.756  63.428  1.00  0.00    -0.148 C  
HETATM   15  C   UNL     1      -6.843   9.373  64.396  1.00  0.00    -0.091 C  
HETATM   16  C   UNL     1      -8.929   9.829  63.289  1.00  0.00    -0.252 C  
HETATM   17  C   UNL     1      -7.764  10.208  65.256  1.00  0.00    -0.144 C  
HETATM   18  N   UNL     1      -7.430  10.631  66.426  1.00  0.00    -0.132 NA 
HETATM   19  H2  UNL     1      -8.122  11.184  66.932  1.00  0.00     0.000 HD 
HETATM   20  H1  UNL     1      -6.539  10.465  66.895  1.00  0.00     0.000 HD 
ENDBRANCH  12  13
ENDBRANCH   3  12
TORSDOF 2
ENDMDL
MODEL      126
REMARK 921   NORMALIZED FREE ENERGY PREDICTED BY IDOCK:   -4.14 KCAL/MOL
REMARK 922        TOTAL FREE ENERGY PREDICTED BY IDOCK:   -4.97 KCAL/MOL
REMARK 923 INTER-LIGAND FREE ENERGY PREDICTED BY IDOCK:   -4.64 KCAL/MOL
REMARK 924 INTRA-LIGAND FREE ENERGY PREDICTED BY IDOCK:   -0.33 KCAL/MOL
REMARK 927      BINDING AFFINITY PREDICTED BY RF-SCORE:    0.00 PKD
ROOT
HETATM    1 CL   UNL     1     -12.057  14.663  64.825  1.00  0.00    -0.435 Cl 
HETATM    2  C   UNL     1     -11.244  13.147  64.880  1.00  0.00    -0.310 C  
HETATM    3  C   UNL     1     -10.394  12.774  65.855  1.00  0.00    -0.283 C  
HETATM    4  C   UNL     1     -11.501  12.199  63.753  1.00  0.00    -0.465 C  
HETATM    5  N   UNL     1      -9.756  11.550  65.758  1.00  0.00    -0.228 N  
HETATM    6  C   UNL     1      -9.879  10.677  64.721  1.00  0.00    -0.310 C  
HETATM    7  O   UNL     1     -12.342  12.408  62.883  1.00  0.00    -0.133 OA 
HETATM    8  H   UNL     1      -9.143  11.280  66.527  1.00  0.00     0.000 HD 
HETATM    9  O   UNL     1      -9.266   9.616  64.663  1.00  0.00    -0.244 OA 
HETATM   10  N   UNL     1     -10.736  11.064  63.733  1.00  0.00    -0.542 N  
HETATM   11  H   UNL     1     -10.814  10.460  62.915  1.00  0.00     0.000 HD 
ENDROOT
BRANCH   3  12
HETATM   12  C   UNL     1      -9.997  13.631  67.041  1.00  0.00    -0.248 C  
BRANCH  12  13
HETATM   13  N   UNL     1      -8.676  14.235  66.868  1.00  0.00    -0.208 NA 
HETATM   14  C   UNL     1      -7.208  15.129  68.459  1.00  0.00    -0.118 C  
HETATM   15  C   UNL     1      -7.376  16.173  67.358  1.00  0.00    -0.206 C  
HETATM   16  C   UNL     1      -7.613  13.819  67.785  1.00  0.00    -0.169 C  
HETATM   17  C   UNL     1      -8.531  15.577  66.587  1.00  0.00    -0.279 C  
HETATM   18  N   UNL     1      -9.263  16.269  65.784  1.00  0.00    -0.458 NA 
HETATM   19  H2  UNL     1     -10.023  15.778  65.313  1.00  0.00     0.000 HD 
HETATM   20  H1  UNL     1      -9.156  17.262  65.576  1.00  0.00     0.000 HD 
ENDBRANCH  12  13
ENDBRANCH   3  12
TORSDOF 2
ENDMDL
MODEL      127
REMARK 921   NORMALIZED FREE ENERGY PREDICTED BY IDOCK:   -4.14 KCAL/MOL
REMARK 922        TOTAL FREE ENERGY PREDICTED BY IDOCK:   -4.97 KCAL/MOL
REMARK 923 INTER-LIGAND FREE ENERGY PREDICTED BY IDOCK:   -5.01 KCAL/MOL
REMARK 924 INTRA-LIGAND FREE ENERGY PREDICTED BY IDOCK:    0.05 KCAL/MOL
REMARK 927      BINDING AFFINITY PREDICTED BY RF-SCORE:    0.00 PKD
ROOT
HETATM    1 CL   UNL     1     -11.251  17.049  68.206  1.00  0.00    -0.169 Cl 
HETATM    2  C   UNL     1     -11.507  15.475  68.853  1.00  0.00    -0.354 C  
HETATM    3  C   UNL     1     -11.768  14.381  68.113  1.00  0.00    -0.342 C  
HETATM    4  C   UNL     1     -11.446  15.336  70.340  1.00  0.00    -0.299 C  
HETATM    5  N   UNL     1     -12.013  13.179  68.753  1.00  0.00    -0.315 N  
HETATM    6  C   UNL     1     -12.056  13.000  70.102  1.00  0.00    -0.307 C  
HETATM    7  O   UNL     1     -11.106  16.252  71.082  1.00  0.00    -0.218 OA 
HETATM    8  H   UNL     1     -12.175  12.361  68.167  1.00  0.00     0.000 HD 
HETATM    9  O   UNL     1     -12.311  11.921  70.626  1.00  0.00    -0.356 OA 
HETATM   10  N   UNL     1     -11.798  14.114  70.846  1.00  0.00    -0.488 N  
HETATM   11  H   UNL     1     -11.873  14.030  71.860  1.00  0.00     0.000 HD 
ENDROOT
BRANCH   3  12
HETATM   12  C   UNL     1     -11.903  14.361  66.603  1.00  0.00    -0.398 C  
BRANCH  12  13
HETATM   13  N   UNL     1     -10.622  14.588  65.931  1.00  0.00    -0.297 NA 
HETATM   14  C   UNL     1      -8.692  15.672  66.696  1.00  0.00    -0.333 C  
HETATM   15  C   UNL     1      -9.044  16.274  65.338  1.00  0.00     0.675 C  
HETATM   16  C   UNL     1      -9.400  14.318  66.690  1.00  0.00    -0.284 C  
HETATM   17  C   UNL     1     -10.420  15.688  65.124  1.00  0.00    -0.389 C  
HETATM   18  N   UNL     1     -11.267  16.186  64.291  1.00  0.00    -1.138 NA 
HETATM   19  H2  UNL     1     -12.173  15.722  64.221  1.00  0.00     0.000 HD 
HETATM   20  H1  UNL     1     -11.117  16.999  63.694  1.00  0.00     0.000 HD 
ENDBRANCH  12  13
ENDBRANCH   3  12
TORSDOF 2
ENDMDL
MODEL      128
REMARK 921   NORMALIZED FREE ENERGY PREDICTED BY IDOCK:   -4.13 KCAL/MOL
REMARK 922        TOTAL FREE ENERGY PREDICTED BY IDOCK:   -4.96 KCAL/MOL
REMARK 923 INTER-LIGAND FREE ENERGY PREDICTED BY IDOCK:   -4.58 KCAL/MOL
REMARK 924 INTRA-LIGAND FREE ENERGY PREDICTED BY IDOCK:   -0.39 KCAL/MOL
REMARK 927      BINDING AFFINITY PREDICTED BY RF-SCORE:    0.00 PKD
ROOT
HETATM    1 CL   UNL     1      -6.402  15.516  68.200  1.00  0.00    -0.119 Cl 
HETATM    2  C   UNL     1      -7.834  15.216  67.294  1.00  0.00    -0.211 C  
HETATM    3  C   UNL     1      -8.390  16.093  66.436  1.00  0.00    -0.322 C  
HETATM    4  C   UNL     1      -8.499  13.894  67.496  1.00  0.00    -0.196 C  
HETATM    5  N   UNL     1      -9.576  15.759  65.808  1.00  0.00    -0.335 N  
HETATM    6  C   UNL     1     -10.277  14.610  66.009  1.00  0.00    -0.311 C  
HETATM    7  O   UNL     1      -8.005  12.995  68.170  1.00  0.00    -0.135 OA 
HETATM    8  H   UNL     1      -9.956  16.429  65.139  1.00  0.00     0.000 HD 
HETATM    9  O   UNL     1     -11.344  14.370  65.454  1.00  0.00    -0.320 OA 
HETATM   10  N   UNL     1      -9.713  13.729  66.885  1.00  0.00    -0.257 N  
HETATM   11  H   UNL     1     -10.236  12.880  67.100  1.00  0.00     0.000 HD 
ENDROOT
BRANCH   3  12
HETATM   12  C   UNL     1      -7.864  17.486  66.149  1.00  0.00    -0.246 C  
BRANCH  12  13
HETATM   13  N   UNL     1      -8.564  18.511  66.925  1.00  0.00    -0.269 NA 
HETATM   14  C   UNL     1      -9.583  18.374  69.029  1.00  0.00    -0.206 C  
HETATM   15  C   UNL     1     -10.599  18.989  68.071  1.00  0.00    -0.387 C  
HETATM   16  C   UNL     1      -8.239  18.626  68.348  1.00  0.00    -0.334 C  
HETATM   17  C   UNL     1      -9.909  18.752  66.747  1.00  0.00    -0.343 C  
HETATM   18  N   UNL     1     -10.536  18.775  65.622  1.00  0.00    -0.585 NA 
HETATM   19  H2  UNL     1      -9.984  18.598  64.782  1.00  0.00     0.000 HD 
HETATM   20  H1  UNL     1     -11.532  18.953  65.490  1.00  0.00     0.000 HD 
ENDBRANCH  12  13
ENDBRANCH   3  12
TORSDOF 2
ENDMDL
MODEL      129
REMARK 921   NORMALIZED FREE ENERGY PREDICTED BY IDOCK:   -4.12 KCAL/MOL
REMARK 922        TOTAL FREE ENERGY PREDICTED BY IDOCK:   -4.95 KCAL/MOL
REMARK 923 INTER-LIGAND FREE ENERGY PREDICTED BY IDOCK:   -4.67 KCAL/MOL
REMARK 924 INTRA-LIGAND FREE ENERGY PREDICTED BY IDOCK:   -0.28 KCAL/MOL
REMARK 927      BINDING AFFINITY PREDICTED BY RF-SCORE:    0.00 PKD
ROOT
HETATM    1 CL   UNL     1      -9.771  15.765  65.534  1.00  0.00    -0.320 Cl 
HETATM    2  C   UNL     1      -9.820  16.937  66.795  1.00  0.00    -0.279 C  
HETATM    3  C   UNL     1     -10.617  16.857  67.878  1.00  0.00    -0.361 C  
HETATM    4  C   UNL     1      -8.921  18.122  66.654  1.00  0.00    -0.282 C  
HETATM    5  N   UNL     1     -10.608  17.891  68.796  1.00  0.00    -0.356 N  
HETATM    6  C   UNL     1      -9.878  19.036  68.687  1.00  0.00    -0.413 C  
HETATM    7  O   UNL     1      -8.085  18.222  65.761  1.00  0.00    -0.513 OA 
HETATM    8  H   UNL     1     -11.197  17.789  69.622  1.00  0.00     0.000 HD 
HETATM    9  O   UNL     1      -9.928  19.942  69.511  1.00  0.00    -0.304 OA 
HETATM   10  N   UNL     1      -9.079  19.113  67.584  1.00  0.00    -0.293 N  
HETATM   11  H   UNL     1      -8.557  19.978  67.442  1.00  0.00     0.000 HD 
ENDROOT
BRANCH   3  12
HETATM   12  C   UNL     1     -11.612  15.745  68.149  1.00  0.00    -0.255 C  
BRANCH  12  13
HETATM   13  N   UNL     1     -10.957  14.517  68.600  1.00  0.00    -0.242 NA 
HETATM   14  C   UNL     1      -8.725  13.837  68.395  1.00  0.00    -0.162 C  
HETATM   15  C   UNL     1      -9.597  12.695  67.880  1.00  0.00    -0.211 C  
HETATM   16  C   UNL     1      -9.669  14.645  69.284  1.00  0.00    -0.041 C  
HETATM   17  C   UNL     1     -10.942  13.382  67.818  1.00  0.00    -0.262 C  
HETATM   18  N   UNL     1     -11.920  12.934  67.108  1.00  0.00    -0.372 NA 
HETATM   19  H2  UNL     1     -12.787  13.471  67.127  1.00  0.00     0.000 HD 
HETATM   20  H1  UNL     1     -11.909  12.094  66.529  1.00  0.00     0.000 HD 
ENDBRANCH  12  13
ENDBRANCH   3  12
TORSDOF 2
ENDMDL
MODEL      130
REMARK 921   NORMALIZED FREE ENERGY PREDICTED BY IDOCK:   -4.11 KCAL/MOL
REMARK 922        TOTAL FREE ENERGY PREDICTED BY IDOCK:   -4.94 KCAL/MOL
REMARK 923 INTER-LIGAND FREE ENERGY PREDICTED BY IDOCK:   -5.23 KCAL/MOL
REMARK 924 INTRA-LIGAND FREE ENERGY PREDICTED BY IDOCK:    0.30 KCAL/MOL
REMARK 927      BINDING AFFINITY PREDICTED BY RF-SCORE:    0.00 PKD
ROOT
HETATM    1 CL   UNL     1      -9.208  18.145  67.178  1.00  0.00    -0.252 Cl 
HETATM    2  C   UNL     1      -8.771  16.485  67.058  1.00  0.00    -0.197 C  
HETATM    3  C   UNL     1      -9.382  15.592  66.256  1.00  0.00    -0.323 C  
HETATM    4  C   UNL     1      -7.643  16.017  67.920  1.00  0.00    -0.132 C  
HETATM    5  N   UNL     1      -8.977  14.270  66.290  1.00  0.00    -0.491 N  
HETATM    6  C   UNL     1      -8.017  13.761  67.110  1.00  0.00    -0.044 C  
HETATM    7  O   UNL     1      -6.959  16.780  68.596  1.00  0.00    -0.161 OA 
HETATM    8  H   UNL     1      -9.436  13.624  65.649  1.00  0.00     0.000 HD 
HETATM    9  O   UNL     1      -7.713  12.573  67.129  1.00  0.00    -0.162 OA 
HETATM   10  N   UNL     1      -7.406  14.669  67.925  1.00  0.00    -0.136 N  
HETATM   11  H   UNL     1      -6.718  14.316  68.590  1.00  0.00     0.000 HD 
ENDROOT
BRANCH   3  12
HETATM   12  C   UNL     1     -10.563  15.896  65.354  1.00  0.00    -0.419 C  
BRANCH  12  13
HETATM   13  N   UNL     1     -11.728  15.071  65.674  1.00  0.00    -0.200 NA 
HETATM   14  C   UNL     1     -11.872  13.071  66.885  1.00  0.00    -0.442 C  
HETATM   15  C   UNL     1     -12.595  12.852  65.559  1.00  0.00    -0.359 C  
HETATM   16  C   UNL     1     -11.863  14.590  67.050  1.00  0.00    -0.385 C  
HETATM   17  C   UNL     1     -12.178  14.096  64.808  1.00  0.00    -0.440 C  
HETATM   18  N   UNL     1     -12.244  14.190  63.525  1.00  0.00    -1.090 NA 
HETATM   19  H2  UNL     1     -11.934  15.070  63.111  1.00  0.00     0.000 HD 
HETATM   20  H1  UNL     1     -12.577  13.469  62.885  1.00  0.00     0.000 HD 
ENDBRANCH  12  13
ENDBRANCH   3  12
TORSDOF 2
ENDMDL
MODEL      131
REMARK 921   NORMALIZED FREE ENERGY PREDICTED BY IDOCK:   -4.08 KCAL/MOL
REMARK 922        TOTAL FREE ENERGY PREDICTED BY IDOCK:   -4.90 KCAL/MOL
REMARK 923 INTER-LIGAND FREE ENERGY PREDICTED BY IDOCK:   -4.63 KCAL/MOL
REMARK 924 INTRA-LIGAND FREE ENERGY PREDICTED BY IDOCK:   -0.28 KCAL/MOL
REMARK 927      BINDING AFFINITY PREDICTED BY RF-SCORE:    0.00 PKD
ROOT
HETATM    1 CL   UNL     1      -8.432   7.400  66.164  1.00  0.00    -0.138 Cl 
HETATM    2  C   UNL     1      -9.438   8.719  66.625  1.00  0.00    -0.203 C  
HETATM    3  C   UNL     1      -9.948   8.892  67.859  1.00  0.00    -0.179 C  
HETATM    4  C   UNL     1      -9.768   9.721  65.567  1.00  0.00    -0.312 C  
HETATM    5  N   UNL     1     -10.792   9.962  68.094  1.00  0.00    -0.343 N  
HETATM    6  C   UNL     1     -11.201  10.863  67.158  1.00  0.00    -0.184 C  
HETATM    7  O   UNL     1      -9.259   9.705  64.450  1.00  0.00    -0.249 OA 
HETATM    8  H   UNL     1     -11.137  10.087  69.045  1.00  0.00     0.000 HD 
HETATM    9  O   UNL     1     -11.978  11.779  67.404  1.00  0.00    -0.617 OA 
HETATM   10  N   UNL     1     -10.686  10.678  65.908  1.00  0.00    -0.099 N  
HETATM   11  H   UNL     1     -11.010  11.302  65.169  1.00  0.00     0.000 HD 
ENDROOT
BRANCH   3  12
HETATM   12  C   UNL     1      -9.743   7.948  69.029  1.00  0.00    -0.162 C  
BRANCH  12  13
HETATM   13  N   UNL     1     -10.412   8.419  70.242  1.00  0.00    -0.213 NA 
HETATM   14  C   UNL     1      -9.804   8.169  72.490  1.00  0.00    -0.363 C  
HETATM   15  C   UNL     1     -11.257   7.719  72.358  1.00  0.00    -0.392 C  
HETATM   16  C   UNL     1      -9.586   9.059  71.268  1.00  0.00    -0.291 C  
HETATM   17  C   UNL     1     -11.397   7.674  70.854  1.00  0.00    -0.276 C  
HETATM   18  N   UNL     1     -12.328   7.010  70.261  1.00  0.00    -0.610 NA 
HETATM   19  H2  UNL     1     -12.336   7.038  69.241  1.00  0.00     0.000 HD 
HETATM   20  H1  UNL     1     -13.057   6.459  70.714  1.00  0.00     0.000 HD 
ENDBRANCH  12  13
ENDBRANCH   3  12
TORSDOF 2
ENDMDL
MODEL      132
REMARK 921   NORMALIZED FREE ENERGY PREDICTED BY IDOCK:   -4.07 KCAL/MOL
REMARK 922        TOTAL FREE ENERGY PREDICTED BY IDOCK:   -4.89 KCAL/MOL
REMARK 923 INTER-LIGAND FREE ENERGY PREDICTED BY IDOCK:   -4.44 KCAL/MOL
REMARK 924 INTRA-LIGAND FREE ENERGY PREDICTED BY IDOCK:   -0.46 KCAL/MOL
REMARK 927      BINDING AFFINITY PREDICTED BY RF-SCORE:    0.00 PKD
ROOT
HETATM    1 CL   UNL     1      -9.505   7.804  68.421  1.00  0.00    -0.146 Cl 
HETATM    2  C   UNL     1     -10.568   8.468  69.601  1.00  0.00    -0.220 C  
HETATM    3  C   UNL     1     -11.363   7.738  70.407  1.00  0.00    -0.207 C  
HETATM    4  C   UNL     1     -10.608   9.958  69.714  1.00  0.00    -0.264 C  
HETATM    5  N   UNL     1     -12.218   8.390  71.277  1.00  0.00    -0.336 N  
HETATM    6  C   UNL     1     -12.366   9.740  71.373  1.00  0.00    -0.388 C  
HETATM    7  O   UNL     1      -9.841  10.695  69.102  1.00  0.00    -0.207 OA 
HETATM    8  H   UNL     1     -12.784   7.812  71.897  1.00  0.00     0.000 HD 
HETATM    9  O   UNL     1     -13.162  10.274  72.137  1.00  0.00    -0.452 OA 
HETATM   10  N   UNL     1     -11.563  10.474  70.548  1.00  0.00    -0.330 N  
HETATM   11  H   UNL     1     -11.683  11.486  70.555  1.00  0.00     0.000 HD 
ENDROOT
BRANCH   3  12
HETATM   12  C   UNL     1     -11.470   6.226  70.389  1.00  0.00    -0.344 C  
BRANCH  12  13
HETATM   13  N   UNL     1     -10.418   5.589  71.183  1.00  0.00    -0.233 NA 
HETATM   14  C   UNL     1      -9.770   3.341  71.299  1.00  0.00    -0.222 C  
HETATM   15  C   UNL     1      -9.986   3.827  72.730  1.00  0.00    -0.212 C  
HETATM   16  C   UNL     1      -9.545   4.628  70.507  1.00  0.00    -0.198 C  
HETATM   17  C   UNL     1     -10.651   5.160  72.472  1.00  0.00    -0.220 C  
HETATM   18  N   UNL     1     -11.342   5.778  73.366  1.00  0.00    -0.459 NA 
HETATM   19  H2  UNL     1     -11.756   6.670  73.095  1.00  0.00     0.000 HD 
HETATM   20  H1  UNL     1     -11.514   5.460  74.321  1.00  0.00     0.000 HD 
ENDBRANCH  12  13
ENDBRANCH   3  12
TORSDOF 2
ENDMDL
MODEL      133
REMARK 921   NORMALIZED FREE ENERGY PREDICTED BY IDOCK:   -4.07 KCAL/MOL
REMARK 922        TOTAL FREE ENERGY PREDICTED BY IDOCK:   -4.89 KCAL/MOL
REMARK 923 INTER-LIGAND FREE ENERGY PREDICTED BY IDOCK:   -4.75 KCAL/MOL
REMARK 924 INTRA-LIGAND FREE ENERGY PREDICTED BY IDOCK:   -0.14 KCAL/MOL
REMARK 927      BINDING AFFINITY PREDICTED BY RF-SCORE:    0.00 PKD
ROOT
HETATM    1 CL   UNL     1     -11.739  11.728  69.188  1.00  0.00    -0.356 Cl 
HETATM    2  C   UNL     1     -11.309  12.029  67.548  1.00  0.00    -0.319 C  
HETATM    3  C   UNL     1     -11.436  13.221  66.935  1.00  0.00    -0.338 C  
HETATM    4  C   UNL     1     -10.775  10.874  66.764  1.00  0.00    -0.252 C  
HETATM    5  N   UNL     1     -11.111  13.326  65.595  1.00  0.00    -0.281 N  
HETATM    6  C   UNL     1     -10.699  12.298  64.801  1.00  0.00    -0.300 C  
HETATM    7  O   UNL     1     -10.522   9.785  67.270  1.00  0.00    -0.238 OA 
HETATM    8  H   UNL     1     -11.185  14.247  65.165  1.00  0.00     0.000 HD 
HETATM    9  O   UNL     1     -10.453  12.431  63.608  1.00  0.00    -0.425 OA 
HETATM   10  N   UNL     1     -10.580  11.091  65.427  1.00  0.00    -0.236 N  
HETATM   11  H   UNL     1     -10.325  10.288  64.853  1.00  0.00     0.000 HD 
ENDROOT
BRANCH   3  12
HETATM   12  C   UNL     1     -11.996  14.477  67.575  1.00  0.00    -0.325 C  
BRANCH  12  13
HETATM   13  N   UNL     1     -10.943  15.408  67.978  1.00  0.00    -0.296 NA 
HETATM   14  C   UNL     1      -8.657  15.411  67.466  1.00  0.00    -0.187 C  
HETATM   15  C   UNL     1      -8.784  15.541  68.982  1.00  0.00    -0.235 C  
HETATM   16  C   UNL     1     -10.016  15.875  66.945  1.00  0.00    -0.249 C  
HETATM   17  C   UNL     1     -10.255  15.246  69.162  1.00  0.00    -0.242 C  
HETATM   18  N   UNL     1     -10.760  14.887  70.292  1.00  0.00    -0.475 NA 
HETATM   19  H2  UNL     1     -11.763  14.706  70.312  1.00  0.00     0.000 HD 
HETATM   20  H1  UNL     1     -10.251  14.767  71.168  1.00  0.00     0.000 HD 
ENDBRANCH  12  13
ENDBRANCH   3  12
TORSDOF 2
ENDMDL
MODEL      134
REMARK 921   NORMALIZED FREE ENERGY PREDICTED BY IDOCK:   -4.07 KCAL/MOL
REMARK 922        TOTAL FREE ENERGY PREDICTED BY IDOCK:   -4.89 KCAL/MOL
REMARK 923 INTER-LIGAND FREE ENERGY PREDICTED BY IDOCK:   -4.56 KCAL/MOL
REMARK 924 INTRA-LIGAND FREE ENERGY PREDICTED BY IDOCK:   -0.33 KCAL/MOL
REMARK 927      BINDING AFFINITY PREDICTED BY RF-SCORE:    0.00 PKD
ROOT
HETATM    1 CL   UNL     1     -12.203  12.887  69.650  1.00  0.00    -0.259 Cl 
HETATM    2  C   UNL     1     -11.650  13.753  68.269  1.00  0.00    -0.338 C  
HETATM    3  C   UNL     1     -11.262  13.178  67.115  1.00  0.00    -0.294 C  
HETATM    4  C   UNL     1     -11.589  15.241  68.383  1.00  0.00    -0.349 C  
HETATM    5  N   UNL     1     -10.781  13.977  66.094  1.00  0.00    -0.287 N  
HETATM    6  C   UNL     1     -10.621  15.328  66.160  1.00  0.00    -0.313 C  
HETATM    7  O   UNL     1     -12.026  15.855  69.352  1.00  0.00    -0.354 OA 
HETATM    8  H   UNL     1     -10.526  13.518  65.221  1.00  0.00     0.000 HD 
HETATM    9  O   UNL     1     -10.159  15.993  65.239  1.00  0.00    -0.475 OA 
HETATM   10  N   UNL     1     -11.009  15.903  67.334  1.00  0.00    -0.296 N  
HETATM   11  H   UNL     1     -10.855  16.906  67.440  1.00  0.00     0.000 HD 
ENDROOT
BRANCH   3  12
HETATM   12  C   UNL     1     -11.225  11.684  66.854  1.00  0.00    -0.313 C  
BRANCH  12  13
HETATM   13  N   UNL     1      -9.874  11.210  66.551  1.00  0.00    -0.203 NA 
HETATM   14  C   UNL     1      -9.145   9.110  65.815  1.00  0.00    -0.265 C  
HETATM   15  C   UNL     1      -8.297   9.487  67.027  1.00  0.00    -0.124 C  
HETATM   16  C   UNL     1      -9.683  10.449  65.315  1.00  0.00    -0.278 C  
HETATM   17  C   UNL     1      -9.058  10.691  67.533  1.00  0.00    -0.139 C  
HETATM   18  N   UNL     1      -8.936  11.137  68.735  1.00  0.00    -0.269 NA 
HETATM   19  H2  UNL     1      -9.496  11.953  68.983  1.00  0.00     0.000 HD 
HETATM   20  H1  UNL     1      -8.331  10.753  69.461  1.00  0.00     0.000 HD 
ENDBRANCH  12  13
ENDBRANCH   3  12
TORSDOF 2
ENDMDL
MODEL      135
REMARK 921   NORMALIZED FREE ENERGY PREDICTED BY IDOCK:   -4.06 KCAL/MOL
REMARK 922        TOTAL FREE ENERGY PREDICTED BY IDOCK:   -4.88 KCAL/MOL
REMARK 923 INTER-LIGAND FREE ENERGY PREDICTED BY IDOCK:   -4.65 KCAL/MOL
REMARK 924 INTRA-LIGAND FREE ENERGY PREDICTED BY IDOCK:   -0.23 KCAL/MOL
REMARK 927      BINDING AFFINITY PREDICTED BY RF-SCORE:    0.00 PKD
ROOT
HETATM    1 CL   UNL     1     -12.291  10.852  70.874  1.00  0.00    -0.467 Cl 
HETATM    2  C   UNL     1     -11.066  10.435  69.739  1.00  0.00    -0.295 C  
HETATM    3  C   UNL     1     -10.003   9.657  70.018  1.00  0.00    -0.247 C  
HETATM    4  C   UNL     1     -11.199  10.996  68.361  1.00  0.00    -0.274 C  
HETATM    5  N   UNL     1      -9.052   9.440  69.037  1.00  0.00    -0.139 N  
HETATM    6  C   UNL     1      -9.068   9.987  67.790  1.00  0.00    -0.131 C  
HETATM    7  O   UNL     1     -12.188  11.621  67.987  1.00  0.00    -0.551 OA 
HETATM    8  H   UNL     1      -8.276   8.821  69.267  1.00  0.00     0.000 HD 
HETATM    9  O   UNL     1      -8.185   9.792  66.963  1.00  0.00    -0.116 OA 
HETATM   10  N   UNL     1     -10.144  10.780  67.516  1.00  0.00    -0.181 N  
HETATM   11  H   UNL     1     -10.163  11.249  66.611  1.00  0.00     0.000 HD 
ENDROOT
BRANCH   3  12
HETATM   12  C   UNL     1      -9.701   9.046  71.373  1.00  0.00    -0.299 C  
BRANCH  12  13
HETATM   13  N   UNL     1     -10.241   7.692  71.500  1.00  0.00    -0.185 NA 
HETATM   14  C   UNL     1     -11.381   6.372  69.937  1.00  0.00    -0.500 C  
HETATM   15  C   UNL     1     -12.213   6.382  71.217  1.00  0.00    -0.168 C  
HETATM   16  C   UNL     1      -9.979   6.750  70.411  1.00  0.00    -0.179 C  
HETATM   17  C   UNL     1     -11.508   7.468  71.996  1.00  0.00    -0.279 C  
HETATM   18  N   UNL     1     -12.058   8.084  72.985  1.00  0.00    -0.642 NA 
HETATM   19  H2  UNL     1     -11.502   8.806  73.445  1.00  0.00     0.000 HD 
HETATM   20  H1  UNL     1     -12.995   7.918  73.352  1.00  0.00     0.000 HD 
ENDBRANCH  12  13
ENDBRANCH   3  12
TORSDOF 2
ENDMDL
MODEL      136
REMARK 921   NORMALIZED FREE ENERGY PREDICTED BY IDOCK:   -4.06 KCAL/MOL
REMARK 922        TOTAL FREE ENERGY PREDICTED BY IDOCK:   -4.87 KCAL/MOL
REMARK 923 INTER-LIGAND FREE ENERGY PREDICTED BY IDOCK:   -4.55 KCAL/MOL
REMARK 924 INTRA-LIGAND FREE ENERGY PREDICTED BY IDOCK:   -0.33 KCAL/MOL
REMARK 927      BINDING AFFINITY PREDICTED BY RF-SCORE:    0.00 PKD
ROOT
HETATM    1 CL   UNL     1     -13.064  13.612  71.135  1.00  0.00    -0.345 Cl 
HETATM    2  C   UNL     1     -12.393  12.061  70.807  1.00  0.00    -0.308 C  
HETATM    3  C   UNL     1     -11.456  11.820  69.870  1.00  0.00    -0.206 C  
HETATM    4  C   UNL     1     -12.906  10.915  71.617  1.00  0.00    -0.449 C  
HETATM    5  N   UNL     1     -11.036  10.519  69.659  1.00  0.00    -0.264 N  
HETATM    6  C   UNL     1     -11.520   9.421  70.301  1.00  0.00    -0.180 C  
HETATM    7  O   UNL     1     -13.675  11.059  72.563  1.00  0.00     0.119 OA 
HETATM    8  H   UNL     1     -10.302  10.371  68.966  1.00  0.00     0.000 HD 
HETATM    9  O   UNL     1     -11.140   8.281  70.057  1.00  0.00    -0.235 OA 
HETATM   10  N   UNL     1     -12.474   9.671  71.244  1.00  0.00    -0.334 N  
HETATM   11  H   UNL     1     -12.898   8.868  71.708  1.00  0.00     0.000 HD 
ENDROOT
BRANCH   3  12
HETATM   12  C   UNL     1     -10.863  12.861  68.940  1.00  0.00    -0.200 C  
BRANCH  12  13
HETATM   13  N   UNL     1     -11.759  13.184  67.830  1.00  0.00    -0.343 NA 
HETATM   14  C   UNL     1     -11.366  13.159  65.521  1.00  0.00    -0.325 C  
HETATM   15  C   UNL     1     -11.971  14.518  65.864  1.00  0.00    -0.315 C  
HETATM   16  C   UNL     1     -11.785  12.267  66.689  1.00  0.00    -0.349 C  
HETATM   17  C   UNL     1     -11.901  14.478  67.374  1.00  0.00    -0.388 C  
HETATM   18  N   UNL     1     -11.963  15.538  68.102  1.00  0.00    -0.424 NA 
HETATM   19  H2  UNL     1     -11.902  15.409  69.112  1.00  0.00     0.000 HD 
HETATM   20  H1  UNL     1     -12.068  16.496  67.764  1.00  0.00     0.000 HD 
ENDBRANCH  12  13
ENDBRANCH   3  12
TORSDOF 2
ENDMDL
MODEL      137
REMARK 921   NORMALIZED FREE ENERGY PREDICTED BY IDOCK:   -4.04 KCAL/MOL
REMARK 922        TOTAL FREE ENERGY PREDICTED BY IDOCK:   -4.86 KCAL/MOL
REMARK 923 INTER-LIGAND FREE ENERGY PREDICTED BY IDOCK:   -4.51 KCAL/MOL
REMARK 924 INTRA-LIGAND FREE ENERGY PREDICTED BY IDOCK:   -0.36 KCAL/MOL
REMARK 927      BINDING AFFINITY PREDICTED BY RF-SCORE:    0.00 PKD
ROOT
HETATM    1 CL   UNL     1      -8.445  10.605  66.277  1.00  0.00    -0.150 Cl 
HETATM    2  C   UNL     1      -8.618  11.990  67.285  1.00  0.00    -0.177 C  
HETATM    3  C   UNL     1      -9.787  12.412  67.803  1.00  0.00    -0.203 C  
HETATM    4  C   UNL     1      -7.380  12.771  67.581  1.00  0.00    -0.144 C  
HETATM    5  N   UNL     1      -9.809  13.574  68.553  1.00  0.00    -0.324 N  
HETATM    6  C   UNL     1      -8.736  14.378  68.791  1.00  0.00    -0.129 C  
HETATM    7  O   UNL     1      -6.259  12.399  67.244  1.00  0.00    -0.150 OA 
HETATM    8  H   UNL     1     -10.701  13.852  68.960  1.00  0.00     0.000 HD 
HETATM    9  O   UNL     1      -8.809  15.419  69.435  1.00  0.00    -0.245 OA 
HETATM   10  N   UNL     1      -7.556  13.948  68.257  1.00  0.00    -0.119 N  
HETATM   11  H   UNL     1      -6.742  14.551  68.370  1.00  0.00     0.000 HD 
ENDROOT
BRANCH   3  12
HETATM   12  C   UNL     1     -11.134  11.758  67.566  1.00  0.00    -0.272 C  
BRANCH  12  13
HETATM   13  N   UNL     1     -11.820  12.313  66.399  1.00  0.00    -0.589 NA 
HETATM   14  C   UNL     1     -10.965  12.964  64.318  1.00  0.00    -0.419 C  
HETATM   15  C   UNL     1     -11.803  14.125  64.849  1.00  0.00    -0.407 C  
HETATM   16  C   UNL     1     -11.490  11.753  65.087  1.00  0.00    -0.183 C  
HETATM   17  C   UNL     1     -12.037  13.668  66.271  1.00  0.00    -0.434 C  
HETATM   18  N   UNL     1     -12.387  14.475  67.212  1.00  0.00    -0.562 NA 
HETATM   19  H2  UNL     1     -12.516  14.072  68.141  1.00  0.00     0.000 HD 
HETATM   20  H1  UNL     1     -12.548  15.478  67.117  1.00  0.00     0.000 HD 
ENDBRANCH  12  13
ENDBRANCH   3  12
TORSDOF 2
ENDMDL
MODEL      138
REMARK 921   NORMALIZED FREE ENERGY PREDICTED BY IDOCK:   -4.04 KCAL/MOL
REMARK 922        TOTAL FREE ENERGY PREDICTED BY IDOCK:   -4.85 KCAL/MOL
REMARK 923 INTER-LIGAND FREE ENERGY PREDICTED BY IDOCK:   -4.77 KCAL/MOL
REMARK 924 INTRA-LIGAND FREE ENERGY PREDICTED BY IDOCK:   -0.09 KCAL/MOL
REMARK 927      BINDING AFFINITY PREDICTED BY RF-SCORE:    0.00 PKD
ROOT
HETATM    1 CL   UNL     1     -12.724  10.609  69.935  1.00  0.00    -0.205 Cl 
HETATM    2  C   UNL     1     -12.114  12.142  69.442  1.00  0.00    -0.190 C  
HETATM    3  C   UNL     1     -11.536  12.384  68.250  1.00  0.00    -0.333 C  
HETATM    4  C   UNL     1     -12.228  13.263  70.423  1.00  0.00    -0.332 C  
HETATM    5  N   UNL     1     -11.032  13.645  67.991  1.00  0.00    -0.244 N  
HETATM    6  C   UNL     1     -11.027  14.687  68.868  1.00  0.00    -0.253 C  
HETATM    7  O   UNL     1     -12.837  13.163  71.484  1.00  0.00    -0.358 OA 
HETATM    8  H   UNL     1     -10.630  13.808  67.069  1.00  0.00     0.000 HD 
HETATM    9  O   UNL     1     -10.538  15.780  68.607  1.00  0.00    -0.234 OA 
HETATM   10  N   UNL     1     -11.607  14.433  70.077  1.00  0.00    -0.291 N  
HETATM   11  H   UNL     1     -11.576  15.173  70.778  1.00  0.00     0.000 HD 
ENDROOT
BRANCH   3  12
HETATM   12  C   UNL     1     -11.308  11.349  67.165  1.00  0.00    -0.255 C  
BRANCH  12  13
HETATM   13  N   UNL     1     -11.118  11.961  65.850  1.00  0.00    -0.312 NA 
HETATM   14  C   UNL     1     -12.416  11.794  63.908  1.00  0.00    -0.380 C  
HETATM   15  C   UNL     1     -10.973  11.486  63.518  1.00  0.00    -0.453 C  
HETATM   16  C   UNL     1     -12.283  12.578  65.212  1.00  0.00    -0.433 C  
HETATM   17  C   UNL     1     -10.338  11.361  64.884  1.00  0.00    -0.292 C  
HETATM   18  N   UNL     1      -9.216  10.758  65.078  1.00  0.00    -0.203 NA 
HETATM   19  H2  UNL     1      -8.872  10.722  66.038  1.00  0.00     0.000 HD 
HETATM   20  H1  UNL     1      -8.640  10.314  64.363  1.00  0.00     0.000 HD 
ENDBRANCH  12  13
ENDBRANCH   3  12
TORSDOF 2
ENDMDL
MODEL      139
REMARK 921   NORMALIZED FREE ENERGY PREDICTED BY IDOCK:   -4.02 KCAL/MOL
REMARK 922        TOTAL FREE ENERGY PREDICTED BY IDOCK:   -4.83 KCAL/MOL
REMARK 923 INTER-LIGAND FREE ENERGY PREDICTED BY IDOCK:   -4.62 KCAL/MOL
REMARK 924 INTRA-LIGAND FREE ENERGY PREDICTED BY IDOCK:   -0.22 KCAL/MOL
REMARK 927      BINDING AFFINITY PREDICTED BY RF-SCORE:    0.00 PKD
ROOT
HETATM    1 CL   UNL     1      -9.331   8.739  68.160  1.00  0.00    -0.145 Cl 
HETATM    2  C   UNL     1     -10.421   9.469  69.274  1.00  0.00    -0.212 C  
HETATM    3  C   UNL     1     -10.408   9.254  70.604  1.00  0.00    -0.263 C  
HETATM    4  C   UNL     1     -11.454  10.388  68.708  1.00  0.00    -0.175 C  
HETATM    5  N   UNL     1     -11.374   9.855  71.391  1.00  0.00    -0.340 N  
HETATM    6  C   UNL     1     -12.391  10.634  70.933  1.00  0.00    -0.401 C  
HETATM    7  O   UNL     1     -11.471  10.728  67.529  1.00  0.00    -0.475 OA 
HETATM    8  H   UNL     1     -11.319   9.701  72.397  1.00  0.00     0.000 HD 
HETATM    9  O   UNL     1     -13.246  11.119  71.666  1.00  0.00    -0.418 OA 
HETATM   10  N   UNL     1     -12.403  10.842  69.584  1.00  0.00    -0.497 N  
HETATM   11  H   UNL     1     -13.181  11.377  69.198  1.00  0.00     0.000 HD 
ENDROOT
BRANCH   3  12
HETATM   12  C   UNL     1      -9.455   8.323  71.327  1.00  0.00    -0.172 C  
BRANCH  12  13
HETATM   13  N   UNL     1     -10.048   7.759  72.540  1.00  0.00    -0.220 NA 
HETATM   14  C   UNL     1      -9.235   6.107  73.987  1.00  0.00    -0.140 C  
HETATM   15  C   UNL     1     -10.659   5.713  73.601  1.00  0.00    -0.310 C  
HETATM   16  C   UNL     1      -9.185   7.609  73.713  1.00  0.00    -0.277 C  
HETATM   17  C   UNL     1     -10.923   6.695  72.483  1.00  0.00    -0.247 C  
HETATM   18  N   UNL     1     -11.853   6.520  71.608  1.00  0.00    -0.324 NA 
HETATM   19  H2  UNL     1     -11.950   7.237  70.889  1.00  0.00     0.000 HD 
HETATM   20  H1  UNL     1     -12.500   5.733  71.567  1.00  0.00     0.000 HD 
ENDBRANCH  12  13
ENDBRANCH   3  12
TORSDOF 2
ENDMDL
MODEL      140
REMARK 921   NORMALIZED FREE ENERGY PREDICTED BY IDOCK:   -4.00 KCAL/MOL
REMARK 922        TOTAL FREE ENERGY PREDICTED BY IDOCK:   -4.81 KCAL/MOL
REMARK 923 INTER-LIGAND FREE ENERGY PREDICTED BY IDOCK:   -4.41 KCAL/MOL
REMARK 924 INTRA-LIGAND FREE ENERGY PREDICTED BY IDOCK:   -0.40 KCAL/MOL
REMARK 927      BINDING AFFINITY PREDICTED BY RF-SCORE:    0.00 PKD
ROOT
HETATM    1 CL   UNL     1      -7.883   7.430  71.976  1.00  0.00    -0.089 Cl 
HETATM    2  C   UNL     1      -9.584   7.308  71.745  1.00  0.00    -0.150 C  
HETATM    3  C   UNL     1     -10.184   7.194  70.545  1.00  0.00    -0.196 C  
HETATM    4  C   UNL     1     -10.438   7.347  72.971  1.00  0.00    -0.323 C  
HETATM    5  N   UNL     1     -11.566   7.161  70.484  1.00  0.00    -0.390 N  
HETATM    6  C   UNL     1     -12.404   7.277  71.551  1.00  0.00    -0.362 C  
HETATM    7  O   UNL     1      -9.975   7.338  74.108  1.00  0.00    -0.271 OA 
HETATM    8  H   UNL     1     -11.991   7.041  69.565  1.00  0.00     0.000 HD 
HETATM    9  O   UNL     1     -13.626   7.276  71.445  1.00  0.00    -0.388 OA 
HETATM   10  N   UNL     1     -11.790   7.400  72.763  1.00  0.00    -0.565 N  
HETATM   11  H   UNL     1     -12.386   7.541  73.579  1.00  0.00     0.000 HD 
ENDROOT
BRANCH   3  12
HETATM   12  C   UNL     1      -9.467   7.180  69.209  1.00  0.00    -0.152 C  
BRANCH  12  13
HETATM   13  N   UNL     1      -9.748   5.965  68.444  1.00  0.00    -0.124 NA 
HETATM   14  C   UNL     1      -8.476   4.895  66.794  1.00  0.00    -0.106 C  
HETATM   15  C   UNL     1      -9.884   5.080  66.234  1.00  0.00    -0.217 C  
HETATM   16  C   UNL     1      -8.670   4.983  68.307  1.00  0.00    -0.102 C  
HETATM   17  C   UNL     1     -10.475   6.005  67.273  1.00  0.00    -0.257 C  
HETATM   18  N   UNL     1     -11.520   6.725  67.051  1.00  0.00    -0.716 NA 
HETATM   19  H2  UNL     1     -11.840   7.321  67.815  1.00  0.00     0.000 HD 
HETATM   20  H1  UNL     1     -12.058   6.754  66.185  1.00  0.00     0.000 HD 
ENDBRANCH  12  13
ENDBRANCH   3  12
TORSDOF 2
ENDMDL
MODEL      141
REMARK 921   NORMALIZED FREE ENERGY PREDICTED BY IDOCK:   -3.99 KCAL/MOL
REMARK 922        TOTAL FREE ENERGY PREDICTED BY IDOCK:   -4.80 KCAL/MOL
REMARK 923 INTER-LIGAND FREE ENERGY PREDICTED BY IDOCK:   -4.53 KCAL/MOL
REMARK 924 INTRA-LIGAND FREE ENERGY PREDICTED BY IDOCK:   -0.26 KCAL/MOL
REMARK 927      BINDING AFFINITY PREDICTED BY RF-SCORE:    0.00 PKD
ROOT
HETATM    1 CL   UNL     1      -8.105   8.234  73.032  1.00  0.00    -0.225 Cl 
HETATM    2  C   UNL     1      -8.919   6.742  72.761  1.00  0.00    -0.127 C  
HETATM    3  C   UNL     1     -10.250   6.570  72.867  1.00  0.00    -0.193 C  
HETATM    4  C   UNL     1      -8.072   5.565  72.399  1.00  0.00    -0.107 C  
HETATM    5  N   UNL     1     -10.782   5.307  72.682  1.00  0.00    -0.226 N  
HETATM    6  C   UNL     1     -10.063   4.178  72.433  1.00  0.00    -0.177 C  
HETATM    7  O   UNL     1      -6.869   5.652  72.173  1.00  0.00    -0.071 OA 
HETATM    8  H   UNL     1     -11.796   5.213  72.736  1.00  0.00     0.000 HD 
HETATM    9  O   UNL     1     -10.575   3.071  72.309  1.00  0.00    -0.034 OA 
HETATM   10  N   UNL     1      -8.714   4.357  72.334  1.00  0.00    -0.112 N  
HETATM   11  H   UNL     1      -8.138   3.526  72.201  1.00  0.00     0.000 HD 
ENDROOT
BRANCH   3  12
HETATM   12  C   UNL     1     -11.240   7.648  73.263  1.00  0.00    -0.111 C  
BRANCH  12  13
HETATM   13  N   UNL     1     -12.048   8.100  72.130  1.00  0.00    -0.337 NA 
HETATM   14  C   UNL     1     -11.763   9.947  70.719  1.00  0.00    -0.424 C  
HETATM   15  C   UNL     1     -13.202   9.982  71.228  1.00  0.00    -0.469 C  
HETATM   16  C   UNL     1     -11.343   8.491  70.907  1.00  0.00    -0.268 C  
HETATM   17  C   UNL     1     -13.137   8.926  72.308  1.00  0.00    -0.436 C  
HETATM   18  N   UNL     1     -14.005   8.846  73.256  1.00  0.00    -1.217 NA 
HETATM   19  H2  UNL     1     -13.873   8.101  73.941  1.00  0.00     0.000 HD 
HETATM   20  H1  UNL     1     -14.811   9.457  73.388  1.00  0.00     0.000 HD 
ENDBRANCH  12  13
ENDBRANCH   3  12
TORSDOF 2
ENDMDL
MODEL      142
REMARK 921   NORMALIZED FREE ENERGY PREDICTED BY IDOCK:   -3.98 KCAL/MOL
REMARK 922        TOTAL FREE ENERGY PREDICTED BY IDOCK:   -4.78 KCAL/MOL
REMARK 923 INTER-LIGAND FREE ENERGY PREDICTED BY IDOCK:   -4.65 KCAL/MOL
REMARK 924 INTRA-LIGAND FREE ENERGY PREDICTED BY IDOCK:   -0.13 KCAL/MOL
REMARK 927      BINDING AFFINITY PREDICTED BY RF-SCORE:    0.00 PKD
ROOT
HETATM    1 CL   UNL     1     -11.444  10.517  68.916  1.00  0.00    -0.305 Cl 
HETATM    2  C   UNL     1     -10.646   9.012  69.159  1.00  0.00    -0.203 C  
HETATM    3  C   UNL     1     -10.418   8.458  70.365  1.00  0.00    -0.214 C  
HETATM    4  C   UNL     1     -10.170   8.293  67.939  1.00  0.00    -0.220 C  
HETATM    5  N   UNL     1      -9.714   7.269  70.436  1.00  0.00    -0.173 N  
HETATM    6  C   UNL     1      -9.179   6.605  69.374  1.00  0.00    -0.142 C  
HETATM    7  O   UNL     1     -10.431   8.666  66.800  1.00  0.00    -0.291 OA 
HETATM    8  H   UNL     1      -9.584   6.856  71.359  1.00  0.00     0.000 HD 
HETATM    9  O   UNL     1      -8.533   5.570  69.488  1.00  0.00    -0.103 OA 
HETATM   10  N   UNL     1      -9.409   7.176  68.156  1.00  0.00    -0.130 N  
HETATM   11  H   UNL     1      -8.979   6.735  67.343  1.00  0.00     0.000 HD 
ENDROOT
BRANCH   3  12
HETATM   12  C   UNL     1     -10.800   9.076  71.696  1.00  0.00    -0.366 C  
BRANCH  12  13
HETATM   13  N   UNL     1     -12.078   8.567  72.194  1.00  0.00    -0.360 NA 
HETATM   14  C   UNL     1     -13.677   7.220  71.139  1.00  0.00    -0.233 C  
HETATM   15  C   UNL     1     -14.408   8.434  71.707  1.00  0.00    -0.558 C  
HETATM   16  C   UNL     1     -12.387   7.156  71.955  1.00  0.00    -0.317 C  
HETATM   17  C   UNL     1     -13.236   9.308  72.090  1.00  0.00    -0.461 C  
HETATM   18  N   UNL     1     -13.346  10.577  72.280  1.00  0.00    -0.577 NA 
HETATM   19  H2  UNL     1     -12.496  11.082  72.530  1.00  0.00     0.000 HD 
HETATM   20  H1  UNL     1     -14.204  11.125  72.203  1.00  0.00     0.000 HD 
ENDBRANCH  12  13
ENDBRANCH   3  12
TORSDOF 2
ENDMDL
MODEL      143
REMARK 921   NORMALIZED FREE ENERGY PREDICTED BY IDOCK:   -3.96 KCAL/MOL
REMARK 922        TOTAL FREE ENERGY PREDICTED BY IDOCK:   -4.76 KCAL/MOL
REMARK 923 INTER-LIGAND FREE ENERGY PREDICTED BY IDOCK:   -4.28 KCAL/MOL
REMARK 924 INTRA-LIGAND FREE ENERGY PREDICTED BY IDOCK:   -0.48 KCAL/MOL
REMARK 927      BINDING AFFINITY PREDICTED BY RF-SCORE:    0.00 PKD
ROOT
HETATM    1 CL   UNL     1      -9.694  13.558  66.469  1.00  0.00    -0.278 Cl 
HETATM    2  C   UNL     1     -10.549  13.351  67.948  1.00  0.00    -0.245 C  
HETATM    3  C   UNL     1     -11.221  12.235  68.289  1.00  0.00    -0.267 C  
HETATM    4  C   UNL     1     -10.546  14.503  68.900  1.00  0.00    -0.249 C  
HETATM    5  N   UNL     1     -11.919  12.208  69.483  1.00  0.00    -0.297 N  
HETATM    6  C   UNL     1     -12.027  13.248  70.355  1.00  0.00    -0.275 C  
HETATM    7  O   UNL     1      -9.871  15.513  68.723  1.00  0.00    -0.201 OA 
HETATM    8  H   UNL     1     -12.391  11.339  69.730  1.00  0.00     0.000 HD 
HETATM    9  O   UNL     1     -12.686  13.190  71.388  1.00  0.00    -0.357 OA 
HETATM   10  N   UNL     1     -11.350  14.379  70.001  1.00  0.00    -0.403 N  
HETATM   11  H   UNL     1     -11.451  15.195  70.603  1.00  0.00     0.000 HD 
ENDROOT
BRANCH   3  12
HETATM   12  C   UNL     1     -11.355  10.998  67.422  1.00  0.00    -0.230 C  
BRANCH  12  13
HETATM   13  N   UNL     1     -10.344   9.989  67.739  1.00  0.00    -0.200 NA 
HETATM   14  C   UNL     1      -9.840   7.970  66.664  1.00  0.00    -0.322 C  
HETATM   15  C   UNL     1     -10.021   7.662  68.148  1.00  0.00    -0.203 C  
HETATM   16  C   UNL     1      -9.535   9.467  66.636  1.00  0.00    -0.177 C  
HETATM   17  C   UNL     1     -10.600   8.971  68.633  1.00  0.00    -0.160 C  
HETATM   18  N   UNL     1     -11.248   9.078  69.742  1.00  0.00    -0.423 NA 
HETATM   19  H2  UNL     1     -11.605  10.003  69.980  1.00  0.00     0.000 HD 
HETATM   20  H1  UNL     1     -11.438   8.324  70.403  1.00  0.00     0.000 HD 
ENDBRANCH  12  13
ENDBRANCH   3  12
TORSDOF 2
ENDMDL
MODEL      144
REMARK 921   NORMALIZED FREE ENERGY PREDICTED BY IDOCK:   -3.95 KCAL/MOL
REMARK 922        TOTAL FREE ENERGY PREDICTED BY IDOCK:   -4.76 KCAL/MOL
REMARK 923 INTER-LIGAND FREE ENERGY PREDICTED BY IDOCK:   -4.42 KCAL/MOL
REMARK 924 INTRA-LIGAND FREE ENERGY PREDICTED BY IDOCK:   -0.34 KCAL/MOL
REMARK 927      BINDING AFFINITY PREDICTED BY RF-SCORE:    0.00 PKD
ROOT
HETATM    1 CL   UNL     1      -9.308   8.577  70.234  1.00  0.00    -0.162 Cl 
HETATM    2  C   UNL     1     -10.777   8.679  71.124  1.00  0.00    -0.240 C  
HETATM    3  C   UNL     1     -11.008   8.042  72.288  1.00  0.00    -0.314 C  
HETATM    4  C   UNL     1     -11.864   9.525  70.544  1.00  0.00    -0.183 C  
HETATM    5  N   UNL     1     -12.252   8.156  72.881  1.00  0.00    -0.572 N  
HETATM    6  C   UNL     1     -13.311   8.840  72.366  1.00  0.00    -0.399 C  
HETATM    7  O   UNL     1     -11.704  10.228  69.550  1.00  0.00    -0.207 OA 
HETATM    8  H   UNL     1     -12.388   7.690  73.778  1.00  0.00     0.000 HD 
HETATM    9  O   UNL     1     -14.408   8.886  72.912  1.00  0.00    -0.548 OA 
HETATM   10  N   UNL     1     -13.073   9.477  71.184  1.00  0.00    -0.498 N  
HETATM   11  H   UNL     1     -13.857   9.956  70.742  1.00  0.00     0.000 HD 
ENDROOT
BRANCH   3  12
HETATM   12  C   UNL     1     -10.029   7.118  72.986  1.00  0.00    -0.208 C  
BRANCH  12  13
HETATM   13  N   UNL     1     -10.243   5.715  72.628  1.00  0.00    -0.181 NA 
HETATM   14  C   UNL     1     -10.052   3.781  73.935  1.00  0.00    -0.187 C  
HETATM   15  C   UNL     1      -9.237   3.554  72.664  1.00  0.00    -0.140 C  
HETATM   16  C   UNL     1     -11.028   4.891  73.549  1.00  0.00    -0.328 C  
HETATM   17  C   UNL     1      -9.233   4.950  72.086  1.00  0.00    -0.135 C  
HETATM   18  N   UNL     1      -8.375   5.337  71.206  1.00  0.00    -0.121 NA 
HETATM   19  H2  UNL     1      -8.450   6.300  70.880  1.00  0.00     0.000 HD 
HETATM   20  H1  UNL     1      -7.627   4.770  70.804  1.00  0.00     0.000 HD 
ENDBRANCH  12  13
ENDBRANCH   3  12
TORSDOF 2
ENDMDL
MODEL      145
REMARK 921   NORMALIZED FREE ENERGY PREDICTED BY IDOCK:   -3.91 KCAL/MOL
REMARK 922        TOTAL FREE ENERGY PREDICTED BY IDOCK:   -4.71 KCAL/MOL
REMARK 923 INTER-LIGAND FREE ENERGY PREDICTED BY IDOCK:   -4.37 KCAL/MOL
REMARK 924 INTRA-LIGAND FREE ENERGY PREDICTED BY IDOCK:   -0.34 KCAL/MOL
REMARK 927      BINDING AFFINITY PREDICTED BY RF-SCORE:    0.00 PKD
ROOT
HETATM    1 CL   UNL     1     -12.243  13.954  68.524  1.00  0.00    -0.315 Cl 
HETATM    2  C   UNL     1     -10.549  14.258  68.552  1.00  0.00    -0.257 C  
HETATM    3  C   UNL     1      -9.659  13.683  67.721  1.00  0.00    -0.224 C  
HETATM    4  C   UNL     1     -10.050  15.217  69.583  1.00  0.00    -0.237 C  
HETATM    5  N   UNL     1      -8.314  13.964  67.878  1.00  0.00    -0.153 N  
HETATM    6  C   UNL     1      -7.783  14.761  68.847  1.00  0.00    -0.146 C  
HETATM    7  O   UNL     1     -10.798  15.870  70.305  1.00  0.00    -0.316 OA 
HETATM    8  H   UNL     1      -7.666  13.540  67.215  1.00  0.00     0.000 HD 
HETATM    9  O   UNL     1      -6.579  14.955  68.969  1.00  0.00    -0.099 OA 
HETATM   10  N   UNL     1      -8.690  15.335  69.690  1.00  0.00    -0.412 N  
HETATM   11  H   UNL     1      -8.326  15.895  70.460  1.00  0.00     0.000 HD 
ENDROOT
BRANCH   3  12
HETATM   12  C   UNL     1      -9.996  12.662  66.651  1.00  0.00    -0.242 C  
BRANCH  12  13
HETATM   13  N   UNL     1      -9.656  11.300  67.061  1.00  0.00    -0.177 NA 
HETATM   14  C   UNL     1      -9.320   9.377  65.768  1.00  0.00    -0.301 C  
HETATM   15  C   UNL     1     -10.319   9.018  66.865  1.00  0.00    -0.324 C  
HETATM   16  C   UNL     1      -8.603  10.609  66.316  1.00  0.00    -0.153 C  
HETATM   17  C   UNL     1     -10.632  10.391  67.413  1.00  0.00    -0.269 C  
HETATM   18  N   UNL     1     -11.686  10.639  68.110  1.00  0.00    -0.747 NA 
HETATM   19  H2  UNL     1     -11.812  11.599  68.432  1.00  0.00     0.000 HD 
HETATM   20  H1  UNL     1     -12.408   9.966  68.371  1.00  0.00     0.000 HD 
ENDBRANCH  12  13
ENDBRANCH   3  12
TORSDOF 2
ENDMDL
MODEL      146
REMARK 921   NORMALIZED FREE ENERGY PREDICTED BY IDOCK:   -3.91 KCAL/MOL
REMARK 922        TOTAL FREE ENERGY PREDICTED BY IDOCK:   -4.71 KCAL/MOL
REMARK 923 INTER-LIGAND FREE ENERGY PREDICTED BY IDOCK:   -4.37 KCAL/MOL
REMARK 924 INTRA-LIGAND FREE ENERGY PREDICTED BY IDOCK:   -0.34 KCAL/MOL
REMARK 927      BINDING AFFINITY PREDICTED BY RF-SCORE:    0.00 PKD
ROOT
HETATM    1 CL   UNL     1     -12.801  10.283  70.775  1.00  0.00    -0.435 Cl 
HETATM    2  C   UNL     1     -12.160  11.695  70.027  1.00  0.00    -0.319 C  
HETATM    3  C   UNL     1     -11.483  11.699  68.863  1.00  0.00    -0.287 C  
HETATM    4  C   UNL     1     -12.366  12.992  70.740  1.00  0.00    -0.310 C  
HETATM    5  N   UNL     1     -10.966  12.892  68.391  1.00  0.00    -0.246 N  
HETATM    6  C   UNL     1     -11.044  14.092  69.029  1.00  0.00    -0.263 C  
HETATM    7  O   UNL     1     -13.063  13.098  71.745  1.00  0.00    -0.396 OA 
HETATM    8  H   UNL     1     -10.487  12.871  67.491  1.00  0.00     0.000 HD 
HETATM    9  O   UNL     1     -10.540  15.119  68.587  1.00  0.00    -0.223 OA 
HETATM   10  N   UNL     1     -11.725  14.080  70.211  1.00  0.00    -0.427 N  
HETATM   11  H   UNL     1     -11.758  14.949  70.743  1.00  0.00     0.000 HD 
ENDROOT
BRANCH   3  12
HETATM   12  C   UNL     1     -11.156  10.469  68.040  1.00  0.00    -0.300 C  
BRANCH  12  13
HETATM   13  N   UNL     1     -10.003   9.740  68.571  1.00  0.00    -0.156 NA 
HETATM   14  C   UNL     1      -8.211   8.732  67.450  1.00  0.00    -0.109 C  
HETATM   15  C   UNL     1      -8.789   7.694  68.409  1.00  0.00    -0.130 C  
HETATM   16  C   UNL     1      -8.684  10.065  68.026  1.00  0.00    -0.125 C  
HETATM   17  C   UNL     1     -10.065   8.387  68.828  1.00  0.00    -0.196 C  
HETATM   18  N   UNL     1     -11.060   7.757  69.350  1.00  0.00    -0.446 NA 
HETATM   19  H2  UNL     1     -11.880   8.312  69.596  1.00  0.00     0.000 HD 
HETATM   20  H1  UNL     1     -11.106   6.755  69.540  1.00  0.00     0.000 HD 
ENDBRANCH  12  13
ENDBRANCH   3  12
TORSDOF 2
ENDMDL
MODEL      147
REMARK 921   NORMALIZED FREE ENERGY PREDICTED BY IDOCK:   -3.89 KCAL/MOL
REMARK 922        TOTAL FREE ENERGY PREDICTED BY IDOCK:   -4.69 KCAL/MOL
REMARK 923 INTER-LIGAND FREE ENERGY PREDICTED BY IDOCK:   -4.23 KCAL/MOL
REMARK 924 INTRA-LIGAND FREE ENERGY PREDICTED BY IDOCK:   -0.46 KCAL/MOL
REMARK 927      BINDING AFFINITY PREDICTED BY RF-SCORE:    0.00 PKD
ROOT
HETATM    1 CL   UNL     1      -8.941  10.138  65.866  1.00  0.00    -0.170 Cl 
HETATM    2  C   UNL     1      -9.954  10.476  67.215  1.00  0.00    -0.186 C  
HETATM    3  C   UNL     1     -10.654   9.547  67.894  1.00  0.00    -0.244 C  
HETATM    4  C   UNL     1     -10.064  11.905  67.638  1.00  0.00    -0.191 C  
HETATM    5  N   UNL     1     -11.481   9.951  68.927  1.00  0.00    -0.484 N  
HETATM    6  C   UNL     1     -11.692  11.240  69.310  1.00  0.00    -0.334 C  
HETATM    7  O   UNL     1      -9.380  12.800  67.151  1.00  0.00    -0.202 OA 
HETATM    8  H   UNL     1     -11.972   9.223  69.445  1.00  0.00     0.000 HD 
HETATM    9  O   UNL     1     -12.461  11.554  70.212  1.00  0.00    -0.267 OA 
HETATM   10  N   UNL     1     -10.986  12.177  68.613  1.00  0.00    -0.233 N  
HETATM   11  H   UNL     1     -11.158  13.157  68.837  1.00  0.00     0.000 HD 
ENDROOT
BRANCH   3  12
HETATM   12  C   UNL     1     -10.683   8.067  67.569  1.00  0.00    -0.168 C  
BRANCH  12  13
HETATM   13  N   UNL     1     -10.080   7.257  68.628  1.00  0.00    -0.171 NA 
HETATM   14  C   UNL     1      -9.273   5.059  68.569  1.00  0.00    -0.153 C  
HETATM   15  C   UNL     1     -10.228   5.161  69.756  1.00  0.00    -0.357 C  
HETATM   16  C   UNL     1      -8.866   6.506  68.301  1.00  0.00    -0.119 C  
HETATM   17  C   UNL     1     -10.855   6.511  69.490  1.00  0.00    -0.304 C  
HETATM   18  N   UNL     1     -11.972   6.875  70.017  1.00  0.00    -0.644 NA 
HETATM   19  H2  UNL     1     -12.317   7.803  69.773  1.00  0.00     0.000 HD 
HETATM   20  H1  UNL     1     -12.545   6.322  70.656  1.00  0.00     0.000 HD 
ENDBRANCH  12  13
ENDBRANCH   3  12
TORSDOF 2
ENDMDL
MODEL      148
REMARK 921   NORMALIZED FREE ENERGY PREDICTED BY IDOCK:   -3.85 KCAL/MOL
REMARK 922        TOTAL FREE ENERGY PREDICTED BY IDOCK:   -4.64 KCAL/MOL
REMARK 923 INTER-LIGAND FREE ENERGY PREDICTED BY IDOCK:   -4.29 KCAL/MOL
REMARK 924 INTRA-LIGAND FREE ENERGY PREDICTED BY IDOCK:   -0.35 KCAL/MOL
REMARK 927      BINDING AFFINITY PREDICTED BY RF-SCORE:    0.00 PKD
ROOT
HETATM    1 CL   UNL     1      -8.901   4.677  67.696  1.00  0.00    -0.109 Cl 
HETATM    2  C   UNL     1     -10.041   5.373  68.781  1.00  0.00    -0.185 C  
HETATM    3  C   UNL     1     -10.900   6.358  68.455  1.00  0.00    -0.314 C  
HETATM    4  C   UNL     1     -10.055   4.845  70.179  1.00  0.00    -0.261 C  
HETATM    5  N   UNL     1     -11.730   6.876  69.432  1.00  0.00    -0.567 N  
HETATM    6  C   UNL     1     -11.737   6.502  70.741  1.00  0.00    -0.366 C  
HETATM    7  O   UNL     1      -9.390   3.877  70.533  1.00  0.00    -0.123 OA 
HETATM    8  H   UNL     1     -12.392   7.599  69.149  1.00  0.00     0.000 HD 
HETATM    9  O   UNL     1     -12.469   7.013  71.581  1.00  0.00    -0.341 OA 
HETATM   10  N   UNL     1     -10.860   5.508  71.066  1.00  0.00    -0.215 N  
HETATM   11  H   UNL     1     -10.799   5.237  72.048  1.00  0.00     0.000 HD 
ENDROOT
BRANCH   3  12
HETATM   12  C   UNL     1     -10.984   7.028  67.097  1.00  0.00    -0.323 C  
BRANCH  12  13
HETATM   13  N   UNL     1     -10.002   8.103  66.950  1.00  0.00    -0.246 NA 
HETATM   14  C   UNL     1     -10.254  10.266  66.088  1.00  0.00    -0.285 C  
HETATM   15  C   UNL     1      -9.056   9.633  65.384  1.00  0.00    -0.265 C  
HETATM   16  C   UNL     1     -10.399   9.448  67.370  1.00  0.00    -0.263 C  
HETATM   17  C   UNL     1      -9.202   8.196  65.832  1.00  0.00    -0.097 C  
HETATM   18  N   UNL     1      -8.638   7.215  65.215  1.00  0.00    -0.334 NA 
HETATM   19  H2  UNL     1      -8.800   6.280  65.591  1.00  0.00     0.000 HD 
HETATM   20  H1  UNL     1      -8.046   7.284  64.388  1.00  0.00     0.000 HD 
ENDBRANCH  12  13
ENDBRANCH   3  12
TORSDOF 2
ENDMDL
MODEL      149
REMARK 921   NORMALIZED FREE ENERGY PREDICTED BY IDOCK:   -3.83 KCAL/MOL
REMARK 922        TOTAL FREE ENERGY PREDICTED BY IDOCK:   -4.63 KCAL/MOL
REMARK 923 INTER-LIGAND FREE ENERGY PREDICTED BY IDOCK:   -4.33 KCAL/MOL
REMARK 924 INTRA-LIGAND FREE ENERGY PREDICTED BY IDOCK:   -0.30 KCAL/MOL
REMARK 927      BINDING AFFINITY PREDICTED BY RF-SCORE:    0.00 PKD
ROOT
HETATM    1 CL   UNL     1     -11.014  16.641  66.821  1.00  0.00    -0.024 Cl 
HETATM    2  C   UNL     1      -9.926  17.965  66.985  1.00  0.00    -0.324 C  
HETATM    3  C   UNL     1      -8.891  17.997  67.846  1.00  0.00    -0.268 C  
HETATM    4  C   UNL     1     -10.172  19.155  66.116  1.00  0.00    -0.463 C  
HETATM    5  N   UNL     1      -8.120  19.143  67.927  1.00  0.00    -0.281 N  
HETATM    6  C   UNL     1      -8.338  20.291  67.227  1.00  0.00    -0.347 C  
HETATM    7  O   UNL     1     -11.020  19.170  65.229  1.00  0.00    -0.512 OA 
HETATM    8  H   UNL     1      -7.323  19.128  68.563  1.00  0.00     0.000 HD 
HETATM    9  O   UNL     1      -7.648  21.296  67.357  1.00  0.00    -0.410 OA 
HETATM   10  N   UNL     1      -9.393  20.254  66.363  1.00  0.00    -0.600 N  
HETATM   11  H   UNL     1      -9.619  21.112  65.860  1.00  0.00     0.000 HD 
ENDROOT
BRANCH   3  12
HETATM   12  C   UNL     1      -8.531  16.893  68.821  1.00  0.00    -0.244 C  
BRANCH  12  13
HETATM   13  N   UNL     1      -7.494  16.006  68.292  1.00  0.00    -0.132 NA 
HETATM   14  C   UNL     1      -7.471  13.674  68.080  1.00  0.00    -0.125 C  
HETATM   15  C   UNL     1      -6.183  14.078  68.793  1.00  0.00    -0.087 C  
HETATM   16  C   UNL     1      -7.910  14.951  67.366  1.00  0.00    -0.199 C  
HETATM   17  C   UNL     1      -6.479  15.530  69.094  1.00  0.00    -0.128 C  
HETATM   18  N   UNL     1      -5.845  16.197  69.995  1.00  0.00    -0.183 NA 
HETATM   19  H2  UNL     1      -6.120  17.171  70.128  1.00  0.00     0.000 HD 
HETATM   20  H1  UNL     1      -5.093  15.845  70.588  1.00  0.00     0.000 HD 
ENDBRANCH  12  13
ENDBRANCH   3  12
TORSDOF 2
ENDMDL
MODEL      150
REMARK 921   NORMALIZED FREE ENERGY PREDICTED BY IDOCK:   -3.82 KCAL/MOL
REMARK 922        TOTAL FREE ENERGY PREDICTED BY IDOCK:   -4.61 KCAL/MOL
REMARK 923 INTER-LIGAND FREE ENERGY PREDICTED BY IDOCK:   -4.27 KCAL/MOL
REMARK 924 INTRA-LIGAND FREE ENERGY PREDICTED BY IDOCK:   -0.34 KCAL/MOL
REMARK 927      BINDING AFFINITY PREDICTED BY RF-SCORE:    0.00 PKD
ROOT
HETATM    1 CL   UNL     1     -11.469   8.374  72.504  1.00  0.00    -0.447 Cl 
HETATM    2  C   UNL     1     -11.656   9.360  71.105  1.00  0.00    -0.345 C  
HETATM    3  C   UNL     1     -11.004   9.164  69.943  1.00  0.00    -0.204 C  
HETATM    4  C   UNL     1     -12.598  10.514  71.212  1.00  0.00    -0.426 C  
HETATM    5  N   UNL     1     -11.195  10.060  68.907  1.00  0.00    -0.427 N  
HETATM    6  C   UNL     1     -11.971  11.177  68.964  1.00  0.00    -0.320 C  
HETATM    7  O   UNL     1     -13.315  10.703  72.190  1.00  0.00    -0.444 OA 
HETATM    8  H   UNL     1     -10.714   9.869  68.028  1.00  0.00     0.000 HD 
HETATM    9  O   UNL     1     -12.085  11.962  68.029  1.00  0.00    -0.541 OA 
HETATM   10  N   UNL     1     -12.623  11.373  70.146  1.00  0.00    -0.155 N  
HETATM   11  H   UNL     1     -13.173  12.227  70.244  1.00  0.00     0.000 HD 
ENDROOT
BRANCH   3  12
HETATM   12  C   UNL     1      -9.988   8.068  69.686  1.00  0.00    -0.188 C  
BRANCH  12  13
HETATM   13  N   UNL     1      -8.639   8.600  69.490  1.00  0.00    -0.129 NA 
HETATM   14  C   UNL     1      -6.674   7.514  68.825  1.00  0.00    -0.053 C  
HETATM   15  C   UNL     1      -6.353   8.297  70.096  1.00  0.00    -0.035 C  
HETATM   16  C   UNL     1      -7.922   8.203  68.277  1.00  0.00    -0.123 C  
HETATM   17  C   UNL     1      -7.745   8.693  70.535  1.00  0.00    -0.086 C  
HETATM   18  N   UNL     1      -8.017   9.057  71.740  1.00  0.00    -0.349 NA 
HETATM   19  H2  UNL     1      -8.988   9.300  71.940  1.00  0.00     0.000 HD 
HETATM   20  H1  UNL     1      -7.355   9.125  72.513  1.00  0.00     0.000 HD 
ENDBRANCH  12  13
ENDBRANCH   3  12
TORSDOF 2
ENDMDL
MODEL      151
REMARK 921   NORMALIZED FREE ENERGY PREDICTED BY IDOCK:   -3.81 KCAL/MOL
REMARK 922        TOTAL FREE ENERGY PREDICTED BY IDOCK:   -4.60 KCAL/MOL
REMARK 923 INTER-LIGAND FREE ENERGY PREDICTED BY IDOCK:   -4.29 KCAL/MOL
REMARK 924 INTRA-LIGAND FREE ENERGY PREDICTED BY IDOCK:   -0.30 KCAL/MOL
REMARK 927      BINDING AFFINITY PREDICTED BY RF-SCORE:    0.00 PKD
ROOT
HETATM    1 CL   UNL     1     -10.603  14.417  65.553  1.00  0.00    -0.335 Cl 
HETATM    2  C   UNL     1      -9.444  14.385  66.826  1.00  0.00    -0.267 C  
HETATM    3  C   UNL     1      -8.664  15.428  67.171  1.00  0.00    -0.220 C  
HETATM    4  C   UNL     1      -9.297  13.102  67.577  1.00  0.00    -0.207 C  
HETATM    5  N   UNL     1      -7.728  15.262  68.175  1.00  0.00    -0.114 N  
HETATM    6  C   UNL     1      -7.484  14.101  68.842  1.00  0.00    -0.112 C  
HETATM    7  O   UNL     1     -10.040  12.140  67.406  1.00  0.00    -0.197 OA 
HETATM    8  H   UNL     1      -7.174  16.077  68.437  1.00  0.00     0.000 HD 
HETATM    9  O   UNL     1      -6.618  13.992  69.704  1.00  0.00    -0.125 OA 
HETATM   10  N   UNL     1      -8.272  13.046  68.482  1.00  0.00    -0.288 N  
HETATM   11  H   UNL     1      -8.083  12.147  68.923  1.00  0.00     0.000 HD 
ENDROOT
BRANCH   3  12
HETATM   12  C   UNL     1      -8.662  16.780  66.485  1.00  0.00    -0.275 C  
BRANCH  12  13
HETATM   13  N   UNL     1      -9.901  17.521  66.721  1.00  0.00    -0.292 NA 
HETATM   14  C   UNL     1     -10.473  19.720  66.152  1.00  0.00    -0.613 C  
HETATM   15  C   UNL     1     -10.783  19.539  67.636  1.00  0.00    -0.527 C  
HETATM   16  C   UNL     1     -10.454  18.293  65.606  1.00  0.00    -0.095 C  
HETATM   17  C   UNL     1     -10.114  18.208  67.897  1.00  0.00    -0.357 C  
HETATM   18  N   UNL     1      -9.797  17.809  69.080  1.00  0.00    -0.271 NA 
HETATM   19  H2  UNL     1      -9.344  16.897  69.153  1.00  0.00     0.000 HD 
HETATM   20  H1  UNL     1      -9.955  18.318  69.950  1.00  0.00     0.000 HD 
ENDBRANCH  12  13
ENDBRANCH   3  12
TORSDOF 2
ENDMDL
MODEL      152
REMARK 921   NORMALIZED FREE ENERGY PREDICTED BY IDOCK:   -3.80 KCAL/MOL
REMARK 922        TOTAL FREE ENERGY PREDICTED BY IDOCK:   -4.59 KCAL/MOL
REMARK 923 INTER-LIGAND FREE ENERGY PREDICTED BY IDOCK:   -4.40 KCAL/MOL
REMARK 924 INTRA-LIGAND FREE ENERGY PREDICTED BY IDOCK:   -0.19 KCAL/MOL
REMARK 927      BINDING AFFINITY PREDICTED BY RF-SCORE:    0.00 PKD
ROOT
HETATM    1 CL   UNL     1      -7.698   7.416  69.181  1.00  0.00    -0.108 Cl 
HETATM    2  C   UNL     1      -8.994   8.513  68.897  1.00  0.00    -0.146 C  
HETATM    3  C   UNL     1     -10.228   8.386  69.421  1.00  0.00    -0.208 C  
HETATM    4  C   UNL     1      -8.716   9.670  67.993  1.00  0.00    -0.119 C  
HETATM    5  N   UNL     1     -11.204   9.301  69.072  1.00  0.00    -0.442 N  
HETATM    6  C   UNL     1     -11.043  10.328  68.192  1.00  0.00    -0.264 C  
HETATM    7  O   UNL     1      -7.596   9.926  67.562  1.00  0.00    -0.091 OA 
HETATM    8  H   UNL     1     -12.120   9.199  69.509  1.00  0.00     0.000 HD 
HETATM    9  O   UNL     1     -11.948  11.097  67.887  1.00  0.00    -0.624 OA 
HETATM   10  N   UNL     1      -9.793  10.447  67.659  1.00  0.00    -0.167 N  
HETATM   11  H   UNL     1      -9.649  11.172  66.956  1.00  0.00     0.000 HD 
ENDROOT
BRANCH   3  12
HETATM   12  C   UNL     1     -10.682   7.252  70.320  1.00  0.00    -0.236 C  
BRANCH  12  13
HETATM   13  N   UNL     1     -10.777   7.662  71.721  1.00  0.00    -0.213 NA 
HETATM   14  C   UNL     1      -9.103   7.876  73.345  1.00  0.00    -0.347 C  
HETATM   15  C   UNL     1     -10.215   7.021  73.948  1.00  0.00    -0.388 C  
HETATM   16  C   UNL     1      -9.797   8.632  72.213  1.00  0.00    -0.289 C  
HETATM   17  C   UNL     1     -11.053   6.752  72.719  1.00  0.00    -0.257 C  
HETATM   18  N   UNL     1     -11.899   5.783  72.652  1.00  0.00    -0.501 NA 
HETATM   19  H2  UNL     1     -12.414   5.680  71.777  1.00  0.00     0.000 HD 
HETATM   20  H1  UNL     1     -12.103   5.109  73.391  1.00  0.00     0.000 HD 
ENDBRANCH  12  13
ENDBRANCH   3  12
TORSDOF 2
ENDMDL
MODEL      153
REMARK 921   NORMALIZED FREE ENERGY PREDICTED BY IDOCK:   -3.79 KCAL/MOL
REMARK 922        TOTAL FREE ENERGY PREDICTED BY IDOCK:   -4.58 KCAL/MOL
REMARK 923 INTER-LIGAND FREE ENERGY PREDICTED BY IDOCK:   -5.73 KCAL/MOL
REMARK 924 INTRA-LIGAND FREE ENERGY PREDICTED BY IDOCK:    1.15 KCAL/MOL
REMARK 927      BINDING AFFINITY PREDICTED BY RF-SCORE:    0.00 PKD
ROOT
HETATM    1 CL   UNL     1     -12.873  15.370  70.525  1.00  0.00    -0.453 Cl 
HETATM    2  C   UNL     1     -12.726  13.713  70.968  1.00  0.00    -0.332 C  
HETATM    3  C   UNL     1     -11.966  12.815  70.313  1.00  0.00    -0.280 C  
HETATM    4  C   UNL     1     -13.513  13.256  72.153  1.00  0.00    -0.562 C  
HETATM    5  N   UNL     1     -11.974  11.496  70.731  1.00  0.00    -0.419 N  
HETATM    6  C   UNL     1     -12.729  10.996  71.747  1.00  0.00    -0.303 C  
HETATM    7  O   UNL     1     -14.142  14.026  72.874  1.00  0.00    -0.564 OA 
HETATM    8  H   UNL     1     -11.364  10.845  70.237  1.00  0.00     0.000 HD 
HETATM    9  O   UNL     1     -12.729   9.811  72.061  1.00  0.00    -0.388 OA 
HETATM   10  N   UNL     1     -13.502  11.910  72.402  1.00  0.00    -0.500 N  
HETATM   11  H   UNL     1     -14.121  11.563  73.135  1.00  0.00     0.000 HD 
ENDROOT
BRANCH   3  12
HETATM   12  C   UNL     1     -11.143  13.107  69.074  1.00  0.00    -0.234 C  
BRANCH  12  13
HETATM   13  N   UNL     1     -11.408  14.442  68.537  1.00  0.00    -0.267 NA 
HETATM   14  C   UNL     1     -10.885  15.356  66.445  1.00  0.00    -0.303 C  
HETATM   15  C   UNL     1     -10.381  16.332  67.506  1.00  0.00    -0.288 C  
HETATM   16  C   UNL     1     -11.943  14.534  67.177  1.00  0.00    -0.345 C  
HETATM   17  C   UNL     1     -10.536  15.489  68.751  1.00  0.00    -0.242 C  
HETATM   18  N   UNL     1      -9.912  15.746  69.848  1.00  0.00    -0.254 NA 
HETATM   19  H2  UNL     1     -10.078  15.116  70.633  1.00  0.00     0.000 HD 
HETATM   20  H1  UNL     1      -9.267  16.521  70.007  1.00  0.00     0.000 HD 
ENDBRANCH  12  13
ENDBRANCH   3  12
TORSDOF 2
ENDMDL
MODEL      154
REMARK 921   NORMALIZED FREE ENERGY PREDICTED BY IDOCK:   -3.75 KCAL/MOL
REMARK 922        TOTAL FREE ENERGY PREDICTED BY IDOCK:   -4.53 KCAL/MOL
REMARK 923 INTER-LIGAND FREE ENERGY PREDICTED BY IDOCK:   -4.19 KCAL/MOL
REMARK 924 INTRA-LIGAND FREE ENERGY PREDICTED BY IDOCK:   -0.34 KCAL/MOL
REMARK 927      BINDING AFFINITY PREDICTED BY RF-SCORE:    0.00 PKD
ROOT
HETATM    1 CL   UNL     1     -10.231   4.628  71.692  1.00  0.00    -0.258 Cl 
HETATM    2  C   UNL     1     -10.276   4.979  70.007  1.00  0.00    -0.269 C  
HETATM    3  C   UNL     1     -11.001   5.970  69.455  1.00  0.00    -0.385 C  
HETATM    4  C   UNL     1      -9.460   4.104  69.112  1.00  0.00    -0.178 C  
HETATM    5  N   UNL     1     -11.000   6.116  68.079  1.00  0.00    -0.327 N  
HETATM    6  C   UNL     1     -10.349   5.306  67.201  1.00  0.00    -0.216 C  
HETATM    7  O   UNL     1      -8.686   3.251  69.536  1.00  0.00    -0.065 OA 
HETATM    8  H   UNL     1     -11.532   6.895  67.692  1.00  0.00     0.000 HD 
HETATM    9  O   UNL     1     -10.404   5.454  65.985  1.00  0.00    -0.152 OA 
HETATM   10  N   UNL     1      -9.622   4.299  67.767  1.00  0.00    -0.169 N  
HETATM   11  H   UNL     1      -9.163   3.640  67.138  1.00  0.00     0.000 HD 
ENDROOT
BRANCH   3  12
HETATM   12  C   UNL     1     -11.908   6.916  70.217  1.00  0.00    -0.258 C  
BRANCH  12  13
HETATM   13  N   UNL     1     -11.171   8.034  70.806  1.00  0.00    -0.264 NA 
HETATM   14  C   UNL     1      -8.863   8.402  70.958  1.00  0.00    -0.193 C  
HETATM   15  C   UNL     1      -9.446   8.586  72.357  1.00  0.00    -0.350 C  
HETATM   16  C   UNL     1     -10.062   8.599  70.033  1.00  0.00    -0.189 C  
HETATM   17  C   UNL     1     -10.844   8.053  72.145  1.00  0.00    -0.279 C  
HETATM   18  N   UNL     1     -11.598   7.671  73.117  1.00  0.00    -0.636 NA 
HETATM   19  H2  UNL     1     -12.525   7.321  72.872  1.00  0.00     0.000 HD 
HETATM   20  H1  UNL     1     -11.357   7.685  74.108  1.00  0.00     0.000 HD 
ENDBRANCH  12  13
ENDBRANCH   3  12
TORSDOF 2
ENDMDL
MODEL      155
REMARK 921   NORMALIZED FREE ENERGY PREDICTED BY IDOCK:   -3.75 KCAL/MOL
REMARK 922        TOTAL FREE ENERGY PREDICTED BY IDOCK:   -4.53 KCAL/MOL
REMARK 923 INTER-LIGAND FREE ENERGY PREDICTED BY IDOCK:   -4.44 KCAL/MOL
REMARK 924 INTRA-LIGAND FREE ENERGY PREDICTED BY IDOCK:   -0.09 KCAL/MOL
REMARK 927      BINDING AFFINITY PREDICTED BY RF-SCORE:    0.00 PKD
ROOT
HETATM    1 CL   UNL     1      -6.475  17.601  67.667  1.00  0.00    -0.171 Cl 
HETATM    2  C   UNL     1      -7.995  18.209  67.136  1.00  0.00    -0.220 C  
HETATM    3  C   UNL     1      -8.987  17.447  66.637  1.00  0.00    -0.252 C  
HETATM    4  C   UNL     1      -8.203  19.685  67.228  1.00  0.00    -0.296 C  
HETATM    5  N   UNL     1     -10.144  18.059  66.189  1.00  0.00    -0.357 N  
HETATM    6  C   UNL     1     -10.366  19.402  66.166  1.00  0.00    -0.504 C  
HETATM    7  O   UNL     1      -7.401  20.440  67.770  1.00  0.00    -0.294 OA 
HETATM    8  H   UNL     1     -10.891  17.455  65.847  1.00  0.00     0.000 HD 
HETATM    9  O   UNL     1     -11.396  19.903  65.728  1.00  0.00     0.059 OA 
HETATM   10  N   UNL     1      -9.354  20.169  66.666  1.00  0.00    -0.478 N  
HETATM   11  H   UNL     1      -9.463  21.182  66.617  1.00  0.00     0.000 HD 
ENDROOT
BRANCH   3  12
HETATM   12  C   UNL     1      -8.919  15.945  66.440  1.00  0.00    -0.326 C  
BRANCH  12  13
HETATM   13  N   UNL     1      -9.678  15.220  67.460  1.00  0.00    -0.205 NA 
HETATM   14  C   UNL     1     -11.668  15.797  68.551  1.00  0.00    -0.328 C  
HETATM   15  C   UNL     1     -10.653  15.420  69.627  1.00  0.00    -0.285 C  
HETATM   16  C   UNL     1     -11.129  15.127  67.289  1.00  0.00    -0.332 C  
HETATM   17  C   UNL     1      -9.388  15.353  68.801  1.00  0.00    -0.209 C  
HETATM   18  N   UNL     1      -8.212  15.422  69.322  1.00  0.00    -0.239 NA 
HETATM   19  H2  UNL     1      -7.420  15.372  68.681  1.00  0.00     0.000 HD 
HETATM   20  H1  UNL     1      -7.998  15.520  70.315  1.00  0.00     0.000 HD 
ENDBRANCH  12  13
ENDBRANCH   3  12
TORSDOF 2
ENDMDL
MODEL      156
REMARK 921   NORMALIZED FREE ENERGY PREDICTED BY IDOCK:   -3.74 KCAL/MOL
REMARK 922        TOTAL FREE ENERGY PREDICTED BY IDOCK:   -4.52 KCAL/MOL
REMARK 923 INTER-LIGAND FREE ENERGY PREDICTED BY IDOCK:   -4.36 KCAL/MOL
REMARK 924 INTRA-LIGAND FREE ENERGY PREDICTED BY IDOCK:   -0.16 KCAL/MOL
REMARK 927      BINDING AFFINITY PREDICTED BY RF-SCORE:    0.00 PKD
ROOT
HETATM    1 CL   UNL     1      -8.433  13.762  68.807  1.00  0.00    -0.043 Cl 
HETATM    2  C   UNL     1      -9.671  13.440  67.655  1.00  0.00    -0.222 C  
HETATM    3  C   UNL     1     -10.587  12.460  67.776  1.00  0.00    -0.217 C  
HETATM    4  C   UNL     1      -9.707  14.308  66.439  1.00  0.00    -0.299 C  
HETATM    5  N   UNL     1     -11.498  12.263  66.754  1.00  0.00    -0.345 N  
HETATM    6  C   UNL     1     -11.535  12.959  65.585  1.00  0.00    -0.332 C  
HETATM    7  O   UNL     1      -8.986  15.291  66.299  1.00  0.00    -0.299 OA 
HETATM    8  H   UNL     1     -12.200  11.535  66.888  1.00  0.00     0.000 HD 
HETATM    9  O   UNL     1     -12.342  12.727  64.692  1.00  0.00    -0.421 OA 
HETATM   10  N   UNL     1     -10.600  13.946  65.466  1.00  0.00    -0.298 N  
HETATM   11  H   UNL     1     -10.563  14.454  64.582  1.00  0.00     0.000 HD 
ENDROOT
BRANCH   3  12
HETATM   12  C   UNL     1     -10.662  11.472  68.924  1.00  0.00    -0.207 C  
BRANCH  12  13
HETATM   13  N   UNL     1     -11.925  11.571  69.655  1.00  0.00    -0.332 NA 
HETATM   14  C   UNL     1     -12.545  12.997  71.406  1.00  0.00    -0.329 C  
HETATM   15  C   UNL     1     -12.879  11.572  71.841  1.00  0.00    -0.372 C  
HETATM   16  C   UNL     1     -12.476  12.908  69.883  1.00  0.00     0.031 C  
HETATM   17  C   UNL     1     -12.180  10.783  70.758  1.00  0.00    -0.381 C  
HETATM   18  N   UNL     1     -11.875   9.538  70.890  1.00  0.00    -0.296 NA 
HETATM   19  H2  UNL     1     -11.400   9.093  70.104  1.00  0.00     0.000 HD 
HETATM   20  H1  UNL     1     -12.064   8.955  71.706  1.00  0.00     0.000 HD 
ENDBRANCH  12  13
ENDBRANCH   3  12
TORSDOF 2
ENDMDL
MODEL      157
REMARK 921   NORMALIZED FREE ENERGY PREDICTED BY IDOCK:   -3.74 KCAL/MOL
REMARK 922        TOTAL FREE ENERGY PREDICTED BY IDOCK:   -4.52 KCAL/MOL
REMARK 923 INTER-LIGAND FREE ENERGY PREDICTED BY IDOCK:   -4.41 KCAL/MOL
REMARK 924 INTRA-LIGAND FREE ENERGY PREDICTED BY IDOCK:   -0.11 KCAL/MOL
REMARK 927      BINDING AFFINITY PREDICTED BY RF-SCORE:    0.00 PKD
ROOT
HETATM    1 CL   UNL     1      -7.118  15.869  69.698  1.00  0.00    -0.176 Cl 
HETATM    2  C   UNL     1      -7.728  17.083  68.642  1.00  0.00    -0.251 C  
HETATM    3  C   UNL     1      -8.726  16.893  67.758  1.00  0.00    -0.212 C  
HETATM    4  C   UNL     1      -7.085  18.430  68.715  1.00  0.00    -0.283 C  
HETATM    5  N   UNL     1      -9.091  17.932  66.921  1.00  0.00    -0.253 N  
HETATM    6  C   UNL     1      -8.493  19.155  66.877  1.00  0.00    -0.294 C  
HETATM    7  O   UNL     1      -6.248  18.725  69.563  1.00  0.00    -0.262 OA 
HETATM    8  H   UNL     1      -9.871  17.769  66.286  1.00  0.00     0.000 HD 
HETATM    9  O   UNL     1      -8.829  20.036  66.094  1.00  0.00    -0.346 OA 
HETATM   10  N   UNL     1      -7.477  19.339  67.770  1.00  0.00    -0.252 N  
HETATM   11  H   UNL     1      -6.972  20.224  67.730  1.00  0.00     0.000 HD 
ENDROOT
BRANCH   3  12
HETATM   12  C   UNL     1      -9.453  15.581  67.532  1.00  0.00    -0.208 C  
BRANCH  12  13
HETATM   13  N   UNL     1     -10.785  15.577  68.138  1.00  0.00    -0.273 NA 
HETATM   14  C   UNL     1     -11.414  15.602  70.394  1.00  0.00    -0.369 C  
HETATM   15  C   UNL     1     -12.164  14.453  69.725  1.00  0.00    -0.370 C  
HETATM   16  C   UNL     1     -11.037  16.518  69.231  1.00  0.00    -0.260 C  
HETATM   17  C   UNL     1     -11.455  14.399  68.392  1.00  0.00    -0.301 C  
HETATM   18  N   UNL     1     -11.492  13.365  67.624  1.00  0.00    -0.301 NA 
HETATM   19  H2  UNL     1     -10.976  13.423  66.746  1.00  0.00     0.000 HD 
HETATM   20  H1  UNL     1     -11.988  12.493  67.812  1.00  0.00     0.000 HD 
ENDBRANCH  12  13
ENDBRANCH   3  12
TORSDOF 2
ENDMDL
MODEL      158
REMARK 921   NORMALIZED FREE ENERGY PREDICTED BY IDOCK:   -3.74 KCAL/MOL
REMARK 922        TOTAL FREE ENERGY PREDICTED BY IDOCK:   -4.52 KCAL/MOL
REMARK 923 INTER-LIGAND FREE ENERGY PREDICTED BY IDOCK:   -4.38 KCAL/MOL
REMARK 924 INTRA-LIGAND FREE ENERGY PREDICTED BY IDOCK:   -0.13 KCAL/MOL
REMARK 927      BINDING AFFINITY PREDICTED BY RF-SCORE:    0.00 PKD
ROOT
HETATM    1 CL   UNL     1     -11.800  13.907  65.476  1.00  0.00    -0.351 Cl 
HETATM    2  C   UNL     1     -10.408  13.412  66.359  1.00  0.00    -0.288 C  
HETATM    3  C   UNL     1      -9.315  14.176  66.548  1.00  0.00    -0.265 C  
HETATM    4  C   UNL     1     -10.425  12.033  66.934  1.00  0.00    -0.223 C  
HETATM    5  N   UNL     1      -8.233  13.646  67.227  1.00  0.00    -0.262 N  
HETATM    6  C   UNL     1      -8.149  12.373  67.704  1.00  0.00    -0.168 C  
HETATM    7  O   UNL     1     -11.417  11.311  66.907  1.00  0.00    -0.431 OA 
HETATM    8  H   UNL     1      -7.433  14.258  67.384  1.00  0.00     0.000 HD 
HETATM    9  O   UNL     1      -7.155  11.935  68.272  1.00  0.00    -0.070 OA 
HETATM   10  N   UNL     1      -9.257  11.602  67.503  1.00  0.00    -0.169 N  
HETATM   11  H   UNL     1      -9.210  10.627  67.799  1.00  0.00     0.000 HD 
ENDROOT
BRANCH   3  12
HETATM   12  C   UNL     1      -9.124  15.576  65.997  1.00  0.00    -0.281 C  
BRANCH  12  13
HETATM   13  N   UNL     1      -8.775  16.538  67.044  1.00  0.00    -0.188 NA 
HETATM   14  C   UNL     1     -10.157  17.860  68.396  1.00  0.00    -0.385 C  
HETATM   15  C   UNL     1      -9.112  18.783  67.773  1.00  0.00    -0.311 C  
HETATM   16  C   UNL     1      -9.522  16.474  68.302  1.00  0.00    -0.220 C  
HETATM   17  C   UNL     1      -8.503  17.856  66.746  1.00  0.00    -0.249 C  
HETATM   18  N   UNL     1      -7.828  18.284  65.736  1.00  0.00    -0.520 NA 
HETATM   19  H2  UNL     1      -7.460  17.580  65.095  1.00  0.00     0.000 HD 
HETATM   20  H1  UNL     1      -7.626  19.260  65.516  1.00  0.00     0.000 HD 
ENDBRANCH  12  13
ENDBRANCH   3  12
TORSDOF 2
ENDMDL
MODEL      159
REMARK 921   NORMALIZED FREE ENERGY PREDICTED BY IDOCK:   -3.73 KCAL/MOL
REMARK 922        TOTAL FREE ENERGY PREDICTED BY IDOCK:   -4.51 KCAL/MOL
REMARK 923 INTER-LIGAND FREE ENERGY PREDICTED BY IDOCK:   -4.41 KCAL/MOL
REMARK 924 INTRA-LIGAND FREE ENERGY PREDICTED BY IDOCK:   -0.10 KCAL/MOL
REMARK 927      BINDING AFFINITY PREDICTED BY RF-SCORE:    0.00 PKD
ROOT
HETATM    1 CL   UNL     1     -10.727   7.985  68.021  1.00  0.00    -0.171 Cl 
HETATM    2  C   UNL     1     -10.446   9.664  68.273  1.00  0.00    -0.219 C  
HETATM    3  C   UNL     1     -11.021  10.395  69.247  1.00  0.00    -0.242 C  
HETATM    4  C   UNL     1      -9.508  10.343  67.328  1.00  0.00    -0.154 C  
HETATM    5  N   UNL     1     -10.760  11.752  69.312  1.00  0.00    -0.424 N  
HETATM    6  C   UNL     1      -9.985  12.448  68.436  1.00  0.00    -0.210 C  
HETATM    7  O   UNL     1      -8.856   9.736  66.484  1.00  0.00    -0.136 OA 
HETATM    8  H   UNL     1     -11.183  12.274  70.079  1.00  0.00     0.000 HD 
HETATM    9  O   UNL     1      -9.808  13.659  68.514  1.00  0.00    -0.230 OA 
HETATM   10  N   UNL     1      -9.411  11.703  67.447  1.00  0.00    -0.166 N  
HETATM   11  H   UNL     1      -8.866  12.199  66.742  1.00  0.00     0.000 HD 
ENDROOT
BRANCH   3  12
HETATM   12  C   UNL     1     -12.021   9.869  70.257  1.00  0.00    -0.138 C  
BRANCH  12  13
HETATM   13  N   UNL     1     -11.370   9.359  71.465  1.00  0.00    -0.379 NA 
HETATM   14  C   UNL     1      -9.954   7.516  71.748  1.00  0.00    -0.200 C  
HETATM   15  C   UNL     1     -11.060   7.404  72.794  1.00  0.00    -0.394 C  
HETATM   16  C   UNL     1      -9.955   8.996  71.371  1.00  0.00    -0.318 C  
HETATM   17  C   UNL     1     -12.010   8.474  72.306  1.00  0.00    -0.385 C  
HETATM   18  N   UNL     1     -13.250   8.514  72.652  1.00  0.00    -0.642 NA 
HETATM   19  H2  UNL     1     -13.812   9.272  72.266  1.00  0.00     0.000 HD 
HETATM   20  H1  UNL     1     -13.723   7.859  73.275  1.00  0.00     0.000 HD 
ENDBRANCH  12  13
ENDBRANCH   3  12
TORSDOF 2
ENDMDL
MODEL      160
REMARK 921   NORMALIZED FREE ENERGY PREDICTED BY IDOCK:   -3.72 KCAL/MOL
REMARK 922        TOTAL FREE ENERGY PREDICTED BY IDOCK:   -4.50 KCAL/MOL
REMARK 923 INTER-LIGAND FREE ENERGY PREDICTED BY IDOCK:   -5.54 KCAL/MOL
REMARK 924 INTRA-LIGAND FREE ENERGY PREDICTED BY IDOCK:    1.04 KCAL/MOL
REMARK 927      BINDING AFFINITY PREDICTED BY RF-SCORE:    0.00 PKD
ROOT
HETATM    1 CL   UNL     1     -11.179  11.318  66.407  1.00  0.00    -0.265 Cl 
HETATM    2  C   UNL     1     -11.183  12.877  65.679  1.00  0.00    -0.295 C  
HETATM    3  C   UNL     1     -10.169  13.760  65.763  1.00  0.00    -0.311 C  
HETATM    4  C   UNL     1     -12.408  13.267  64.918  1.00  0.00    -0.425 C  
HETATM    5  N   UNL     1     -10.313  15.007  65.183  1.00  0.00    -0.394 N  
HETATM    6  C   UNL     1     -11.431  15.456  64.549  1.00  0.00    -0.311 C  
HETATM    7  O   UNL     1     -13.331  12.488  64.695  1.00  0.00    -0.804 OA 
HETATM    8  H   UNL     1      -9.518  15.642  65.235  1.00  0.00     0.000 HD 
HETATM    9  O   UNL     1     -11.526  16.584  64.078  1.00  0.00    -1.137 OA 
HETATM   10  N   UNL     1     -12.458  14.560  64.473  1.00  0.00    -0.647 N  
HETATM   11  H   UNL     1     -13.330  14.879  64.051  1.00  0.00     0.000 HD 
ENDROOT
BRANCH   3  12
HETATM   12  C   UNL     1      -8.879  13.536  66.528  1.00  0.00     0.027 C  
BRANCH  12  13
HETATM   13  N   UNL     1      -8.593  14.628  67.460  1.00  0.00    -0.175 NA 
HETATM   14  C   UNL     1      -7.985  16.849  67.036  1.00  0.00    -0.228 C  
HETATM   15  C   UNL     1      -6.976  16.283  68.033  1.00  0.00    -0.140 C  
HETATM   16  C   UNL     1      -9.198  15.932  67.184  1.00  0.00    -0.209 C  
HETATM   17  C   UNL     1      -7.331  14.815  67.981  1.00  0.00    -0.133 C  
HETATM   18  N   UNL     1      -6.526  13.890  68.377  1.00  0.00    -0.093 NA 
HETATM   19  H2  UNL     1      -6.855  12.927  68.298  1.00  0.00     0.000 HD 
HETATM   20  H1  UNL     1      -5.592  14.029  68.763  1.00  0.00     0.000 HD 
ENDBRANCH  12  13
ENDBRANCH   3  12
TORSDOF 2
ENDMDL
MODEL      161
REMARK 921   NORMALIZED FREE ENERGY PREDICTED BY IDOCK:   -3.72 KCAL/MOL
REMARK 922        TOTAL FREE ENERGY PREDICTED BY IDOCK:   -4.50 KCAL/MOL
REMARK 923 INTER-LIGAND FREE ENERGY PREDICTED BY IDOCK:   -4.36 KCAL/MOL
REMARK 924 INTRA-LIGAND FREE ENERGY PREDICTED BY IDOCK:   -0.14 KCAL/MOL
REMARK 927      BINDING AFFINITY PREDICTED BY RF-SCORE:    0.00 PKD
ROOT
HETATM    1 CL   UNL     1     -12.605  15.392  70.485  1.00  0.00    -0.457 Cl 
HETATM    2  C   UNL     1     -12.138  14.106  69.441  1.00  0.00    -0.328 C  
HETATM    3  C   UNL     1     -11.842  14.254  68.135  1.00  0.00    -0.339 C  
HETATM    4  C   UNL     1     -12.076  12.737  70.037  1.00  0.00    -0.285 C  
HETATM    5  N   UNL     1     -11.535  13.133  67.384  1.00  0.00    -0.312 N  
HETATM    6  C   UNL     1     -11.542  11.851  67.843  1.00  0.00    -0.323 C  
HETATM    7  O   UNL     1     -12.221  12.525  71.238  1.00  0.00    -0.164 OA 
HETATM    8  H   UNL     1     -11.283  13.280  66.407  1.00  0.00     0.000 HD 
HETATM    9  O   UNL     1     -11.296  10.884  67.131  1.00  0.00    -0.394 OA 
HETATM   10  N   UNL     1     -11.850  11.707  69.164  1.00  0.00    -0.316 N  
HETATM   11  H   UNL     1     -11.917  10.758  69.530  1.00  0.00     0.000 HD 
ENDROOT
BRANCH   3  12
HETATM   12  C   UNL     1     -11.895  15.563  67.372  1.00  0.00     0.188 C  
BRANCH  12  13
HETATM   13  N   UNL     1     -10.560  16.095  67.095  1.00  0.00    -0.306 NA 
HETATM   14  C   UNL     1      -8.489  15.003  67.017  1.00  0.00    -0.258 C  
HETATM   15  C   UNL     1      -8.332  16.213  67.936  1.00  0.00    -0.165 C  
HETATM   16  C   UNL     1      -9.710  15.348  66.166  1.00  0.00    -0.318 C  
HETATM   17  C   UNL     1      -9.777  16.627  68.097  1.00  0.00    -0.244 C  
HETATM   18  N   UNL     1     -10.183  17.376  69.063  1.00  0.00    -0.335 NA 
HETATM   19  H2  UNL     1     -11.178  17.596  69.089  1.00  0.00     0.000 HD 
HETATM   20  H1  UNL     1      -9.603  17.770  69.804  1.00  0.00     0.000 HD 
ENDBRANCH  12  13
ENDBRANCH   3  12
TORSDOF 2
ENDMDL
MODEL      162
REMARK 921   NORMALIZED FREE ENERGY PREDICTED BY IDOCK:   -3.71 KCAL/MOL
REMARK 922        TOTAL FREE ENERGY PREDICTED BY IDOCK:   -4.49 KCAL/MOL
REMARK 923 INTER-LIGAND FREE ENERGY PREDICTED BY IDOCK:   -4.16 KCAL/MOL
REMARK 924 INTRA-LIGAND FREE ENERGY PREDICTED BY IDOCK:   -0.33 KCAL/MOL
REMARK 927      BINDING AFFINITY PREDICTED BY RF-SCORE:    0.00 PKD
ROOT
HETATM    1 CL   UNL     1     -11.227  11.350  66.451  1.00  0.00    -0.308 Cl 
HETATM    2  C   UNL     1     -10.799  12.984  66.116  1.00  0.00    -0.279 C  
HETATM    3  C   UNL     1      -9.704  13.599  66.602  1.00  0.00    -0.284 C  
HETATM    4  C   UNL     1     -11.725  13.760  65.236  1.00  0.00    -0.338 C  
HETATM    5  N   UNL     1      -9.498  14.935  66.307  1.00  0.00    -0.297 N  
HETATM    6  C   UNL     1     -10.341  15.722  65.584  1.00  0.00    -0.388 C  
HETATM    7  O   UNL     1     -12.683  13.250  64.662  1.00  0.00    -0.643 OA 
HETATM    8  H   UNL     1      -8.644  15.365  66.661  1.00  0.00     0.000 HD 
HETATM    9  O   UNL     1     -10.133  16.912  65.376  1.00  0.00    -0.586 OA 
HETATM   10  N   UNL     1     -11.452  15.094  65.101  1.00  0.00    -0.335 N  
HETATM   11  H   UNL     1     -12.133  15.664  64.599  1.00  0.00     0.000 HD 
ENDROOT
BRANCH   3  12
HETATM   12  C   UNL     1      -8.691  12.967  67.536  1.00  0.00    -0.197 C  
BRANCH  12  13
HETATM   13  N   UNL     1      -7.520  12.461  66.819  1.00  0.00     0.074 NA 
HETATM   14  C   UNL     1      -6.454  10.380  66.955  1.00  0.00    -0.076 C  
HETATM   15  C   UNL     1      -5.379  11.453  67.116  1.00  0.00    -0.079 C  
HETATM   16  C   UNL     1      -7.599  11.112  66.257  1.00  0.00    -0.075 C  
HETATM   17  C   UNL     1      -6.241  12.683  67.284  1.00  0.00    -0.089 C  
HETATM   18  N   UNL     1      -5.801  13.776  67.806  1.00  0.00    -0.256 NA 
HETATM   19  H2  UNL     1      -6.461  14.550  67.881  1.00  0.00     0.000 HD 
HETATM   20  H1  UNL     1      -4.854  13.940  68.150  1.00  0.00     0.000 HD 
ENDBRANCH  12  13
ENDBRANCH   3  12
TORSDOF 2
ENDMDL
MODEL      163
REMARK 921   NORMALIZED FREE ENERGY PREDICTED BY IDOCK:   -3.71 KCAL/MOL
REMARK 922        TOTAL FREE ENERGY PREDICTED BY IDOCK:   -4.48 KCAL/MOL
REMARK 923 INTER-LIGAND FREE ENERGY PREDICTED BY IDOCK:   -4.18 KCAL/MOL
REMARK 924 INTRA-LIGAND FREE ENERGY PREDICTED BY IDOCK:   -0.30 KCAL/MOL
REMARK 927      BINDING AFFINITY PREDICTED BY RF-SCORE:    0.00 PKD
ROOT
HETATM    1 CL   UNL     1     -11.551   7.900  71.694  1.00  0.00    -0.291 Cl 
HETATM    2  C   UNL     1     -11.701   9.512  71.109  1.00  0.00    -0.363 C  
HETATM    3  C   UNL     1     -10.876  10.073  70.204  1.00  0.00    -0.311 C  
HETATM    4  C   UNL     1     -12.818  10.333  71.665  1.00  0.00    -0.463 C  
HETATM    5  N   UNL     1     -11.064  11.398  69.854  1.00  0.00    -0.474 N  
HETATM    6  C   UNL     1     -12.007  12.226  70.382  1.00  0.00    -0.263 C  
HETATM    7  O   UNL     1     -13.681   9.872  72.406  1.00  0.00    -0.338 OA 
HETATM    8  H   UNL     1     -10.445  11.786  69.143  1.00  0.00     0.000 HD 
HETATM    9  O   UNL     1     -12.115  13.406  70.065  1.00  0.00    -0.326 OA 
HETATM   10  N   UNL     1     -12.834  11.654  71.304  1.00  0.00    -0.376 N  
HETATM   11  H   UNL     1     -13.519  12.257  71.759  1.00  0.00     0.000 HD 
ENDROOT
BRANCH   3  12
HETATM   12  C   UNL     1      -9.676   9.391  69.577  1.00  0.00    -0.183 C  
BRANCH  12  13
HETATM   13  N   UNL     1      -9.188  10.106  68.397  1.00  0.00    -0.130 NA 
HETATM   14  C   UNL     1      -8.270   9.280  66.407  1.00  0.00    -0.111 C  
HETATM   15  C   UNL     1      -7.317  10.347  66.940  1.00  0.00    -0.106 C  
HETATM   16  C   UNL     1      -9.600   9.609  67.083  1.00  0.00    -0.166 C  
HETATM   17  C   UNL     1      -7.891  10.566  68.321  1.00  0.00    -0.111 C  
HETATM   18  N   UNL     1      -7.219  11.110  69.276  1.00  0.00    -0.170 NA 
HETATM   19  H2  UNL     1      -7.693  11.210  70.174  1.00  0.00     0.000 HD 
HETATM   20  H1  UNL     1      -6.259  11.450  69.219  1.00  0.00     0.000 HD 
ENDBRANCH  12  13
ENDBRANCH   3  12
TORSDOF 2
ENDMDL
MODEL      164
REMARK 921   NORMALIZED FREE ENERGY PREDICTED BY IDOCK:   -3.70 KCAL/MOL
REMARK 922        TOTAL FREE ENERGY PREDICTED BY IDOCK:   -4.47 KCAL/MOL
REMARK 923 INTER-LIGAND FREE ENERGY PREDICTED BY IDOCK:   -4.17 KCAL/MOL
REMARK 924 INTRA-LIGAND FREE ENERGY PREDICTED BY IDOCK:   -0.30 KCAL/MOL
REMARK 927      BINDING AFFINITY PREDICTED BY RF-SCORE:    0.00 PKD
ROOT
HETATM    1 CL   UNL     1      -9.076   7.028  70.097  1.00  0.00    -0.149 Cl 
HETATM    2  C   UNL     1     -10.250   8.180  70.605  1.00  0.00    -0.196 C  
HETATM    3  C   UNL     1     -11.343   7.882  71.333  1.00  0.00    -0.252 C  
HETATM    4  C   UNL     1     -10.033   9.598  70.187  1.00  0.00    -0.261 C  
HETATM    5  N   UNL     1     -12.245   8.887  71.632  1.00  0.00    -0.322 N  
HETATM    6  C   UNL     1     -12.153  10.180  71.214  1.00  0.00    -0.394 C  
HETATM    7  O   UNL     1      -9.013   9.977  69.619  1.00  0.00    -0.198 OA 
HETATM    8  H   UNL     1     -13.046   8.640  72.213  1.00  0.00     0.000 HD 
HETATM    9  O   UNL     1     -12.996  11.030  71.475  1.00  0.00    -0.422 OA 
HETATM   10  N   UNL     1     -11.047  10.473  70.469  1.00  0.00    -0.427 N  
HETATM   11  H   UNL     1     -10.970  11.418  70.094  1.00  0.00     0.000 HD 
ENDROOT
BRANCH   3  12
HETATM   12  C   UNL     1     -11.728   6.492  71.801  1.00  0.00    -0.324 C  
BRANCH  12  13
HETATM   13  N   UNL     1     -10.909   6.042  72.927  1.00  0.00    -0.245 NA 
HETATM   14  C   UNL     1      -8.892   6.893  73.758  1.00  0.00    -0.179 C  
HETATM   15  C   UNL     1      -8.701   5.392  73.551  1.00  0.00    -0.114 C  
HETATM   16  C   UNL     1     -10.407   7.059  73.852  1.00  0.00    -0.348 C  
HETATM   17  C   UNL     1      -9.953   5.060  72.772  1.00  0.00    -0.163 C  
HETATM   18  N   UNL     1     -10.069   3.991  72.063  1.00  0.00    -0.176 NA 
HETATM   19  H2  UNL     1     -10.952   3.858  71.569  1.00  0.00     0.000 HD 
HETATM   20  H1  UNL     1      -9.361   3.265  71.949  1.00  0.00     0.000 HD 
ENDBRANCH  12  13
ENDBRANCH   3  12
TORSDOF 2
ENDMDL
MODEL      165
REMARK 921   NORMALIZED FREE ENERGY PREDICTED BY IDOCK:   -3.69 KCAL/MOL
REMARK 922        TOTAL FREE ENERGY PREDICTED BY IDOCK:   -4.47 KCAL/MOL
REMARK 923 INTER-LIGAND FREE ENERGY PREDICTED BY IDOCK:   -4.17 KCAL/MOL
REMARK 924 INTRA-LIGAND FREE ENERGY PREDICTED BY IDOCK:   -0.30 KCAL/MOL
REMARK 927      BINDING AFFINITY PREDICTED BY RF-SCORE:    0.00 PKD
ROOT
HETATM    1 CL   UNL     1      -8.522  18.544  66.531  1.00  0.00    -0.286 Cl 
HETATM    2  C   UNL     1      -9.228  17.060  66.017  1.00  0.00    -0.142 C  
HETATM    3  C   UNL     1      -8.712  15.843  66.273  1.00  0.00    -0.337 C  
HETATM    4  C   UNL     1     -10.490  17.150  65.222  1.00  0.00     0.015 C  
HETATM    5  N   UNL     1      -9.341  14.725  65.756  1.00  0.00    -0.514 N  
HETATM    6  C   UNL     1     -10.443  14.739  64.957  1.00  0.00    -0.416 C  
HETATM    7  O   UNL     1     -11.088  18.206  65.038  1.00  0.00    -0.650 OA 
HETATM    8  H   UNL     1      -8.947  13.815  65.993  1.00  0.00     0.000 HD 
HETATM    9  O   UNL     1     -10.948  13.723  64.494  1.00  0.00    -0.387 OA 
HETATM   10  N   UNL     1     -10.956  15.976  64.696  1.00  0.00    -0.621 N  
HETATM   11  H   UNL     1     -11.750  16.030  64.058  1.00  0.00     0.000 HD 
ENDROOT
BRANCH   3  12
HETATM   12  C   UNL     1      -7.423  15.582  67.028  1.00  0.00    -0.170 C  
BRANCH  12  13
HETATM   13  N   UNL     1      -7.618  15.603  68.478  1.00  0.00    -0.127 NA 
HETATM   14  C   UNL     1      -6.169  16.291  70.183  1.00  0.00    -0.034 C  
HETATM   15  C   UNL     1      -6.671  14.897  70.549  1.00  0.00     0.141 C  
HETATM   16  C   UNL     1      -7.216  16.811  69.200  1.00  0.00    -0.214 C  
HETATM   17  C   UNL     1      -7.343  14.498  69.255  1.00  0.00    -0.126 C  
HETATM   18  N   UNL     1      -7.602  13.272  68.954  1.00  0.00    -0.297 NA 
HETATM   19  H2  UNL     1      -8.054  13.104  68.055  1.00  0.00     0.000 HD 
HETATM   20  H1  UNL     1      -7.399  12.455  69.530  1.00  0.00     0.000 HD 
ENDBRANCH  12  13
ENDBRANCH   3  12
TORSDOF 2
ENDMDL
MODEL      166
REMARK 921   NORMALIZED FREE ENERGY PREDICTED BY IDOCK:   -3.67 KCAL/MOL
REMARK 922        TOTAL FREE ENERGY PREDICTED BY IDOCK:   -4.45 KCAL/MOL
REMARK 923 INTER-LIGAND FREE ENERGY PREDICTED BY IDOCK:   -4.22 KCAL/MOL
REMARK 924 INTRA-LIGAND FREE ENERGY PREDICTED BY IDOCK:   -0.23 KCAL/MOL
REMARK 927      BINDING AFFINITY PREDICTED BY RF-SCORE:    0.00 PKD
ROOT
HETATM    1 CL   UNL     1      -9.508   4.194  68.138  1.00  0.00    -0.214 Cl 
HETATM    2  C   UNL     1      -9.791   5.838  67.716  1.00  0.00    -0.126 C  
HETATM    3  C   UNL     1     -10.620   6.664  68.383  1.00  0.00    -0.242 C  
HETATM    4  C   UNL     1      -9.071   6.364  66.517  1.00  0.00    -0.151 C  
HETATM    5  N   UNL     1     -10.809   7.951  67.913  1.00  0.00    -0.479 N  
HETATM    6  C   UNL     1     -10.252   8.466  66.783  1.00  0.00    -0.306 C  
HETATM    7  O   UNL     1      -8.215   5.719  65.917  1.00  0.00    -0.112 OA 
HETATM    8  H   UNL     1     -11.417   8.563  68.456  1.00  0.00     0.000 HD 
HETATM    9  O   UNL     1     -10.475   9.604  66.385  1.00  0.00    -0.202 OA 
HETATM   10  N   UNL     1      -9.418   7.623  66.108  1.00  0.00    -0.395 N  
HETATM   11  H   UNL     1      -9.024   7.956  65.229  1.00  0.00     0.000 HD 
ENDROOT
BRANCH   3  12
HETATM   12  C   UNL     1     -11.452   6.276  69.590  1.00  0.00    -0.355 C  
BRANCH  12  13
HETATM   13  N   UNL     1     -10.808   6.652  70.849  1.00  0.00    -0.241 NA 
HETATM   14  C   UNL     1      -9.888   5.307  72.531  1.00  0.00    -0.195 C  
HETATM   15  C   UNL     1     -10.846   6.287  73.205  1.00  0.00    -0.281 C  
HETATM   16  C   UNL     1      -9.556   5.978  71.199  1.00  0.00    -0.172 C  
HETATM   17  C   UNL     1     -11.542   6.867  71.996  1.00  0.00    -0.285 C  
HETATM   18  N   UNL     1     -12.678   7.472  72.070  1.00  0.00    -0.463 NA 
HETATM   19  H2  UNL     1     -13.070   7.825  71.197  1.00  0.00     0.000 HD 
HETATM   20  H1  UNL     1     -13.221   7.631  72.918  1.00  0.00     0.000 HD 
ENDBRANCH  12  13
ENDBRANCH   3  12
TORSDOF 2
ENDMDL
MODEL      167
REMARK 921   NORMALIZED FREE ENERGY PREDICTED BY IDOCK:   -3.62 KCAL/MOL
REMARK 922        TOTAL FREE ENERGY PREDICTED BY IDOCK:   -4.39 KCAL/MOL
REMARK 923 INTER-LIGAND FREE ENERGY PREDICTED BY IDOCK:   -4.11 KCAL/MOL
REMARK 924 INTRA-LIGAND FREE ENERGY PREDICTED BY IDOCK:   -0.28 KCAL/MOL
REMARK 927      BINDING AFFINITY PREDICTED BY RF-SCORE:    0.00 PKD
ROOT
HETATM    1 CL   UNL     1     -11.195   6.290  68.497  1.00  0.00    -0.400 Cl 
HETATM    2  C   UNL     1      -9.889   6.964  69.394  1.00  0.00    -0.158 C  
HETATM    3  C   UNL     1      -9.839   8.238  69.827  1.00  0.00    -0.187 C  
HETATM    4  C   UNL     1      -8.735   6.062  69.690  1.00  0.00    -0.133 C  
HETATM    5  N   UNL     1      -8.708   8.679  70.489  1.00  0.00    -0.149 N  
HETATM    6  C   UNL     1      -7.590   7.938  70.719  1.00  0.00    -0.078 C  
HETATM    7  O   UNL     1      -8.742   4.862  69.433  1.00  0.00    -0.086 OA 
HETATM    8  H   UNL     1      -8.712   9.639  70.834  1.00  0.00     0.000 HD 
HETATM    9  O   UNL     1      -6.595   8.382  71.282  1.00  0.00    -0.044 OA 
HETATM   10  N   UNL     1      -7.643   6.650  70.271  1.00  0.00    -0.094 N  
HETATM   11  H   UNL     1      -6.804   6.080  70.378  1.00  0.00     0.000 HD 
ENDROOT
BRANCH   3  12
HETATM   12  C   UNL     1     -10.905   9.287  69.575  1.00  0.00    -0.195 C  
BRANCH  12  13
HETATM   13  N   UNL     1     -11.400   9.880  70.818  1.00  0.00    -0.326 NA 
HETATM   14  C   UNL     1     -13.428   9.548  71.942  1.00  0.00    -0.502 C  
HETATM   15  C   UNL     1     -13.238  11.054  71.782  1.00  0.00    -0.505 C  
HETATM   16  C   UNL     1     -12.015   8.984  71.800  1.00  0.00    -0.368 C  
HETATM   17  C   UNL     1     -12.071  11.084  70.822  1.00  0.00    -0.366 C  
HETATM   18  N   UNL     1     -11.778  12.120  70.114  1.00  0.00    -0.525 NA 
HETATM   19  H2  UNL     1     -10.974  12.041  69.491  1.00  0.00     0.000 HD 
HETATM   20  H1  UNL     1     -12.274  13.011  70.117  1.00  0.00     0.000 HD 
ENDBRANCH  12  13
ENDBRANCH   3  12
TORSDOF 2
ENDMDL
MODEL      168
REMARK 921   NORMALIZED FREE ENERGY PREDICTED BY IDOCK:   -3.61 KCAL/MOL
REMARK 922        TOTAL FREE ENERGY PREDICTED BY IDOCK:   -4.38 KCAL/MOL
REMARK 923 INTER-LIGAND FREE ENERGY PREDICTED BY IDOCK:   -4.00 KCAL/MOL
REMARK 924 INTRA-LIGAND FREE ENERGY PREDICTED BY IDOCK:   -0.38 KCAL/MOL
REMARK 927      BINDING AFFINITY PREDICTED BY RF-SCORE:    0.00 PKD
ROOT
HETATM    1 CL   UNL     1     -11.534  10.615  68.319  1.00  0.00    -0.358 Cl 
HETATM    2  C   UNL     1     -10.924   9.888  69.755  1.00  0.00    -0.268 C  
HETATM    3  C   UNL     1      -9.746   9.241  69.840  1.00  0.00    -0.201 C  
HETATM    4  C   UNL     1     -11.781   9.977  70.976  1.00  0.00    -0.392 C  
HETATM    5  N   UNL     1      -9.390   8.647  71.037  1.00  0.00    -0.183 N  
HETATM    6  C   UNL     1     -10.158   8.618  72.161  1.00  0.00    -0.318 C  
HETATM    7  O   UNL     1     -12.813  10.640  71.020  1.00  0.00    -0.361 OA 
HETATM    8  H   UNL     1      -8.478   8.193  71.081  1.00  0.00     0.000 HD 
HETATM    9  O   UNL     1      -9.815   8.049  73.191  1.00  0.00    -0.285 OA 
HETATM   10  N   UNL     1     -11.354   9.268  72.066  1.00  0.00    -0.284 N  
HETATM   11  H   UNL     1     -11.978   9.223  72.871  1.00  0.00     0.000 HD 
ENDROOT
BRANCH   3  12
HETATM   12  C   UNL     1      -8.783   9.028  68.688  1.00  0.00    -0.133 C  
BRANCH  12  13
HETATM   13  N   UNL     1      -8.969   7.726  68.046  1.00  0.00    -0.127 NA 
HETATM   14  C   UNL     1     -10.917   6.461  67.743  1.00  0.00    -0.425 C  
HETATM   15  C   UNL     1      -9.870   5.543  68.369  1.00  0.00    -0.186 C  
HETATM   16  C   UNL     1     -10.090   7.582  67.115  1.00  0.00    -0.247 C  
HETATM   17  C   UNL     1      -8.809   6.550  68.748  1.00  0.00    -0.125 C  
HETATM   18  N   UNL     1      -7.896   6.304  69.622  1.00  0.00    -0.105 NA 
HETATM   19  H2  UNL     1      -7.227   7.051  69.813  1.00  0.00     0.000 HD 
HETATM   20  H1  UNL     1      -7.777   5.434  70.141  1.00  0.00     0.000 HD 
ENDBRANCH  12  13
ENDBRANCH   3  12
TORSDOF 2
ENDMDL
MODEL      169
REMARK 921   NORMALIZED FREE ENERGY PREDICTED BY IDOCK:   -3.60 KCAL/MOL
REMARK 922        TOTAL FREE ENERGY PREDICTED BY IDOCK:   -4.37 KCAL/MOL
REMARK 923 INTER-LIGAND FREE ENERGY PREDICTED BY IDOCK:   -5.26 KCAL/MOL
REMARK 924 INTRA-LIGAND FREE ENERGY PREDICTED BY IDOCK:    0.90 KCAL/MOL
REMARK 927      BINDING AFFINITY PREDICTED BY RF-SCORE:    0.00 PKD
ROOT
HETATM    1 CL   UNL     1     -11.292  11.402  69.509  1.00  0.00    -0.339 Cl 
HETATM    2  C   UNL     1     -12.239  12.644  70.234  1.00  0.00    -0.271 C  
HETATM    3  C   UNL     1     -12.378  13.886  69.733  1.00  0.00    -0.275 C  
HETATM    4  C   UNL     1     -12.936  12.306  71.512  1.00  0.00    -0.289 C  
HETATM    5  N   UNL     1     -13.121  14.816  70.437  1.00  0.00    -0.598 N  
HETATM    6  C   UNL     1     -13.711  14.601  71.645  1.00  0.00    -0.418 C  
HETATM    7  O   UNL     1     -12.956  11.171  71.981  1.00  0.00    -0.447 OA 
HETATM    8  H   UNL     1     -13.236  15.738  70.018  1.00  0.00     0.000 HD 
HETATM    9  O   UNL     1     -14.334  15.467  72.250  1.00  0.00    -0.550 OA 
HETATM   10  N   UNL     1     -13.561  13.342  72.151  1.00  0.00    -0.530 N  
HETATM   11  H   UNL     1     -13.945  13.159  73.078  1.00  0.00     0.000 HD 
ENDROOT
BRANCH   3  12
HETATM   12  C   UNL     1     -11.708  14.398  68.473  1.00  0.00    -0.335 C  
BRANCH  12  13
HETATM   13  N   UNL     1     -10.723  13.452  67.947  1.00  0.00    -0.242 NA 
HETATM   14  C   UNL     1      -8.520  13.809  67.238  1.00  0.00    -0.204 C  
HETATM   15  C   UNL     1      -9.237  13.046  66.127  1.00  0.00    -0.010 C  
HETATM   16  C   UNL     1      -9.362  13.523  68.480  1.00  0.00    -0.108 C  
HETATM   17  C   UNL     1     -10.668  13.145  66.604  1.00  0.00    -0.279 C  
HETATM   18  N   UNL     1     -11.676  12.963  65.823  1.00  0.00    -0.368 NA 
HETATM   19  H2  UNL     1     -12.604  13.056  66.238  1.00  0.00     0.000 HD 
HETATM   20  H1  UNL     1     -11.635  12.735  64.830  1.00  0.00     0.000 HD 
ENDBRANCH  12  13
ENDBRANCH   3  12
TORSDOF 2
ENDMDL
MODEL      170
REMARK 921   NORMALIZED FREE ENERGY PREDICTED BY IDOCK:   -3.58 KCAL/MOL
REMARK 922        TOTAL FREE ENERGY PREDICTED BY IDOCK:   -4.34 KCAL/MOL
REMARK 923 INTER-LIGAND FREE ENERGY PREDICTED BY IDOCK:   -4.14 KCAL/MOL
REMARK 924 INTRA-LIGAND FREE ENERGY PREDICTED BY IDOCK:   -0.20 KCAL/MOL
REMARK 927      BINDING AFFINITY PREDICTED BY RF-SCORE:    0.00 PKD
ROOT
HETATM    1 CL   UNL     1     -11.647  12.005  69.487  1.00  0.00    -0.377 Cl 
HETATM    2  C   UNL     1     -11.284  10.349  69.193  1.00  0.00    -0.246 C  
HETATM    3  C   UNL     1     -10.869   9.859  68.009  1.00  0.00    -0.243 C  
HETATM    4  C   UNL     1     -11.460   9.403  70.337  1.00  0.00    -0.223 C  
HETATM    5  N   UNL     1     -10.663   8.497  67.880  1.00  0.00    -0.461 N  
HETATM    6  C   UNL     1     -10.885   7.571  68.853  1.00  0.00    -0.037 C  
HETATM    7  O   UNL     1     -11.726   9.775  71.476  1.00  0.00    -0.379 OA 
HETATM    8  H   UNL     1     -10.318   8.159  66.982  1.00  0.00     0.000 HD 
HETATM    9  O   UNL     1     -10.720   6.368  68.683  1.00  0.00    -0.227 OA 
HETATM   10  N   UNL     1     -11.312   8.073  70.048  1.00  0.00    -0.453 N  
HETATM   11  H   UNL     1     -11.538   7.405  70.784  1.00  0.00     0.000 HD 
ENDROOT
BRANCH   3  12
HETATM   12  C   UNL     1     -10.680  10.675  66.745  1.00  0.00    -0.210 C  
BRANCH  12  13
HETATM   13  N   UNL     1      -9.349  11.279  66.672  1.00  0.00    -0.176 NA 
HETATM   14  C   UNL     1      -7.950  12.054  68.384  1.00  0.00    -0.152 C  
HETATM   15  C   UNL     1      -8.064  13.170  67.348  1.00  0.00    -0.181 C  
HETATM   16  C   UNL     1      -8.331  10.795  67.606  1.00  0.00    -0.119 C  
HETATM   17  C   UNL     1      -9.185  12.636  66.488  1.00  0.00    -0.200 C  
HETATM   18  N   UNL     1      -9.878  13.385  65.701  1.00  0.00    -0.454 NA 
HETATM   19  H2  UNL     1     -10.617  12.932  65.165  1.00  0.00     0.000 HD 
HETATM   20  H1  UNL     1      -9.756  14.389  65.565  1.00  0.00     0.000 HD 
ENDBRANCH  12  13
ENDBRANCH   3  12
TORSDOF 2
ENDMDL
MODEL      171
REMARK 921   NORMALIZED FREE ENERGY PREDICTED BY IDOCK:   -3.57 KCAL/MOL
REMARK 922        TOTAL FREE ENERGY PREDICTED BY IDOCK:   -4.33 KCAL/MOL
REMARK 923 INTER-LIGAND FREE ENERGY PREDICTED BY IDOCK:   -4.05 KCAL/MOL
REMARK 924 INTRA-LIGAND FREE ENERGY PREDICTED BY IDOCK:   -0.27 KCAL/MOL
REMARK 927      BINDING AFFINITY PREDICTED BY RF-SCORE:    0.00 PKD
ROOT
HETATM    1 CL   UNL     1      -6.591  17.999  69.238  1.00  0.00    -0.251 Cl 
HETATM    2  C   UNL     1      -6.499  18.912  67.781  1.00  0.00    -0.211 C  
HETATM    3  C   UNL     1      -7.090  18.559  66.623  1.00  0.00    -0.208 C  
HETATM    4  C   UNL     1      -5.694  20.170  67.819  1.00  0.00    -0.194 C  
HETATM    5  N   UNL     1      -6.896  19.346  65.503  1.00  0.00    -0.280 N  
HETATM    6  C   UNL     1      -6.109  20.456  65.446  1.00  0.00    -0.227 C  
HETATM    7  O   UNL     1      -5.215  20.625  68.854  1.00  0.00    -0.237 OA 
HETATM    8  H   UNL     1      -7.381  19.073  64.649  1.00  0.00     0.000 HD 
HETATM    9  O   UNL     1      -5.939  21.105  64.420  1.00  0.00    -0.265 OA 
HETATM   10  N   UNL     1      -5.507  20.804  66.621  1.00  0.00    -0.172 N  
HETATM   11  H   UNL     1      -4.869  21.599  66.604  1.00  0.00     0.000 HD 
ENDROOT
BRANCH   3  12
HETATM   12  C   UNL     1      -7.905  17.298  66.408  1.00  0.00    -0.310 C  
BRANCH  12  13
HETATM   13  N   UNL     1      -9.306  17.475  66.789  1.00  0.00    -0.257 NA 
HETATM   14  C   UNL     1     -10.416  19.365  67.615  1.00  0.00    -0.573 C  
HETATM   15  C   UNL     1     -10.736  18.204  68.553  1.00  0.00    -0.004 C  
HETATM   16  C   UNL     1      -9.992  18.680  66.317  1.00  0.00    -0.372 C  
HETATM   17  C   UNL     1      -9.750  17.170  68.058  1.00  0.00    -0.274 C  
HETATM   18  N   UNL     1      -9.393  16.154  68.764  1.00  0.00    -0.218 NA 
HETATM   19  H2  UNL     1      -8.719  15.514  68.345  1.00  0.00     0.000 HD 
HETATM   20  H1  UNL     1      -9.722  15.928  69.703  1.00  0.00     0.000 HD 
ENDBRANCH  12  13
ENDBRANCH   3  12
TORSDOF 2
ENDMDL
MODEL      172
REMARK 921   NORMALIZED FREE ENERGY PREDICTED BY IDOCK:   -3.57 KCAL/MOL
REMARK 922        TOTAL FREE ENERGY PREDICTED BY IDOCK:   -4.33 KCAL/MOL
REMARK 923 INTER-LIGAND FREE ENERGY PREDICTED BY IDOCK:   -4.15 KCAL/MOL
REMARK 924 INTRA-LIGAND FREE ENERGY PREDICTED BY IDOCK:   -0.18 KCAL/MOL
REMARK 927      BINDING AFFINITY PREDICTED BY RF-SCORE:    0.00 PKD
ROOT
HETATM    1 CL   UNL     1     -10.408   6.961  68.205  1.00  0.00    -0.205 Cl 
HETATM    2  C   UNL     1     -10.069   6.432  69.807  1.00  0.00    -0.176 C  
HETATM    3  C   UNL     1     -10.026   7.241  70.883  1.00  0.00    -0.185 C  
HETATM    4  C   UNL     1      -9.792   4.976  69.995  1.00  0.00    -0.228 C  
HETATM    5  N   UNL     1      -9.685   6.706  72.113  1.00  0.00    -0.154 N  
HETATM    6  C   UNL     1      -9.340   5.409  72.339  1.00  0.00    -0.143 C  
HETATM    7  O   UNL     1      -9.918   4.151  69.095  1.00  0.00    -0.118 OA 
HETATM    8  H   UNL     1      -9.693   7.335  72.915  1.00  0.00     0.000 HD 
HETATM    9  O   UNL     1      -9.012   4.986  73.443  1.00  0.00    -0.119 OA 
HETATM   10  N   UNL     1      -9.378   4.596  71.244  1.00  0.00    -0.139 N  
HETATM   11  H   UNL     1      -9.076   3.630  71.365  1.00  0.00     0.000 HD 
ENDROOT
BRANCH   3  12
HETATM   12  C   UNL     1     -10.243   8.741  70.856  1.00  0.00    -0.226 C  
BRANCH  12  13
HETATM   13  N   UNL     1     -11.662   9.093  70.805  1.00  0.00    -0.277 NA 
HETATM   14  C   UNL     1     -12.738  11.096  71.366  1.00  0.00    -0.524 C  
HETATM   15  C   UNL     1     -13.466   9.969  72.094  1.00  0.00    -0.420 C  
HETATM   16  C   UNL     1     -12.021  10.386  70.219  1.00  0.00    -0.302 C  
HETATM   17  C   UNL     1     -12.507   8.825  71.861  1.00  0.00    -0.372 C  
HETATM   18  N   UNL     1     -12.508   7.757  72.582  1.00  0.00    -0.560 NA 
HETATM   19  H2  UNL     1     -11.818   7.042  72.349  1.00  0.00     0.000 HD 
HETATM   20  H1  UNL     1     -13.134   7.559  73.363  1.00  0.00     0.000 HD 
ENDBRANCH  12  13
ENDBRANCH   3  12
TORSDOF 2
ENDMDL
MODEL      173
REMARK 921   NORMALIZED FREE ENERGY PREDICTED BY IDOCK:   -3.56 KCAL/MOL
REMARK 922        TOTAL FREE ENERGY PREDICTED BY IDOCK:   -4.33 KCAL/MOL
REMARK 923 INTER-LIGAND FREE ENERGY PREDICTED BY IDOCK:   -4.43 KCAL/MOL
REMARK 924 INTRA-LIGAND FREE ENERGY PREDICTED BY IDOCK:    0.10 KCAL/MOL
REMARK 927      BINDING AFFINITY PREDICTED BY RF-SCORE:    0.00 PKD
ROOT
HETATM    1 CL   UNL     1      -9.839  13.093  67.024  1.00  0.00    -0.238 Cl 
HETATM    2  C   UNL     1     -10.724  12.821  68.475  1.00  0.00    -0.253 C  
HETATM    3  C   UNL     1     -11.096  11.606  68.924  1.00  0.00    -0.232 C  
HETATM    4  C   UNL     1     -11.109  14.026  69.270  1.00  0.00    -0.232 C  
HETATM    5  N   UNL     1     -11.856  11.519  70.076  1.00  0.00    -0.335 N  
HETATM    6  C   UNL     1     -12.312  12.577  70.801  1.00  0.00    -0.286 C  
HETATM    7  O   UNL     1     -10.720  15.158  68.998  1.00  0.00    -0.222 OA 
HETATM    8  H   UNL     1     -12.095  10.586  70.409  1.00  0.00     0.000 HD 
HETATM    9  O   UNL     1     -13.012  12.453  71.800  1.00  0.00    -0.380 OA 
HETATM   10  N   UNL     1     -11.938  13.805  70.338  1.00  0.00    -0.423 N  
HETATM   11  H   UNL     1     -12.304  14.622  70.825  1.00  0.00     0.000 HD 
ENDROOT
BRANCH   3  12
HETATM   12  C   UNL     1     -10.820  10.293  68.217  1.00  0.00    -0.255 C  
BRANCH  12  13
HETATM   13  N   UNL     1     -10.086   9.354  69.065  1.00  0.00    -0.187 NA 
HETATM   14  C   UNL     1     -10.559   8.592  71.228  1.00  0.00    -0.296 C  
HETATM   15  C   UNL     1      -9.112   9.079  71.224  1.00  0.00    -0.302 C  
HETATM   16  C   UNL     1     -10.856   8.318  69.756  1.00  0.00    -0.185 C  
HETATM   17  C   UNL     1      -9.059   9.775  69.883  1.00  0.00    -0.229 C  
HETATM   18  N   UNL     1      -8.159  10.647  69.586  1.00  0.00    -0.376 NA 
HETATM   19  H2  UNL     1      -8.210  11.065  68.657  1.00  0.00     0.000 HD 
HETATM   20  H1  UNL     1      -7.399  10.959  70.191  1.00  0.00     0.000 HD 
ENDBRANCH  12  13
ENDBRANCH   3  12
TORSDOF 2
ENDMDL
MODEL      174
REMARK 921   NORMALIZED FREE ENERGY PREDICTED BY IDOCK:   -3.55 KCAL/MOL
REMARK 922        TOTAL FREE ENERGY PREDICTED BY IDOCK:   -4.31 KCAL/MOL
REMARK 923 INTER-LIGAND FREE ENERGY PREDICTED BY IDOCK:   -4.28 KCAL/MOL
REMARK 924 INTRA-LIGAND FREE ENERGY PREDICTED BY IDOCK:   -0.03 KCAL/MOL
REMARK 927      BINDING AFFINITY PREDICTED BY RF-SCORE:    0.00 PKD
ROOT
HETATM    1 CL   UNL     1      -7.756  18.447  69.134  1.00  0.00    -0.141 Cl 
HETATM    2  C   UNL     1      -8.957  18.838  67.965  1.00  0.00    -0.299 C  
HETATM    3  C   UNL     1     -10.163  18.243  67.884  1.00  0.00    -0.384 C  
HETATM    4  C   UNL     1      -8.616  19.900  66.972  1.00  0.00    -0.330 C  
HETATM    5  N   UNL     1     -11.023  18.604  66.863  1.00  0.00    -0.169 N  
HETATM    6  C   UNL     1     -10.744  19.501  65.877  1.00  0.00    -0.420 C  
HETATM    7  O   UNL     1      -7.589  20.570  67.038  1.00  0.00    -0.304 OA 
HETATM    8  H   UNL     1     -11.941  18.161  66.846  1.00  0.00     0.000 HD 
HETATM    9  O   UNL     1     -11.526  19.765  64.971  1.00  0.00     0.078 OA 
HETATM   10  N   UNL     1      -9.518  20.094  65.961  1.00  0.00    -0.603 N  
HETATM   11  H   UNL     1      -9.253  20.733  65.211  1.00  0.00     0.000 HD 
ENDROOT
BRANCH   3  12
HETATM   12  C   UNL     1     -10.646  17.124  68.786  1.00  0.00    -0.336 C  
BRANCH  12  13
HETATM   13  N   UNL     1     -10.181  15.812  68.336  1.00  0.00    -0.220 NA 
HETATM   14  C   UNL     1      -8.003  14.975  68.132  1.00  0.00    -0.131 C  
HETATM   15  C   UNL     1      -8.715  14.721  66.805  1.00  0.00    -0.255 C  
HETATM   16  C   UNL     1      -9.146  15.149  69.131  1.00  0.00    -0.215 C  
HETATM   17  C   UNL     1      -9.966  15.546  67.001  1.00  0.00    -0.239 C  
HETATM   18  N   UNL     1     -10.705  15.933  66.019  1.00  0.00    -0.311 NA 
HETATM   19  H2  UNL     1     -11.527  16.490  66.253  1.00  0.00     0.000 HD 
HETATM   20  H1  UNL     1     -10.545  15.736  65.031  1.00  0.00     0.000 HD 
ENDBRANCH  12  13
ENDBRANCH   3  12
TORSDOF 2
ENDMDL
MODEL      175
REMARK 921   NORMALIZED FREE ENERGY PREDICTED BY IDOCK:   -3.55 KCAL/MOL
REMARK 922        TOTAL FREE ENERGY PREDICTED BY IDOCK:   -4.30 KCAL/MOL
REMARK 923 INTER-LIGAND FREE ENERGY PREDICTED BY IDOCK:   -3.93 KCAL/MOL
REMARK 924 INTRA-LIGAND FREE ENERGY PREDICTED BY IDOCK:   -0.37 KCAL/MOL
REMARK 927      BINDING AFFINITY PREDICTED BY RF-SCORE:    0.00 PKD
ROOT
HETATM    1 CL   UNL     1      -9.302   9.932  70.036  1.00  0.00    -0.259 Cl 
HETATM    2  C   UNL     1      -9.681   8.686  68.910  1.00  0.00    -0.170 C  
HETATM    3  C   UNL     1      -9.148   8.587  67.677  1.00  0.00    -0.135 C  
HETATM    4  C   UNL     1     -10.681   7.664  69.342  1.00  0.00    -0.184 C  
HETATM    5  N   UNL     1      -9.576   7.572  66.840  1.00  0.00    -0.175 N  
HETATM    6  C   UNL     1     -10.541   6.660  67.137  1.00  0.00    -0.331 C  
HETATM    7  O   UNL     1     -11.132   7.612  70.482  1.00  0.00    -0.251 OA 
HETATM    8  H   UNL     1      -9.132   7.502  65.925  1.00  0.00     0.000 HD 
HETATM    9  O   UNL     1     -10.912   5.796  66.350  1.00  0.00    -0.206 OA 
HETATM   10  N   UNL     1     -11.082   6.770  68.386  1.00  0.00    -0.505 N  
HETATM   11  H   UNL     1     -11.845   6.137  68.625  1.00  0.00     0.000 HD 
ENDROOT
BRANCH   3  12
HETATM   12  C   UNL     1      -8.155   9.562  67.074  1.00  0.00    -0.113 C  
BRANCH  12  13
HETATM   13  N   UNL     1      -8.816  10.627  66.319  1.00  0.00    -0.156 NA 
HETATM   14  C   UNL     1     -10.880  11.672  66.681  1.00  0.00    -0.327 C  
HETATM   15  C   UNL     1     -10.848  11.221  65.223  1.00  0.00    -0.261 C  
HETATM   16  C   UNL     1      -9.406  11.732  67.077  1.00  0.00    -0.184 C  
HETATM   17  C   UNL     1      -9.615  10.347  65.232  1.00  0.00    -0.259 C  
HETATM   18  N   UNL     1      -9.383   9.462  64.324  1.00  0.00    -0.415 NA 
HETATM   19  H2  UNL     1      -8.525   8.918  64.420  1.00  0.00     0.000 HD 
HETATM   20  H1  UNL     1      -9.974   9.255  63.519  1.00  0.00     0.000 HD 
ENDBRANCH  12  13
ENDBRANCH   3  12
TORSDOF 2
ENDMDL
MODEL      176
REMARK 921   NORMALIZED FREE ENERGY PREDICTED BY IDOCK:   -3.54 KCAL/MOL
REMARK 922        TOTAL FREE ENERGY PREDICTED BY IDOCK:   -4.30 KCAL/MOL
REMARK 923 INTER-LIGAND FREE ENERGY PREDICTED BY IDOCK:   -3.84 KCAL/MOL
REMARK 924 INTRA-LIGAND FREE ENERGY PREDICTED BY IDOCK:   -0.47 KCAL/MOL
REMARK 927      BINDING AFFINITY PREDICTED BY RF-SCORE:    0.00 PKD
ROOT
HETATM    1 CL   UNL     1      -7.491   7.756  69.261  1.00  0.00    -0.091 Cl 
HETATM    2  C   UNL     1      -8.407   8.566  68.050  1.00  0.00    -0.127 C  
HETATM    3  C   UNL     1      -9.751   8.648  68.039  1.00  0.00    -0.158 C  
HETATM    4  C   UNL     1      -7.642   9.202  66.935  1.00  0.00    -0.091 C  
HETATM    5  N   UNL     1     -10.377   9.277  66.979  1.00  0.00    -0.256 N  
HETATM    6  C   UNL     1      -9.749   9.804  65.892  1.00  0.00    -0.266 C  
HETATM    7  O   UNL     1      -6.417   9.273  66.921  1.00  0.00    -0.065 OA 
HETATM    8  H   UNL     1     -11.393   9.353  67.014  1.00  0.00     0.000 HD 
HETATM    9  O   UNL     1     -10.349  10.324  64.958  1.00  0.00    -0.288 OA 
HETATM   10  N   UNL     1      -8.387   9.711  65.905  1.00  0.00    -0.118 N  
HETATM   11  H   UNL     1      -7.885  10.047  65.084  1.00  0.00     0.000 HD 
ENDROOT
BRANCH   3  12
HETATM   12  C   UNL     1     -10.671   8.024  69.070  1.00  0.00    -0.088 C  
BRANCH  12  13
HETATM   13  N   UNL     1     -10.869   8.892  70.231  1.00  0.00    -0.235 NA 
HETATM   14  C   UNL     1     -12.065   8.514  72.209  1.00  0.00    -0.455 C  
HETATM   15  C   UNL     1     -12.532   9.853  71.643  1.00  0.00    -0.507 C  
HETATM   16  C   UNL     1     -10.699   8.300  71.559  1.00  0.00    -0.235 C  
HETATM   17  C   UNL     1     -11.895   9.812  70.273  1.00  0.00    -0.144 C  
HETATM   18  N   UNL     1     -12.294  10.552  69.298  1.00  0.00    -0.711 NA 
HETATM   19  H2  UNL     1     -11.804  10.448  68.409  1.00  0.00     0.000 HD 
HETATM   20  H1  UNL     1     -13.053  11.233  69.329  1.00  0.00     0.000 HD 
ENDBRANCH  12  13
ENDBRANCH   3  12
TORSDOF 2
ENDMDL
MODEL      177
REMARK 921   NORMALIZED FREE ENERGY PREDICTED BY IDOCK:   -3.54 KCAL/MOL
REMARK 922        TOTAL FREE ENERGY PREDICTED BY IDOCK:   -4.30 KCAL/MOL
REMARK 923 INTER-LIGAND FREE ENERGY PREDICTED BY IDOCK:   -4.27 KCAL/MOL
REMARK 924 INTRA-LIGAND FREE ENERGY PREDICTED BY IDOCK:   -0.03 KCAL/MOL
REMARK 927      BINDING AFFINITY PREDICTED BY RF-SCORE:    0.00 PKD
ROOT
HETATM    1 CL   UNL     1     -12.381  11.076  69.738  1.00  0.00    -0.367 Cl 
HETATM    2  C   UNL     1     -11.952  12.549  68.956  1.00  0.00    -0.233 C  
HETATM    3  C   UNL     1     -11.485  12.634  67.696  1.00  0.00    -0.334 C  
HETATM    4  C   UNL     1     -12.102  13.805  69.750  1.00  0.00    -0.340 C  
HETATM    5  N   UNL     1     -11.120  13.871  67.197  1.00  0.00    -0.294 N  
HETATM    6  C   UNL     1     -11.151  15.041  67.891  1.00  0.00    -0.307 C  
HETATM    7  O   UNL     1     -12.622  13.835  70.862  1.00  0.00    -0.336 OA 
HETATM    8  H   UNL     1     -10.801  13.909  66.229  1.00  0.00     0.000 HD 
HETATM    9  O   UNL     1     -10.785  16.111  67.418  1.00  0.00    -0.312 OA 
HETATM   10  N   UNL     1     -11.618  14.947  69.170  1.00  0.00    -0.290 N  
HETATM   11  H   UNL     1     -11.606  15.794  69.738  1.00  0.00     0.000 HD 
ENDROOT
BRANCH   3  12
HETATM   12  C   UNL     1     -11.239  11.454  66.775  1.00  0.00    -0.252 C  
BRANCH  12  13
HETATM   13  N   UNL     1      -9.891  10.905  66.930  1.00  0.00    -0.184 NA 
HETATM   14  C   UNL     1      -8.083  11.687  68.197  1.00  0.00    -0.148 C  
HETATM   15  C   UNL     1      -7.573  11.445  66.778  1.00  0.00    -0.143 C  
HETATM   16  C   UNL     1      -9.341  10.826  68.285  1.00  0.00    -0.161 C  
HETATM   17  C   UNL     1      -8.879  11.225  66.050  1.00  0.00    -0.184 C  
HETATM   18  N   UNL     1      -8.991  11.338  64.771  1.00  0.00    -0.387 NA 
HETATM   19  H2  UNL     1      -9.916  11.175  64.373  1.00  0.00     0.000 HD 
HETATM   20  H1  UNL     1      -8.242  11.575  64.120  1.00  0.00     0.000 HD 
ENDBRANCH  12  13
ENDBRANCH   3  12
TORSDOF 2
ENDMDL
MODEL      178
REMARK 921   NORMALIZED FREE ENERGY PREDICTED BY IDOCK:   -3.52 KCAL/MOL
REMARK 922        TOTAL FREE ENERGY PREDICTED BY IDOCK:   -4.28 KCAL/MOL
REMARK 923 INTER-LIGAND FREE ENERGY PREDICTED BY IDOCK:   -4.08 KCAL/MOL
REMARK 924 INTRA-LIGAND FREE ENERGY PREDICTED BY IDOCK:   -0.20 KCAL/MOL
REMARK 927      BINDING AFFINITY PREDICTED BY RF-SCORE:    0.00 PKD
ROOT
HETATM    1 CL   UNL     1      -8.450   7.894  72.450  1.00  0.00    -0.169 Cl 
HETATM    2  C   UNL     1     -10.085   8.299  72.093  1.00  0.00    -0.274 C  
HETATM    3  C   UNL     1     -10.464   9.146  71.118  1.00  0.00    -0.315 C  
HETATM    4  C   UNL     1     -11.140   7.669  72.944  1.00  0.00    -0.393 C  
HETATM    5  N   UNL     1     -11.808   9.437  70.965  1.00  0.00    -0.305 N  
HETATM    6  C   UNL     1     -12.811   8.965  71.756  1.00  0.00    -0.365 C  
HETATM    7  O   UNL     1     -10.894   6.804  73.780  1.00  0.00    -0.269 OA 
HETATM    8  H   UNL     1     -12.069  10.055  70.198  1.00  0.00     0.000 HD 
HETATM    9  O   UNL     1     -13.987   9.277  71.604  1.00  0.00    -0.328 OA 
HETATM   10  N   UNL     1     -12.419   8.113  72.747  1.00  0.00    -0.610 N  
HETATM   11  H   UNL     1     -13.136   7.781  73.392  1.00  0.00     0.000 HD 
ENDROOT
BRANCH   3  12
HETATM   12  C   UNL     1      -9.521   9.895  70.197  1.00  0.00    -0.163 C  
BRANCH  12  13
HETATM   13  N   UNL     1      -9.296   9.183  68.938  1.00  0.00    -0.145 NA 
HETATM   14  C   UNL     1     -10.355   7.281  68.074  1.00  0.00    -0.243 C  
HETATM   15  C   UNL     1      -8.850   7.035  68.005  1.00  0.00    -0.124 C  
HETATM   16  C   UNL     1     -10.473   8.802  68.155  1.00  0.00    -0.191 C  
HETATM   17  C   UNL     1      -8.343   8.194  68.833  1.00  0.00    -0.125 C  
HETATM   18  N   UNL     1      -7.166   8.212  69.359  1.00  0.00    -0.066 NA 
HETATM   19  H2  UNL     1      -6.918   9.036  69.905  1.00  0.00     0.000 HD 
HETATM   20  H1  UNL     1      -6.461   7.479  69.280  1.00  0.00     0.000 HD 
ENDBRANCH  12  13
ENDBRANCH   3  12
TORSDOF 2
ENDMDL
MODEL      179
REMARK 921   NORMALIZED FREE ENERGY PREDICTED BY IDOCK:   -3.52 KCAL/MOL
REMARK 922        TOTAL FREE ENERGY PREDICTED BY IDOCK:   -4.28 KCAL/MOL
REMARK 923 INTER-LIGAND FREE ENERGY PREDICTED BY IDOCK:   -3.85 KCAL/MOL
REMARK 924 INTRA-LIGAND FREE ENERGY PREDICTED BY IDOCK:   -0.43 KCAL/MOL
REMARK 927      BINDING AFFINITY PREDICTED BY RF-SCORE:    0.00 PKD
ROOT
HETATM    1 CL   UNL     1      -6.512   8.827  67.611  1.00  0.00    -0.060 Cl 
HETATM    2  C   UNL     1      -8.045   8.145  67.995  1.00  0.00    -0.128 C  
HETATM    3  C   UNL     1      -9.164   8.862  68.215  1.00  0.00    -0.140 C  
HETATM    4  C   UNL     1      -8.117   6.656  68.102  1.00  0.00    -0.111 C  
HETATM    5  N   UNL     1     -10.325   8.202  68.574  1.00  0.00    -0.220 N  
HETATM    6  C   UNL     1     -10.440   6.859  68.770  1.00  0.00    -0.205 C  
HETATM    7  O   UNL     1      -7.178   5.920  67.811  1.00  0.00    -0.072 OA 
HETATM    8  H   UNL     1     -11.164   8.767  68.702  1.00  0.00     0.000 HD 
HETATM    9  O   UNL     1     -11.484   6.321  69.121  1.00  0.00    -0.394 OA 
HETATM   10  N   UNL     1      -9.301   6.140  68.553  1.00  0.00    -0.118 N  
HETATM   11  H   UNL     1      -9.336   5.138  68.741  1.00  0.00     0.000 HD 
ENDROOT
BRANCH   3  12
HETATM   12  C   UNL     1      -9.250  10.375  68.185  1.00  0.00    -0.145 C  
BRANCH  12  13
HETATM   13  N   UNL     1     -10.172  10.855  67.155  1.00  0.00    -0.201 NA 
HETATM   14  C   UNL     1     -10.267  12.926  66.065  1.00  0.00    -0.293 C  
HETATM   15  C   UNL     1     -11.667  12.627  66.596  1.00  0.00    -0.464 C  
HETATM   16  C   UNL     1      -9.599  11.554  66.002  1.00  0.00    -0.228 C  
HETATM   17  C   UNL     1     -11.377  11.439  67.485  1.00  0.00    -0.292 C  
HETATM   18  N   UNL     1     -12.175  11.059  68.421  1.00  0.00    -0.780 NA 
HETATM   19  H2  UNL     1     -11.889  10.248  68.971  1.00  0.00     0.000 HD 
HETATM   20  H1  UNL     1     -13.067  11.491  68.665  1.00  0.00     0.000 HD 
ENDBRANCH  12  13
ENDBRANCH   3  12
TORSDOF 2
ENDMDL
MODEL      180
REMARK 921   NORMALIZED FREE ENERGY PREDICTED BY IDOCK:   -3.52 KCAL/MOL
REMARK 922        TOTAL FREE ENERGY PREDICTED BY IDOCK:   -4.28 KCAL/MOL
REMARK 923 INTER-LIGAND FREE ENERGY PREDICTED BY IDOCK:   -4.49 KCAL/MOL
REMARK 924 INTRA-LIGAND FREE ENERGY PREDICTED BY IDOCK:    0.21 KCAL/MOL
REMARK 927      BINDING AFFINITY PREDICTED BY RF-SCORE:    0.00 PKD
ROOT
HETATM    1 CL   UNL     1      -9.700  10.390  69.312  1.00  0.00    -0.230 Cl 
HETATM    2  C   UNL     1     -10.989   9.996  70.382  1.00  0.00    -0.320 C  
HETATM    3  C   UNL     1     -10.851   9.264  71.505  1.00  0.00    -0.372 C  
HETATM    4  C   UNL     1     -12.349  10.496  70.018  1.00  0.00    -0.219 C  
HETATM    5  N   UNL     1     -11.974   8.965  72.254  1.00  0.00    -0.341 N  
HETATM    6  C   UNL     1     -13.250   9.316  71.937  1.00  0.00    -0.423 C  
HETATM    7  O   UNL     1     -12.550  11.260  69.078  1.00  0.00    -0.332 OA 
HETATM    8  H   UNL     1     -11.834   8.437  73.116  1.00  0.00     0.000 HD 
HETATM    9  O   UNL     1     -14.221   8.999  72.616  1.00  0.00    -0.574 OA 
HETATM   10  N   UNL     1     -13.385  10.051  70.795  1.00  0.00    -0.578 N  
HETATM   11  H   UNL     1     -14.331  10.287  70.497  1.00  0.00     0.000 HD 
ENDROOT
BRANCH   3  12
HETATM   12  C   UNL     1      -9.552   8.652  71.992  1.00  0.00    -0.314 C  
BRANCH  12  13
HETATM   13  N   UNL     1      -8.655   8.309  70.887  1.00  0.00    -0.129 NA 
HETATM   14  C   UNL     1      -7.444   6.345  70.484  1.00  0.00    -0.091 C  
HETATM   15  C   UNL     1      -6.467   7.513  70.372  1.00  0.00    -0.038 C  
HETATM   16  C   UNL     1      -8.812   6.991  70.269  1.00  0.00    -0.148 C  
HETATM   17  C   UNL     1      -7.316   8.637  70.921  1.00  0.00    -0.077 C  
HETATM   18  N   UNL     1      -6.814   9.739  71.359  1.00  0.00    -0.303 NA 
HETATM   19  H2  UNL     1      -7.469  10.436  71.715  1.00  0.00     0.000 HD 
HETATM   20  H1  UNL     1      -5.823   9.981  71.384  1.00  0.00     0.000 HD 
ENDBRANCH  12  13
ENDBRANCH   3  12
TORSDOF 2
ENDMDL
MODEL      181
REMARK 921   NORMALIZED FREE ENERGY PREDICTED BY IDOCK:   -3.52 KCAL/MOL
REMARK 922        TOTAL FREE ENERGY PREDICTED BY IDOCK:   -4.27 KCAL/MOL
REMARK 923 INTER-LIGAND FREE ENERGY PREDICTED BY IDOCK:   -3.92 KCAL/MOL
REMARK 924 INTRA-LIGAND FREE ENERGY PREDICTED BY IDOCK:   -0.35 KCAL/MOL
REMARK 927      BINDING AFFINITY PREDICTED BY RF-SCORE:    0.00 PKD
ROOT
HETATM    1 CL   UNL     1     -10.440   8.267  69.182  1.00  0.00    -0.228 Cl 
HETATM    2  C   UNL     1     -10.974   9.888  68.964  1.00  0.00    -0.190 C  
HETATM    3  C   UNL     1     -11.046  10.513  67.773  1.00  0.00    -0.317 C  
HETATM    4  C   UNL     1     -11.367  10.643  70.193  1.00  0.00    -0.323 C  
HETATM    5  N   UNL     1     -11.437  11.839  67.732  1.00  0.00    -0.302 N  
HETATM    6  C   UNL     1     -11.727  12.609  68.817  1.00  0.00    -0.323 C  
HETATM    7  O   UNL     1     -11.438  10.122  71.302  1.00  0.00    -0.353 OA 
HETATM    8  H   UNL     1     -11.514  12.276  66.814  1.00  0.00     0.000 HD 
HETATM    9  O   UNL     1     -12.037  13.792  68.735  1.00  0.00    -0.357 OA 
HETATM   10  N   UNL     1     -11.645  11.972  70.021  1.00  0.00    -0.510 N  
HETATM   11  H   UNL     1     -11.804  12.531  70.860  1.00  0.00     0.000 HD 
ENDROOT
BRANCH   3  12
HETATM   12  C   UNL     1     -10.648   9.903  66.443  1.00  0.00    -0.056 C  
BRANCH  12  13
HETATM   13  N   UNL     1      -9.513  10.598  65.835  1.00  0.00    -0.187 NA 
HETATM   14  C   UNL     1      -8.644  10.451  63.665  1.00  0.00    -0.186 C  
HETATM   15  C   UNL     1      -7.480  10.261  64.635  1.00  0.00    -0.093 C  
HETATM   16  C   UNL     1      -9.701  11.170  64.501  1.00  0.00    -0.265 C  
HETATM   17  C   UNL     1      -8.230  10.103  65.938  1.00  0.00    -0.138 C  
HETATM   18  N   UNL     1      -7.703   9.566  66.984  1.00  0.00    -0.091 NA 
HETATM   19  H2  UNL     1      -8.291   9.500  67.815  1.00  0.00     0.000 HD 
HETATM   20  H1  UNL     1      -6.754   9.201  67.060  1.00  0.00     0.000 HD 
ENDBRANCH  12  13
ENDBRANCH   3  12
TORSDOF 2
ENDMDL
MODEL      182
REMARK 921   NORMALIZED FREE ENERGY PREDICTED BY IDOCK:   -3.51 KCAL/MOL
REMARK 922        TOTAL FREE ENERGY PREDICTED BY IDOCK:   -4.26 KCAL/MOL
REMARK 923 INTER-LIGAND FREE ENERGY PREDICTED BY IDOCK:   -3.93 KCAL/MOL
REMARK 924 INTRA-LIGAND FREE ENERGY PREDICTED BY IDOCK:   -0.33 KCAL/MOL
REMARK 927      BINDING AFFINITY PREDICTED BY RF-SCORE:    0.00 PKD
ROOT
HETATM    1 CL   UNL     1     -10.305  13.870  66.603  1.00  0.00    -0.275 Cl 
HETATM    2  C   UNL     1     -10.968  13.043  67.959  1.00  0.00    -0.250 C  
HETATM    3  C   UNL     1     -11.312  11.741  67.963  1.00  0.00    -0.288 C  
HETATM    4  C   UNL     1     -11.183  13.844  69.202  1.00  0.00    -0.269 C  
HETATM    5  N   UNL     1     -11.890  11.202  69.098  1.00  0.00    -0.328 N  
HETATM    6  C   UNL     1     -12.191  11.892  70.233  1.00  0.00    -0.271 C  
HETATM    7  O   UNL     1     -10.798  15.003  69.324  1.00  0.00    -0.241 OA 
HETATM    8  H   UNL     1     -12.110  10.206  69.084  1.00  0.00     0.000 HD 
HETATM    9  O   UNL     1     -12.735  11.379  71.204  1.00  0.00    -0.392 OA 
HETATM   10  N   UNL     1     -11.847  13.212  70.219  1.00  0.00    -0.525 N  
HETATM   11  H   UNL     1     -12.104  13.773  71.031  1.00  0.00     0.000 HD 
ENDROOT
BRANCH   3  12
HETATM   12  C   UNL     1     -11.195  10.804  66.776  1.00  0.00     0.025 C  
BRANCH  12  13
HETATM   13  N   UNL     1      -9.856  10.226  66.659  1.00  0.00    -0.196 NA 
HETATM   14  C   UNL     1      -7.920  10.643  67.909  1.00  0.00    -0.106 C  
HETATM   15  C   UNL     1      -7.546  10.772  66.434  1.00  0.00    -0.141 C  
HETATM   16  C   UNL     1      -9.191   9.796  67.891  1.00  0.00    -0.124 C  
HETATM   17  C   UNL     1      -8.918  10.756  65.799  1.00  0.00    -0.187 C  
HETATM   18  N   UNL     1      -9.139  11.196  64.609  1.00  0.00    -0.362 NA 
HETATM   19  H2  UNL     1     -10.100  11.147  64.270  1.00  0.00     0.000 HD 
HETATM   20  H1  UNL     1      -8.444  11.588  63.973  1.00  0.00     0.000 HD 
ENDBRANCH  12  13
ENDBRANCH   3  12
TORSDOF 2
ENDMDL
MODEL      183
REMARK 921   NORMALIZED FREE ENERGY PREDICTED BY IDOCK:   -3.48 KCAL/MOL
REMARK 922        TOTAL FREE ENERGY PREDICTED BY IDOCK:   -4.23 KCAL/MOL
REMARK 923 INTER-LIGAND FREE ENERGY PREDICTED BY IDOCK:   -4.20 KCAL/MOL
REMARK 924 INTRA-LIGAND FREE ENERGY PREDICTED BY IDOCK:   -0.03 KCAL/MOL
REMARK 927      BINDING AFFINITY PREDICTED BY RF-SCORE:    0.00 PKD
ROOT
HETATM    1 CL   UNL     1      -8.540   8.938  68.904  1.00  0.00    -0.134 Cl 
HETATM    2  C   UNL     1      -9.886   8.173  69.657  1.00  0.00    -0.184 C  
HETATM    3  C   UNL     1     -10.105   6.844  69.657  1.00  0.00    -0.184 C  
HETATM    4  C   UNL     1     -10.875   9.061  70.340  1.00  0.00    -0.246 C  
HETATM    5  N   UNL     1     -11.255   6.353  70.247  1.00  0.00    -0.351 N  
HETATM    6  C   UNL     1     -12.236   7.109  70.812  1.00  0.00    -0.264 C  
HETATM    7  O   UNL     1     -10.699  10.267  70.486  1.00  0.00    -0.283 OA 
HETATM    8  H   UNL     1     -11.379   5.341  70.261  1.00  0.00     0.000 HD 
HETATM    9  O   UNL     1     -13.256   6.631  71.295  1.00  0.00    -0.143 OA 
HETATM   10  N   UNL     1     -12.011   8.455  70.803  1.00  0.00    -0.469 N  
HETATM   11  H   UNL     1     -12.748   9.057  71.170  1.00  0.00     0.000 HD 
ENDROOT
BRANCH   3  12
HETATM   12  C   UNL     1      -9.223   5.815  68.977  1.00  0.00    -0.119 C  
BRANCH  12  13
HETATM   13  N   UNL     1      -9.987   4.928  68.098  1.00  0.00    -0.135 NA 
HETATM   14  C   UNL     1      -9.288   3.676  66.246  1.00  0.00    -0.187 C  
HETATM   15  C   UNL     1     -10.512   4.481  65.815  1.00  0.00    -0.268 C  
HETATM   16  C   UNL     1      -9.400   3.628  67.769  1.00  0.00    -0.194 C  
HETATM   17  C   UNL     1     -10.658   5.413  66.996  1.00  0.00    -0.226 C  
HETATM   18  N   UNL     1     -11.328   6.513  66.936  1.00  0.00    -0.817 NA 
HETATM   19  H2  UNL     1     -11.364   7.077  67.785  1.00  0.00     0.000 HD 
HETATM   20  H1  UNL     1     -11.825   6.871  66.120  1.00  0.00     0.000 HD 
ENDBRANCH  12  13
ENDBRANCH   3  12
TORSDOF 2
ENDMDL
MODEL      184
REMARK 921   NORMALIZED FREE ENERGY PREDICTED BY IDOCK:   -3.46 KCAL/MOL
REMARK 922        TOTAL FREE ENERGY PREDICTED BY IDOCK:   -4.21 KCAL/MOL
REMARK 923 INTER-LIGAND FREE ENERGY PREDICTED BY IDOCK:   -3.74 KCAL/MOL
REMARK 924 INTRA-LIGAND FREE ENERGY PREDICTED BY IDOCK:   -0.47 KCAL/MOL
REMARK 927      BINDING AFFINITY PREDICTED BY RF-SCORE:    0.00 PKD
ROOT
HETATM    1 CL   UNL     1     -10.120   4.909  69.846  1.00  0.00    -0.327 Cl 
HETATM    2  C   UNL     1     -10.030   4.684  68.142  1.00  0.00    -0.060 C  
HETATM    3  C   UNL     1     -10.475   5.572  67.232  1.00  0.00    -0.236 C  
HETATM    4  C   UNL     1      -9.429   3.405  67.657  1.00  0.00    -0.181 C  
HETATM    5  N   UNL     1     -10.400   5.253  65.889  1.00  0.00    -0.444 N  
HETATM    6  C   UNL     1      -9.943   4.075  65.383  1.00  0.00    -0.179 C  
HETATM    7  O   UNL     1      -8.899   2.590  68.408  1.00  0.00    -0.083 OA 
HETATM    8  H   UNL     1     -10.714   5.958  65.222  1.00  0.00     0.000 HD 
HETATM    9  O   UNL     1      -9.926   3.822  64.183  1.00  0.00    -0.168 OA 
HETATM   10  N   UNL     1      -9.501   3.176  66.310  1.00  0.00    -0.370 N  
HETATM   11  H   UNL     1      -9.200   2.262  65.972  1.00  0.00     0.000 HD 
ENDROOT
BRANCH   3  12
HETATM   12  C   UNL     1     -11.144   6.894  67.558  1.00  0.00    -0.213 C  
BRANCH  12  13
HETATM   13  N   UNL     1     -10.172   7.963  67.789  1.00  0.00    -0.202 NA 
HETATM   14  C   UNL     1     -10.480  10.119  68.650  1.00  0.00    -0.225 C  
HETATM   15  C   UNL     1      -9.706  10.258  67.341  1.00  0.00    -0.189 C  
HETATM   16  C   UNL     1     -10.232   8.671  69.069  1.00  0.00    -0.207 C  
HETATM   17  C   UNL     1      -9.837   8.855  66.793  1.00  0.00    -0.241 C  
HETATM   18  N   UNL     1      -9.655   8.574  65.549  1.00  0.00    -0.415 NA 
HETATM   19  H2  UNL     1      -9.771   7.599  65.275  1.00  0.00     0.000 HD 
HETATM   20  H1  UNL     1      -9.407   9.235  64.812  1.00  0.00     0.000 HD 
ENDBRANCH  12  13
ENDBRANCH   3  12
TORSDOF 2
ENDMDL
MODEL      185
REMARK 921   NORMALIZED FREE ENERGY PREDICTED BY IDOCK:   -3.46 KCAL/MOL
REMARK 922        TOTAL FREE ENERGY PREDICTED BY IDOCK:   -4.20 KCAL/MOL
REMARK 923 INTER-LIGAND FREE ENERGY PREDICTED BY IDOCK:   -3.87 KCAL/MOL
REMARK 924 INTRA-LIGAND FREE ENERGY PREDICTED BY IDOCK:   -0.34 KCAL/MOL
REMARK 927      BINDING AFFINITY PREDICTED BY RF-SCORE:    0.00 PKD
ROOT
HETATM    1 CL   UNL     1     -10.525   8.881  72.137  1.00  0.00    -0.387 Cl 
HETATM    2  C   UNL     1     -10.183   7.396  71.337  1.00  0.00    -0.187 C  
HETATM    3  C   UNL     1      -9.583   7.299  70.135  1.00  0.00    -0.168 C  
HETATM    4  C   UNL     1     -10.600   6.140  72.032  1.00  0.00    -0.218 C  
HETATM    5  N   UNL     1      -9.414   6.049  69.567  1.00  0.00    -0.138 N  
HETATM    6  C   UNL     1      -9.844   4.874  70.105  1.00  0.00    -0.239 C  
HETATM    7  O   UNL     1     -11.049   6.128  73.174  1.00  0.00    -0.248 OA 
HETATM    8  H   UNL     1      -8.928   6.003  68.672  1.00  0.00     0.000 HD 
HETATM    9  O   UNL     1      -9.701   3.791  69.549  1.00  0.00    -0.189 OA 
HETATM   10  N   UNL     1     -10.457   4.980  71.320  1.00  0.00    -0.183 N  
HETATM   11  H   UNL     1     -10.838   4.128  71.729  1.00  0.00     0.000 HD 
ENDROOT
BRANCH   3  12
HETATM   12  C   UNL     1      -9.138   8.473  69.285  1.00  0.00    -0.153 C  
BRANCH  12  13
HETATM   13  N   UNL     1     -10.231   9.016  68.478  1.00  0.00    -0.195 NA 
HETATM   14  C   UNL     1     -10.227   9.808  66.274  1.00  0.00    -0.282 C  
HETATM   15  C   UNL     1     -10.883  10.880  67.141  1.00  0.00    -0.337 C  
HETATM   16  C   UNL     1     -10.365   8.532  67.102  1.00  0.00    -0.307 C  
HETATM   17  C   UNL     1     -10.559  10.354  68.521  1.00  0.00    -0.209 C  
HETATM   18  N   UNL     1     -10.592  11.096  69.573  1.00  0.00    -0.430 NA 
HETATM   19  H2  UNL     1     -10.353  10.651  70.459  1.00  0.00     0.000 HD 
HETATM   20  H1  UNL     1     -10.836  12.086  69.605  1.00  0.00     0.000 HD 
ENDBRANCH  12  13
ENDBRANCH   3  12
TORSDOF 2
ENDMDL
MODEL      186
REMARK 921   NORMALIZED FREE ENERGY PREDICTED BY IDOCK:   -3.45 KCAL/MOL
REMARK 922        TOTAL FREE ENERGY PREDICTED BY IDOCK:   -4.20 KCAL/MOL
REMARK 923 INTER-LIGAND FREE ENERGY PREDICTED BY IDOCK:   -3.88 KCAL/MOL
REMARK 924 INTRA-LIGAND FREE ENERGY PREDICTED BY IDOCK:   -0.32 KCAL/MOL
REMARK 927      BINDING AFFINITY PREDICTED BY RF-SCORE:    0.00 PKD
ROOT
HETATM    1 CL   UNL     1      -7.916   8.449  68.357  1.00  0.00    -0.117 Cl 
HETATM    2  C   UNL     1      -9.284   9.065  69.201  1.00  0.00    -0.144 C  
HETATM    3  C   UNL     1      -9.673  10.354  69.180  1.00  0.00    -0.220 C  
HETATM    4  C   UNL     1     -10.072   8.092  70.017  1.00  0.00    -0.196 C  
HETATM    5  N   UNL     1     -10.758  10.741  69.947  1.00  0.00    -0.443 N  
HETATM    6  C   UNL     1     -11.467   9.926  70.776  1.00  0.00    -0.354 C  
HETATM    7  O   UNL     1      -9.857   6.884  70.005  1.00  0.00    -0.173 OA 
HETATM    8  H   UNL     1     -11.050  11.716  69.886  1.00  0.00     0.000 HD 
HETATM    9  O   UNL     1     -12.402  10.321  71.463  1.00  0.00    -0.375 OA 
HETATM   10  N   UNL     1     -11.063   8.623  70.797  1.00  0.00    -0.250 N  
HETATM   11  H   UNL     1     -11.537   7.995  71.446  1.00  0.00     0.000 HD 
ENDROOT
BRANCH   3  12
HETATM   12  C   UNL     1      -8.962  11.469  68.438  1.00  0.00    -0.173 C  
BRANCH  12  13
HETATM   13  N   UNL     1      -9.241  11.441  67.001  1.00  0.00    -0.166 NA 
HETATM   14  C   UNL     1     -10.131   9.730  65.673  1.00  0.00    -0.282 C  
HETATM   15  C   UNL     1      -8.849  10.210  64.997  1.00  0.00    -0.205 C  
HETATM   16  C   UNL     1     -10.531  10.899  66.570  1.00  0.00    -0.253 C  
HETATM   17  C   UNL     1      -8.272  11.082  66.089  1.00  0.00    -0.155 C  
HETATM   18  N   UNL     1      -7.029  11.419  66.127  1.00  0.00    -0.371 NA 
HETATM   19  H2  UNL     1      -6.734  12.007  66.907  1.00  0.00     0.000 HD 
HETATM   20  H1  UNL     1      -6.313  11.154  65.451  1.00  0.00     0.000 HD 
ENDBRANCH  12  13
ENDBRANCH   3  12
TORSDOF 2
ENDMDL
MODEL      187
REMARK 921   NORMALIZED FREE ENERGY PREDICTED BY IDOCK:   -3.43 KCAL/MOL
REMARK 922        TOTAL FREE ENERGY PREDICTED BY IDOCK:   -4.17 KCAL/MOL
REMARK 923 INTER-LIGAND FREE ENERGY PREDICTED BY IDOCK:   -3.98 KCAL/MOL
REMARK 924 INTRA-LIGAND FREE ENERGY PREDICTED BY IDOCK:   -0.19 KCAL/MOL
REMARK 927      BINDING AFFINITY PREDICTED BY RF-SCORE:    0.00 PKD
ROOT
HETATM    1 CL   UNL     1     -10.000  12.527  66.843  1.00  0.00    -0.222 Cl 
HETATM    2  C   UNL     1     -10.613  13.536  68.096  1.00  0.00    -0.245 C  
HETATM    3  C   UNL     1     -10.093  14.731  68.434  1.00  0.00    -0.225 C  
HETATM    4  C   UNL     1     -11.794  13.028  68.858  1.00  0.00    -0.316 C  
HETATM    5  N   UNL     1     -10.639  15.425  69.499  1.00  0.00    -0.250 N  
HETATM    6  C   UNL     1     -11.658  14.984  70.287  1.00  0.00    -0.288 C  
HETATM    7  O   UNL     1     -12.400  12.007  68.548  1.00  0.00    -0.246 OA 
HETATM    8  H   UNL     1     -10.246  16.341  69.711  1.00  0.00     0.000 HD 
HETATM    9  O   UNL     1     -12.088  15.620  71.243  1.00  0.00    -0.340 OA 
HETATM   10  N   UNL     1     -12.176  13.770  69.944  1.00  0.00    -0.331 N  
HETATM   11  H   UNL     1     -12.905  13.384  70.543  1.00  0.00     0.000 HD 
ENDROOT
BRANCH   3  12
HETATM   12  C   UNL     1      -8.877  15.367  67.789  1.00  0.00    -0.168 C  
BRANCH  12  13
HETATM   13  N   UNL     1      -8.090  16.147  68.745  1.00  0.00    -0.204 NA 
HETATM   14  C   UNL     1      -6.086  17.322  68.443  1.00  0.00    -0.151 C  
HETATM   15  C   UNL     1      -5.904  16.416  69.659  1.00  0.00    -0.180 C  
HETATM   16  C   UNL     1      -7.602  17.458  68.313  1.00  0.00    -0.234 C  
HETATM   17  C   UNL     1      -7.139  15.553  69.547  1.00  0.00    -0.195 C  
HETATM   18  N   UNL     1      -7.247  14.412  70.137  1.00  0.00    -0.383 NA 
HETATM   19  H2  UNL     1      -8.118  13.901  69.996  1.00  0.00     0.000 HD 
HETATM   20  H1  UNL     1      -6.543  13.972  70.730  1.00  0.00     0.000 HD 
ENDBRANCH  12  13
ENDBRANCH   3  12
TORSDOF 2
ENDMDL
MODEL      188
REMARK 921   NORMALIZED FREE ENERGY PREDICTED BY IDOCK:   -3.39 KCAL/MOL
REMARK 922        TOTAL FREE ENERGY PREDICTED BY IDOCK:   -4.13 KCAL/MOL
REMARK 923 INTER-LIGAND FREE ENERGY PREDICTED BY IDOCK:   -3.81 KCAL/MOL
REMARK 924 INTRA-LIGAND FREE ENERGY PREDICTED BY IDOCK:   -0.33 KCAL/MOL
REMARK 927      BINDING AFFINITY PREDICTED BY RF-SCORE:    0.00 PKD
ROOT
HETATM    1 CL   UNL     1     -10.813   7.401  73.564  1.00  0.00    -0.376 Cl 
HETATM    2  C   UNL     1     -10.826   6.916  71.912  1.00  0.00    -0.229 C  
HETATM    3  C   UNL     1      -9.746   6.479  71.238  1.00  0.00    -0.173 C  
HETATM    4  C   UNL     1     -12.132   7.007  71.190  1.00  0.00    -0.369 C  
HETATM    5  N   UNL     1      -9.870   6.172  69.895  1.00  0.00    -0.165 N  
HETATM    6  C   UNL     1     -11.006   6.311  69.157  1.00  0.00    -0.377 C  
HETATM    7  O   UNL     1     -13.187   7.287  71.752  1.00  0.00    -0.350 OA 
HETATM    8  H   UNL     1      -9.044   5.813  69.418  1.00  0.00     0.000 HD 
HETATM    9  O   UNL     1     -11.061   6.058  67.958  1.00  0.00    -0.304 OA 
HETATM   10  N   UNL     1     -12.095   6.762  69.844  1.00  0.00    -0.625 N  
HETATM   11  H   UNL     1     -12.950   6.928  69.313  1.00  0.00     0.000 HD 
ENDROOT
BRANCH   3  12
HETATM   12  C   UNL     1      -8.346   6.367  71.811  1.00  0.00    -0.120 C  
BRANCH  12  13
HETATM   13  N   UNL     1      -7.552   7.572  71.568  1.00  0.00    -0.083 NA 
HETATM   14  C   UNL     1      -5.248   7.815  71.231  1.00  0.00    -0.027 C  
HETATM   15  C   UNL     1      -5.654   8.800  72.325  1.00  0.00    -0.060 C  
HETATM   16  C   UNL     1      -6.555   7.525  70.497  1.00  0.00    -0.042 C  
HETATM   17  C   UNL     1      -7.062   8.330  72.610  1.00  0.00    -0.097 C  
HETATM   18  N   UNL     1      -7.685   8.619  73.700  1.00  0.00    -0.411 NA 
HETATM   19  H2  UNL     1      -8.631   8.252  73.802  1.00  0.00     0.000 HD 
HETATM   20  H1  UNL     1      -7.321   9.181  74.470  1.00  0.00     0.000 HD 
ENDBRANCH  12  13
ENDBRANCH   3  12
TORSDOF 2
ENDMDL
MODEL      189
REMARK 921   NORMALIZED FREE ENERGY PREDICTED BY IDOCK:   -3.39 KCAL/MOL
REMARK 922        TOTAL FREE ENERGY PREDICTED BY IDOCK:   -4.12 KCAL/MOL
REMARK 923 INTER-LIGAND FREE ENERGY PREDICTED BY IDOCK:   -3.67 KCAL/MOL
REMARK 924 INTRA-LIGAND FREE ENERGY PREDICTED BY IDOCK:   -0.46 KCAL/MOL
REMARK 927      BINDING AFFINITY PREDICTED BY RF-SCORE:    0.00 PKD
ROOT
HETATM    1 CL   UNL     1      -6.017  13.991  69.217  1.00  0.00    -0.090 Cl 
HETATM    2  C   UNL     1      -6.953  15.394  68.872  1.00  0.00    -0.127 C  
HETATM    3  C   UNL     1      -8.025  15.412  68.056  1.00  0.00    -0.130 C  
HETATM    4  C   UNL     1      -6.525  16.670  69.519  1.00  0.00    -0.224 C  
HETATM    5  N   UNL     1      -8.663  16.614  67.811  1.00  0.00    -0.199 N  
HETATM    6  C   UNL     1      -8.276  17.825  68.299  1.00  0.00    -0.285 C  
HETATM    7  O   UNL     1      -5.633  16.726  70.360  1.00  0.00    -0.209 OA 
HETATM    8  H   UNL     1      -9.490  16.592  67.216  1.00  0.00     0.000 HD 
HETATM    9  O   UNL     1      -8.854  18.872  68.028  1.00  0.00    -0.290 OA 
HETATM   10  N   UNL     1      -7.186  17.801  69.119  1.00  0.00    -0.200 N  
HETATM   11  H   UNL     1      -6.836  18.695  69.462  1.00  0.00     0.000 HD 
ENDROOT
BRANCH   3  12
HETATM   12  C   UNL     1      -8.562  14.216  67.294  1.00  0.00    -0.218 C  
BRANCH  12  13
HETATM   13  N   UNL     1      -9.826  13.730  67.849  1.00  0.00    -0.226 NA 
HETATM   14  C   UNL     1     -10.998  11.749  67.418  1.00  0.00    -0.314 C  
HETATM   15  C   UNL     1     -11.984  12.904  67.263  1.00  0.00    -0.371 C  
HETATM   16  C   UNL     1      -9.884  12.333  68.284  1.00  0.00    -0.217 C  
HETATM   17  C   UNL     1     -11.037  14.081  67.293  1.00  0.00    -0.302 C  
HETATM   18  N   UNL     1     -11.357  15.244  66.841  1.00  0.00    -0.267 NA 
HETATM   19  H2  UNL     1     -10.647  15.974  66.901  1.00  0.00     0.000 HD 
HETATM   20  H1  UNL     1     -12.254  15.504  66.429  1.00  0.00     0.000 HD 
ENDBRANCH  12  13
ENDBRANCH   3  12
TORSDOF 2
ENDMDL
MODEL      190
REMARK 921   NORMALIZED FREE ENERGY PREDICTED BY IDOCK:   -3.38 KCAL/MOL
REMARK 922        TOTAL FREE ENERGY PREDICTED BY IDOCK:   -4.12 KCAL/MOL
REMARK 923 INTER-LIGAND FREE ENERGY PREDICTED BY IDOCK:   -3.72 KCAL/MOL
REMARK 924 INTRA-LIGAND FREE ENERGY PREDICTED BY IDOCK:   -0.40 KCAL/MOL
REMARK 927      BINDING AFFINITY PREDICTED BY RF-SCORE:    0.00 PKD
ROOT
HETATM    1 CL   UNL     1      -9.345   9.925  63.283  1.00  0.00    -0.291 Cl 
HETATM    2  C   UNL     1     -10.067  10.584  64.700  1.00  0.00    -0.338 C  
HETATM    3  C   UNL     1      -9.879  10.105  65.944  1.00  0.00    -0.245 C  
HETATM    4  C   UNL     1     -10.971  11.759  64.515  1.00  0.00    -0.324 C  
HETATM    5  N   UNL     1     -10.560  10.685  66.999  1.00  0.00    -0.254 N  
HETATM    6  C   UNL     1     -11.460  11.701  66.891  1.00  0.00    -0.247 C  
HETATM    7  O   UNL     1     -11.113  12.330  63.438  1.00  0.00    -0.443 OA 
HETATM    8  H   UNL     1     -10.373  10.323  67.933  1.00  0.00     0.000 HD 
HETATM    9  O   UNL     1     -12.067  12.163  67.851  1.00  0.00    -0.502 OA 
HETATM   10  N   UNL     1     -11.652  12.178  65.627  1.00  0.00    -0.368 N  
HETATM   11  H   UNL     1     -12.358  12.903  65.500  1.00  0.00     0.000 HD 
ENDROOT
BRANCH   3  12
HETATM   12  C   UNL     1      -9.028   8.900  66.295  1.00  0.00    -0.170 C  
BRANCH  12  13
HETATM   13  N   UNL     1      -8.051   9.200  67.343  1.00  0.00    -0.107 NA 
HETATM   14  C   UNL     1      -6.156   8.004  68.023  1.00  0.00    -0.046 C  
HETATM   15  C   UNL     1      -6.978   8.304  69.275  1.00  0.00    -0.058 C  
HETATM   16  C   UNL     1      -6.633   9.047  67.014  1.00  0.00    -0.061 C  
HETATM   17  C   UNL     1      -8.257   8.810  68.650  1.00  0.00    -0.117 C  
HETATM   18  N   UNL     1      -9.376   8.850  69.288  1.00  0.00    -0.148 NA 
HETATM   19  H2  UNL     1     -10.186   9.204  68.778  1.00  0.00     0.000 HD 
HETATM   20  H1  UNL     1      -9.528   8.562  70.255  1.00  0.00     0.000 HD 
ENDBRANCH  12  13
ENDBRANCH   3  12
TORSDOF 2
ENDMDL
MODEL      191
REMARK 921   NORMALIZED FREE ENERGY PREDICTED BY IDOCK:   -3.38 KCAL/MOL
REMARK 922        TOTAL FREE ENERGY PREDICTED BY IDOCK:   -4.12 KCAL/MOL
REMARK 923 INTER-LIGAND FREE ENERGY PREDICTED BY IDOCK:   -3.76 KCAL/MOL
REMARK 924 INTRA-LIGAND FREE ENERGY PREDICTED BY IDOCK:   -0.36 KCAL/MOL
REMARK 927      BINDING AFFINITY PREDICTED BY RF-SCORE:    0.00 PKD
ROOT
HETATM    1 CL   UNL     1     -11.446  11.028  68.364  1.00  0.00    -0.363 Cl 
HETATM    2  C   UNL     1     -11.020  10.189  69.805  1.00  0.00    -0.280 C  
HETATM    3  C   UNL     1      -9.797   9.686  70.060  1.00  0.00    -0.246 C  
HETATM    4  C   UNL     1     -12.097  10.003  70.824  1.00  0.00    -0.327 C  
HETATM    5  N   UNL     1      -9.592   8.980  71.232  1.00  0.00    -0.284 N  
HETATM    6  C   UNL     1     -10.546   8.701  72.162  1.00  0.00    -0.341 C  
HETATM    7  O   UNL     1     -13.206  10.521  70.726  1.00  0.00    -0.335 OA 
HETATM    8  H   UNL     1      -8.648   8.639  71.413  1.00  0.00     0.000 HD 
HETATM    9  O   UNL     1     -10.326   8.041  73.171  1.00  0.00    -0.332 OA 
HETATM   10  N   UNL     1     -11.785   9.207  71.894  1.00  0.00    -0.371 N  
HETATM   11  H   UNL     1     -12.538   8.975  72.541  1.00  0.00     0.000 HD 
ENDROOT
BRANCH   3  12
HETATM   12  C   UNL     1      -8.612   9.755  69.117  1.00  0.00    -0.153 C  
BRANCH  12  13
HETATM   13  N   UNL     1      -8.748   8.829  67.992  1.00  0.00    -0.140 NA 
HETATM   14  C   UNL     1      -7.199   7.328  67.081  1.00  0.00    -0.092 C  
HETATM   15  C   UNL     1      -7.755   8.162  65.929  1.00  0.00    -0.091 C  
HETATM   16  C   UNL     1      -8.258   7.462  68.174  1.00  0.00    -0.124 C  
HETATM   17  C   UNL     1      -8.497   9.231  66.697  1.00  0.00    -0.126 C  
HETATM   18  N   UNL     1      -8.829  10.361  66.174  1.00  0.00    -0.153 NA 
HETATM   19  H2  UNL     1      -9.324  11.020  66.774  1.00  0.00     0.000 HD 
HETATM   20  H1  UNL     1      -8.644  10.658  65.215  1.00  0.00     0.000 HD 
ENDBRANCH  12  13
ENDBRANCH   3  12
TORSDOF 2
ENDMDL
MODEL      192
REMARK 921   NORMALIZED FREE ENERGY PREDICTED BY IDOCK:   -3.37 KCAL/MOL
REMARK 922        TOTAL FREE ENERGY PREDICTED BY IDOCK:   -4.11 KCAL/MOL
REMARK 923 INTER-LIGAND FREE ENERGY PREDICTED BY IDOCK:   -3.77 KCAL/MOL
REMARK 924 INTRA-LIGAND FREE ENERGY PREDICTED BY IDOCK:   -0.34 KCAL/MOL
REMARK 927      BINDING AFFINITY PREDICTED BY RF-SCORE:    0.00 PKD
ROOT
HETATM    1 CL   UNL     1     -10.188  10.906  66.331  1.00  0.00    -0.279 Cl 
HETATM    2  C   UNL     1      -9.263  12.109  67.145  1.00  0.00    -0.193 C  
HETATM    3  C   UNL     1      -9.769  12.988  68.031  1.00  0.00    -0.224 C  
HETATM    4  C   UNL     1      -7.806  12.176  66.822  1.00  0.00     0.004 C  
HETATM    5  N   UNL     1      -8.935  13.946  68.577  1.00  0.00    -0.280 N  
HETATM    6  C   UNL     1      -7.621  14.117  68.266  1.00  0.00    -0.130 C  
HETATM    7  O   UNL     1      -7.240  11.348  66.114  1.00  0.00    -0.010 OA 
HETATM    8  H   UNL     1      -9.337  14.577  69.269  1.00  0.00     0.000 HD 
HETATM    9  O   UNL     1      -6.927  15.004  68.751  1.00  0.00    -0.099 OA 
HETATM   10  N   UNL     1      -7.116  13.228  67.361  1.00  0.00    -0.293 N  
HETATM   11  H   UNL     1      -6.149  13.358  67.064  1.00  0.00     0.000 HD 
ENDROOT
BRANCH   3  12
HETATM   12  C   UNL     1     -11.228  13.078  68.435  1.00  0.00    -0.269 C  
BRANCH  12  13
HETATM   13  N   UNL     1     -11.413  13.845  69.667  1.00  0.00    -0.263 NA 
HETATM   14  C   UNL     1     -13.283  14.020  71.066  1.00  0.00    -0.294 C  
HETATM   15  C   UNL     1     -12.826  15.440  70.737  1.00  0.00    -0.524 C  
HETATM   16  C   UNL     1     -12.044  13.167  70.801  1.00  0.00    -0.203 C  
HETATM   17  C   UNL     1     -11.825  15.160  69.640  1.00  0.00    -0.334 C  
HETATM   18  N   UNL     1     -11.439  16.061  68.803  1.00  0.00    -0.377 NA 
HETATM   19  H2  UNL     1     -10.764  15.773  68.095  1.00  0.00     0.000 HD 
HETATM   20  H1  UNL     1     -11.745  17.034  68.783  1.00  0.00     0.000 HD 
ENDBRANCH  12  13
ENDBRANCH   3  12
TORSDOF 2
ENDMDL
MODEL      193
REMARK 921   NORMALIZED FREE ENERGY PREDICTED BY IDOCK:   -3.37 KCAL/MOL
REMARK 922        TOTAL FREE ENERGY PREDICTED BY IDOCK:   -4.10 KCAL/MOL
REMARK 923 INTER-LIGAND FREE ENERGY PREDICTED BY IDOCK:   -3.82 KCAL/MOL
REMARK 924 INTRA-LIGAND FREE ENERGY PREDICTED BY IDOCK:   -0.28 KCAL/MOL
REMARK 927      BINDING AFFINITY PREDICTED BY RF-SCORE:    0.00 PKD
ROOT
HETATM    1 CL   UNL     1      -7.375  12.873  68.437  1.00  0.00    -0.112 Cl 
HETATM    2  C   UNL     1      -8.317  12.393  67.080  1.00  0.00    -0.157 C  
HETATM    3  C   UNL     1      -9.213  13.183  66.456  1.00  0.00    -0.177 C  
HETATM    4  C   UNL     1      -8.126  10.997  66.582  1.00  0.00    -0.155 C  
HETATM    5  N   UNL     1      -9.953  12.663  65.410  1.00  0.00    -0.388 N  
HETATM    6  C   UNL     1      -9.890  11.380  64.961  1.00  0.00    -0.261 C  
HETATM    7  O   UNL     1      -7.256  10.247  67.016  1.00  0.00    -0.088 OA 
HETATM    8  H   UNL     1     -10.599  13.294  64.936  1.00  0.00     0.000 HD 
HETATM    9  O   UNL     1     -10.591  10.954  64.049  1.00  0.00    -0.372 OA 
HETATM   10  N   UNL     1      -8.986  10.583  65.601  1.00  0.00    -0.172 N  
HETATM   11  H   UNL     1      -8.948   9.601  65.327  1.00  0.00     0.000 HD 
ENDROOT
BRANCH   3  12
HETATM   12  C   UNL     1      -9.552  14.604  66.861  1.00  0.00    -0.244 C  
BRANCH  12  13
HETATM   13  N   UNL     1     -10.062  14.681  68.231  1.00  0.00    -0.223 NA 
HETATM   14  C   UNL     1     -12.026  15.654  69.054  1.00  0.00    -0.323 C  
HETATM   15  C   UNL     1     -10.868  16.189  69.893  1.00  0.00    -0.355 C  
HETATM   16  C   UNL     1     -11.475  14.365  68.449  1.00  0.00    -0.301 C  
HETATM   17  C   UNL     1      -9.691  15.703  69.078  1.00  0.00    -0.241 C  
HETATM   18  N   UNL     1      -8.512  16.210  69.188  1.00  0.00    -0.253 NA 
HETATM   19  H2  UNL     1      -7.783  15.818  68.591  1.00  0.00     0.000 HD 
HETATM   20  H1  UNL     1      -8.237  16.966  69.816  1.00  0.00     0.000 HD 
ENDBRANCH  12  13
ENDBRANCH   3  12
TORSDOF 2
ENDMDL
MODEL      194
REMARK 921   NORMALIZED FREE ENERGY PREDICTED BY IDOCK:   -3.35 KCAL/MOL
REMARK 922        TOTAL FREE ENERGY PREDICTED BY IDOCK:   -4.08 KCAL/MOL
REMARK 923 INTER-LIGAND FREE ENERGY PREDICTED BY IDOCK:   -3.60 KCAL/MOL
REMARK 924 INTRA-LIGAND FREE ENERGY PREDICTED BY IDOCK:   -0.48 KCAL/MOL
REMARK 927      BINDING AFFINITY PREDICTED BY RF-SCORE:    0.00 PKD
ROOT
HETATM    1 CL   UNL     1     -12.537  10.099  70.603  1.00  0.00    -0.371 Cl 
HETATM    2  C   UNL     1     -11.067   9.344  70.124  1.00  0.00    -0.242 C  
HETATM    3  C   UNL     1     -10.569   9.371  68.873  1.00  0.00    -0.208 C  
HETATM    4  C   UNL     1     -10.312   8.601  71.178  1.00  0.00    -0.230 C  
HETATM    5  N   UNL     1      -9.405   8.677  68.597  1.00  0.00    -0.142 N  
HETATM    6  C   UNL     1      -8.714   7.913  69.487  1.00  0.00    -0.134 C  
HETATM    7  O   UNL     1     -10.631   8.617  72.364  1.00  0.00    -0.331 OA 
HETATM    8  H   UNL     1      -9.035   8.742  67.650  1.00  0.00     0.000 HD 
HETATM    9  O   UNL     1      -7.703   7.286  69.189  1.00  0.00    -0.103 OA 
HETATM   10  N   UNL     1      -9.227   7.884  70.752  1.00  0.00    -0.156 N  
HETATM   11  H   UNL     1      -8.766   7.280  71.432  1.00  0.00     0.000 HD 
ENDROOT
BRANCH   3  12
HETATM   12  C   UNL     1     -11.230  10.044  67.686  1.00  0.00    -0.024 C  
BRANCH  12  13
HETATM   13  N   UNL     1     -10.790  11.430  67.521  1.00  0.00    -0.228 NA 
HETATM   14  C   UNL     1     -11.685  13.148  66.204  1.00  0.00    -0.428 C  
HETATM   15  C   UNL     1     -10.191  13.069  65.897  1.00  0.00    -0.298 C  
HETATM   16  C   UNL     1     -11.812  12.477  67.571  1.00  0.00    -0.323 C  
HETATM   17  C   UNL     1      -9.835  11.774  66.589  1.00  0.00    -0.202 C  
HETATM   18  N   UNL     1      -8.769  11.106  66.310  1.00  0.00    -0.179 NA 
HETATM   19  H2  UNL     1      -8.618  10.240  66.828  1.00  0.00     0.000 HD 
HETATM   20  H1  UNL     1      -8.062  11.361  65.620  1.00  0.00     0.000 HD 
ENDBRANCH  12  13
ENDBRANCH   3  12
TORSDOF 2
ENDMDL
MODEL      195
REMARK 921   NORMALIZED FREE ENERGY PREDICTED BY IDOCK:   -3.32 KCAL/MOL
REMARK 922        TOTAL FREE ENERGY PREDICTED BY IDOCK:   -4.05 KCAL/MOL
REMARK 923 INTER-LIGAND FREE ENERGY PREDICTED BY IDOCK:   -3.70 KCAL/MOL
REMARK 924 INTRA-LIGAND FREE ENERGY PREDICTED BY IDOCK:   -0.35 KCAL/MOL
REMARK 927      BINDING AFFINITY PREDICTED BY RF-SCORE:    0.00 PKD
ROOT
HETATM    1 CL   UNL     1     -10.659   7.434  73.399  1.00  0.00    -0.430 Cl 
HETATM    2  C   UNL     1     -10.693   6.988  71.736  1.00  0.00    -0.216 C  
HETATM    3  C   UNL     1      -9.608   6.630  71.022  1.00  0.00    -0.171 C  
HETATM    4  C   UNL     1     -12.021   7.019  71.053  1.00  0.00    -0.361 C  
HETATM    5  N   UNL     1      -9.754   6.348  69.676  1.00  0.00    -0.152 N  
HETATM    6  C   UNL     1     -10.916   6.437  68.973  1.00  0.00    -0.348 C  
HETATM    7  O   UNL     1     -13.074   7.223  71.651  1.00  0.00    -0.361 OA 
HETATM    8  H   UNL     1      -8.922   6.048  69.168  1.00  0.00     0.000 HD 
HETATM    9  O   UNL     1     -10.992   6.209  67.771  1.00  0.00    -0.313 OA 
HETATM   10  N   UNL     1     -12.010   6.807  69.701  1.00  0.00    -0.605 N  
HETATM   11  H   UNL     1     -12.888   6.935  69.198  1.00  0.00     0.000 HD 
ENDROOT
BRANCH   3  12
HETATM   12  C   UNL     1      -8.189   6.587  71.553  1.00  0.00    -0.116 C  
BRANCH  12  13
HETATM   13  N   UNL     1      -7.911   5.352  72.287  1.00  0.00    -0.106 NA 
HETATM   14  C   UNL     1      -9.362   3.642  72.961  1.00  0.00    -0.129 C  
HETATM   15  C   UNL     1      -8.557   4.065  74.187  1.00  0.00    -0.096 C  
HETATM   16  C   UNL     1      -8.511   4.114  71.784  1.00  0.00    -0.103 C  
HETATM   17  C   UNL     1      -7.899   5.321  73.665  1.00  0.00    -0.103 C  
HETATM   18  N   UNL     1      -7.409   6.225  74.441  1.00  0.00    -0.089 NA 
HETATM   19  H2  UNL     1      -6.989   7.040  73.993  1.00  0.00     0.000 HD 
HETATM   20  H1  UNL     1      -7.400   6.202  75.461  1.00  0.00     0.000 HD 
ENDBRANCH  12  13
ENDBRANCH   3  12
TORSDOF 2
ENDMDL
MODEL      196
REMARK 921   NORMALIZED FREE ENERGY PREDICTED BY IDOCK:   -3.30 KCAL/MOL
REMARK 922        TOTAL FREE ENERGY PREDICTED BY IDOCK:   -4.03 KCAL/MOL
REMARK 923 INTER-LIGAND FREE ENERGY PREDICTED BY IDOCK:   -3.85 KCAL/MOL
REMARK 924 INTRA-LIGAND FREE ENERGY PREDICTED BY IDOCK:   -0.18 KCAL/MOL
REMARK 927      BINDING AFFINITY PREDICTED BY RF-SCORE:    0.00 PKD
ROOT
HETATM    1 CL   UNL     1      -7.552   8.474  67.443  1.00  0.00    -0.096 Cl 
HETATM    2  C   UNL     1      -8.952   9.475  67.450  1.00  0.00    -0.131 C  
HETATM    3  C   UNL     1     -10.181   9.063  67.814  1.00  0.00    -0.230 C  
HETATM    4  C   UNL     1      -8.774  10.891  67.006  1.00  0.00    -0.141 C  
HETATM    5  N   UNL     1     -11.241   9.946  67.722  1.00  0.00    -0.479 N  
HETATM    6  C   UNL     1     -11.166  11.221  67.248  1.00  0.00    -0.296 C  
HETATM    7  O   UNL     1      -7.675  11.382  66.764  1.00  0.00    -0.149 OA 
HETATM    8  H   UNL     1     -12.154   9.617  68.035  1.00  0.00     0.000 HD 
HETATM    9  O   UNL     1     -12.140  11.959  67.153  1.00  0.00    -0.590 OA 
HETATM   10  N   UNL     1      -9.919  11.630  66.874  1.00  0.00    -0.200 N  
HETATM   11  H   UNL     1      -9.833  12.560  66.465  1.00  0.00     0.000 HD 
ENDROOT
BRANCH   3  12
HETATM   12  C   UNL     1     -10.535   7.654  68.249  1.00  0.00    -0.174 C  
BRANCH  12  13
HETATM   13  N   UNL     1     -10.557   7.515  69.705  1.00  0.00    -0.238 NA 
HETATM   14  C   UNL     1     -10.308   9.136  71.377  1.00  0.00    -0.409 C  
HETATM   15  C   UNL     1      -9.336   8.002  71.695  1.00  0.00    -0.208 C  
HETATM   16  C   UNL     1     -11.347   8.483  70.468  1.00  0.00    -0.217 C  
HETATM   17  C   UNL     1      -9.417   7.203  70.414  1.00  0.00    -0.162 C  
HETATM   18  N   UNL     1      -8.512   6.355  70.065  1.00  0.00    -0.133 NA 
HETATM   19  H2  UNL     1      -8.653   5.868  69.179  1.00  0.00     0.000 HD 
HETATM   20  H1  UNL     1      -7.668   6.124  70.589  1.00  0.00     0.000 HD 
ENDBRANCH  12  13
ENDBRANCH   3  12
TORSDOF 2
ENDMDL
MODEL      197
REMARK 921   NORMALIZED FREE ENERGY PREDICTED BY IDOCK:   -3.30 KCAL/MOL
REMARK 922        TOTAL FREE ENERGY PREDICTED BY IDOCK:   -4.03 KCAL/MOL
REMARK 923 INTER-LIGAND FREE ENERGY PREDICTED BY IDOCK:   -3.91 KCAL/MOL
REMARK 924 INTRA-LIGAND FREE ENERGY PREDICTED BY IDOCK:   -0.12 KCAL/MOL
REMARK 927      BINDING AFFINITY PREDICTED BY RF-SCORE:    0.00 PKD
ROOT
HETATM    1 CL   UNL     1     -11.760  11.886  67.475  1.00  0.00    -0.372 Cl 
HETATM    2  C   UNL     1     -11.472  10.783  68.764  1.00  0.00    -0.295 C  
HETATM    3  C   UNL     1     -10.964   9.545  68.608  1.00  0.00    -0.072 C  
HETATM    4  C   UNL     1     -11.828  11.241  70.141  1.00  0.00    -0.364 C  
HETATM    5  N   UNL     1     -10.832   8.728  69.716  1.00  0.00    -0.315 N  
HETATM    6  C   UNL     1     -11.213   9.051  70.982  1.00  0.00    -0.295 C  
HETATM    7  O   UNL     1     -12.190  12.388  70.389  1.00  0.00    -0.346 OA 
HETATM    8  H   UNL     1     -10.414   7.809  69.572  1.00  0.00     0.000 HD 
HETATM    9  O   UNL     1     -11.107   8.280  71.930  1.00  0.00    -0.254 OA 
HETATM   10  N   UNL     1     -11.733  10.303  71.133  1.00  0.00    -0.361 N  
HETATM   11  H   UNL     1     -12.078  10.561  72.057  1.00  0.00     0.000 HD 
ENDROOT
BRANCH   3  12
HETATM   12  C   UNL     1     -10.591   8.917  67.279  1.00  0.00    -0.234 C  
BRANCH  12  13
HETATM   13  N   UNL     1      -9.642   9.739  66.527  1.00  0.00    -0.182 NA 
HETATM   14  C   UNL     1      -8.761   9.438  64.378  1.00  0.00    -0.227 C  
HETATM   15  C   UNL     1      -7.585   9.675  65.323  1.00  0.00    -0.113 C  
HETATM   16  C   UNL     1      -9.955  10.028  65.126  1.00  0.00    -0.280 C  
HETATM   17  C   UNL     1      -8.281   9.569  66.660  1.00  0.00    -0.116 C  
HETATM   18  N   UNL     1      -7.646   9.343  67.759  1.00  0.00    -0.088 NA 
HETATM   19  H2  UNL     1      -8.205   9.284  68.610  1.00  0.00     0.000 HD 
HETATM   20  H1  UNL     1      -6.639   9.217  67.857  1.00  0.00     0.000 HD 
ENDBRANCH  12  13
ENDBRANCH   3  12
TORSDOF 2
ENDMDL
MODEL      198
REMARK 921   NORMALIZED FREE ENERGY PREDICTED BY IDOCK:   -3.28 KCAL/MOL
REMARK 922        TOTAL FREE ENERGY PREDICTED BY IDOCK:   -4.01 KCAL/MOL
REMARK 923 INTER-LIGAND FREE ENERGY PREDICTED BY IDOCK:   -3.81 KCAL/MOL
REMARK 924 INTRA-LIGAND FREE ENERGY PREDICTED BY IDOCK:   -0.20 KCAL/MOL
REMARK 927      BINDING AFFINITY PREDICTED BY RF-SCORE:    0.00 PKD
ROOT
HETATM    1 CL   UNL     1      -9.483  10.327  67.296  1.00  0.00    -0.169 Cl 
HETATM    2  C   UNL     1     -10.485   9.972  68.650  1.00  0.00    -0.204 C  
HETATM    3  C   UNL     1     -10.477   8.802  69.317  1.00  0.00    -0.219 C  
HETATM    4  C   UNL     1     -11.431  11.041  69.091  1.00  0.00    -0.301 C  
HETATM    5  N   UNL     1     -11.371   8.614  70.355  1.00  0.00    -0.384 N  
HETATM    6  C   UNL     1     -12.314   9.511  70.754  1.00  0.00    -0.162 C  
HETATM    7  O   UNL     1     -11.428  12.172  68.615  1.00  0.00    -0.246 OA 
HETATM    8  H   UNL     1     -11.320   7.731  70.863  1.00  0.00     0.000 HD 
HETATM    9  O   UNL     1     -13.110   9.288  71.660  1.00  0.00    -0.340 OA 
HETATM   10  N   UNL     1     -12.322  10.692  70.070  1.00  0.00    -0.450 N  
HETATM   11  H   UNL     1     -13.049  11.367  70.306  1.00  0.00     0.000 HD 
ENDROOT
BRANCH   3  12
HETATM   12  C   UNL     1      -9.609   7.607  68.972  1.00  0.00    -0.151 C  
BRANCH  12  13
HETATM   13  N   UNL     1      -9.747   7.212  67.570  1.00  0.00    -0.137 NA 
HETATM   14  C   UNL     1     -10.181   5.109  66.633  1.00  0.00    -0.297 C  
HETATM   15  C   UNL     1      -8.954   5.678  65.925  1.00  0.00    -0.160 C  
HETATM   16  C   UNL     1     -10.870   6.342  67.216  1.00  0.00    -0.375 C  
HETATM   17  C   UNL     1      -8.649   6.865  66.811  1.00  0.00    -0.120 C  
HETATM   18  N   UNL     1      -7.499   7.444  66.828  1.00  0.00    -0.094 NA 
HETATM   19  H2  UNL     1      -7.389   8.234  67.463  1.00  0.00     0.000 HD 
HETATM   20  H1  UNL     1      -6.687   7.187  66.266  1.00  0.00     0.000 HD 
ENDBRANCH  12  13
ENDBRANCH   3  12
TORSDOF 2
ENDMDL
MODEL      199
REMARK 921   NORMALIZED FREE ENERGY PREDICTED BY IDOCK:   -3.28 KCAL/MOL
REMARK 922        TOTAL FREE ENERGY PREDICTED BY IDOCK:   -4.00 KCAL/MOL
REMARK 923 INTER-LIGAND FREE ENERGY PREDICTED BY IDOCK:   -4.05 KCAL/MOL
REMARK 924 INTRA-LIGAND FREE ENERGY PREDICTED BY IDOCK:    0.04 KCAL/MOL
REMARK 927      BINDING AFFINITY PREDICTED BY RF-SCORE:    0.00 PKD
ROOT
HETATM    1 CL   UNL     1     -10.718   7.625  67.919  1.00  0.00    -0.220 Cl 
HETATM    2  C   UNL     1     -10.748   7.650  69.640  1.00  0.00    -0.228 C  
HETATM    3  C   UNL     1     -10.886   8.764  70.383  1.00  0.00    -0.228 C  
HETATM    4  C   UNL     1     -10.596   6.338  70.339  1.00  0.00    -0.252 C  
HETATM    5  N   UNL     1     -10.837   8.663  71.762  1.00  0.00    -0.299 N  
HETATM    6  C   UNL     1     -10.618   7.516  72.461  1.00  0.00    -0.270 C  
HETATM    7  O   UNL     1     -10.576   5.264  69.746  1.00  0.00    -0.307 OA 
HETATM    8  H   UNL     1     -10.977   9.519  72.299  1.00  0.00     0.000 HD 
HETATM    9  O   UNL     1     -10.549   7.479  73.684  1.00  0.00    -0.348 OA 
HETATM   10  N   UNL     1     -10.472   6.391  71.702  1.00  0.00    -0.213 N  
HETATM   11  H   UNL     1     -10.253   5.522  72.188  1.00  0.00     0.000 HD 
ENDROOT
BRANCH   3  12
HETATM   12  C   UNL     1     -11.011  10.171  69.831  1.00  0.00    -0.293 C  
BRANCH  12  13
HETATM   13  N   UNL     1     -10.160  10.382  68.659  1.00  0.00    -0.168 NA 
HETATM   14  C   UNL     1      -8.479  11.969  68.284  1.00  0.00    -0.167 C  
HETATM   15  C   UNL     1      -9.430  12.023  67.091  1.00  0.00    -0.187 C  
HETATM   16  C   UNL     1      -8.728  10.588  68.888  1.00  0.00    -0.154 C  
HETATM   17  C   UNL     1     -10.569  11.173  67.607  1.00  0.00    -0.211 C  
HETATM   18  N   UNL     1     -11.754  11.218  67.105  1.00  0.00    -0.502 NA 
HETATM   19  H2  UNL     1     -12.457  10.610  67.525  1.00  0.00     0.000 HD 
HETATM   20  H1  UNL     1     -12.056  11.804  66.326  1.00  0.00     0.000 HD 
ENDBRANCH  12  13
ENDBRANCH   3  12
TORSDOF 2
ENDMDL
MODEL      200
REMARK 921   NORMALIZED FREE ENERGY PREDICTED BY IDOCK:   -3.26 KCAL/MOL
REMARK 922        TOTAL FREE ENERGY PREDICTED BY IDOCK:   -3.99 KCAL/MOL
REMARK 923 INTER-LIGAND FREE ENERGY PREDICTED BY IDOCK:   -3.83 KCAL/MOL
REMARK 924 INTRA-LIGAND FREE ENERGY PREDICTED BY IDOCK:   -0.16 KCAL/MOL
REMARK 927      BINDING AFFINITY PREDICTED BY RF-SCORE:    0.00 PKD
ROOT
HETATM    1 CL   UNL     1     -10.996  16.102  65.048  1.00  0.00    -0.408 Cl 
HETATM    2  C   UNL     1      -9.997  14.883  65.740  1.00  0.00    -0.347 C  
HETATM    3  C   UNL     1      -8.900  15.129  66.482  1.00  0.00    -0.277 C  
HETATM    4  C   UNL     1     -10.380  13.463  65.477  1.00  0.00    -0.295 C  
HETATM    5  N   UNL     1      -8.144  14.063  66.936  1.00  0.00    -0.387 N  
HETATM    6  C   UNL     1      -8.387  12.751  66.664  1.00  0.00     0.119 C  
HETATM    7  O   UNL     1     -11.420  13.147  64.908  1.00  0.00    -0.296 OA 
HETATM    8  H   UNL     1      -7.338  14.278  67.523  1.00  0.00     0.000 HD 
HETATM    9  O   UNL     1      -7.669  11.841  67.062  1.00  0.00    -0.154 OA 
HETATM   10  N   UNL     1      -9.496  12.510  65.906  1.00  0.00    -0.417 N  
HETATM   11  H   UNL     1      -9.680  11.544  65.638  1.00  0.00     0.000 HD 
ENDROOT
BRANCH   3  12
HETATM   12  C   UNL     1      -8.356  16.506  66.805  1.00  0.00    -0.239 C  
BRANCH  12  13
HETATM   13  N   UNL     1      -7.076  16.443  67.512  1.00  0.00    -0.130 NA 
HETATM   14  C   UNL     1      -6.285  17.715  69.313  1.00  0.00    -0.239 C  
HETATM   15  C   UNL     1      -5.214  17.750  68.225  1.00  0.00    -0.146 C  
HETATM   16  C   UNL     1      -7.107  16.472  68.976  1.00  0.00    -0.213 C  
HETATM   17  C   UNL     1      -5.975  17.143  67.069  1.00  0.00    -0.174 C  
HETATM   18  N   UNL     1      -5.610  17.291  65.842  1.00  0.00    -0.225 NA 
HETATM   19  H2  UNL     1      -6.192  16.847  65.131  1.00  0.00     0.000 HD 
HETATM   20  H1  UNL     1      -4.795  17.809  65.514  1.00  0.00     0.000 HD 
ENDBRANCH  12  13
ENDBRANCH   3  12
TORSDOF 2
ENDMDL
MODEL      201
REMARK 921   NORMALIZED FREE ENERGY PREDICTED BY IDOCK:   -3.26 KCAL/MOL
REMARK 922        TOTAL FREE ENERGY PREDICTED BY IDOCK:   -3.98 KCAL/MOL
REMARK 923 INTER-LIGAND FREE ENERGY PREDICTED BY IDOCK:   -3.70 KCAL/MOL
REMARK 924 INTRA-LIGAND FREE ENERGY PREDICTED BY IDOCK:   -0.28 KCAL/MOL
REMARK 927      BINDING AFFINITY PREDICTED BY RF-SCORE:    0.00 PKD
ROOT
HETATM    1 CL   UNL     1      -6.173  10.674  68.561  1.00  0.00    -0.049 Cl 
HETATM    2  C   UNL     1      -7.800  11.236  68.592  1.00  0.00    -0.139 C  
HETATM    3  C   UNL     1      -8.879  10.440  68.717  1.00  0.00    -0.157 C  
HETATM    4  C   UNL     1      -8.010  12.710  68.456  1.00  0.00    -0.093 C  
HETATM    5  N   UNL     1     -10.140  11.005  68.672  1.00  0.00    -0.191 N  
HETATM    6  C   UNL     1     -10.406  12.324  68.467  1.00  0.00    -0.223 C  
HETATM    7  O   UNL     1      -7.087  13.518  68.450  1.00  0.00    -0.089 OA 
HETATM    8  H   UNL     1     -10.937  10.382  68.802  1.00  0.00     0.000 HD 
HETATM    9  O   UNL     1     -11.544  12.776  68.400  1.00  0.00    -0.281 OA 
HETATM   10  N   UNL     1      -9.309  13.125  68.334  1.00  0.00    -0.317 N  
HETATM   11  H   UNL     1      -9.469  14.111  68.126  1.00  0.00     0.000 HD 
ENDROOT
BRANCH   3  12
HETATM   12  C   UNL     1      -8.839   8.928  68.824  1.00  0.00    -0.137 C  
BRANCH  12  13
HETATM   13  N   UNL     1     -10.110   8.313  68.441  1.00  0.00    -0.195 NA 
HETATM   14  C   UNL     1     -10.851   6.105  68.687  1.00  0.00    -0.403 C  
HETATM   15  C   UNL     1     -11.074   6.500  67.229  1.00  0.00    -0.429 C  
HETATM   16  C   UNL     1     -10.766   7.443  69.419  1.00  0.00    -0.211 C  
HETATM   17  C   UNL     1     -10.309   7.803  67.176  1.00  0.00    -0.319 C  
HETATM   18  N   UNL     1      -9.907   8.330  66.071  1.00  0.00    -0.468 NA 
HETATM   19  H2  UNL     1      -9.394   9.209  66.139  1.00  0.00     0.000 HD 
HETATM   20  H1  UNL     1     -10.055   7.951  65.135  1.00  0.00     0.000 HD 
ENDBRANCH  12  13
ENDBRANCH   3  12
TORSDOF 2
ENDMDL
MODEL      202
REMARK 921   NORMALIZED FREE ENERGY PREDICTED BY IDOCK:   -3.26 KCAL/MOL
REMARK 922        TOTAL FREE ENERGY PREDICTED BY IDOCK:   -3.98 KCAL/MOL
REMARK 923 INTER-LIGAND FREE ENERGY PREDICTED BY IDOCK:   -3.84 KCAL/MOL
REMARK 924 INTRA-LIGAND FREE ENERGY PREDICTED BY IDOCK:   -0.14 KCAL/MOL
REMARK 927      BINDING AFFINITY PREDICTED BY RF-SCORE:    0.00 PKD
ROOT
HETATM    1 CL   UNL     1     -11.520  11.879  69.670  1.00  0.00    -0.353 Cl 
HETATM    2  C   UNL     1     -11.388  10.165  69.742  1.00  0.00    -0.256 C  
HETATM    3  C   UNL     1     -10.756   9.410  68.823  1.00  0.00    -0.171 C  
HETATM    4  C   UNL     1     -12.038   9.484  70.903  1.00  0.00    -0.278 C  
HETATM    5  N   UNL     1     -10.768   8.034  68.960  1.00  0.00    -0.392 N  
HETATM    6  C   UNL     1     -11.409   7.345  69.945  1.00  0.00    -0.076 C  
HETATM    7  O   UNL     1     -12.537  10.097  71.842  1.00  0.00    -0.396 OA 
HETATM    8  H   UNL     1     -10.253   7.490  68.268  1.00  0.00     0.000 HD 
HETATM    9  O   UNL     1     -11.420   6.121  70.008  1.00  0.00    -0.406 OA 
HETATM   10  N   UNL     1     -12.054   8.115  70.869  1.00  0.00    -0.473 N  
HETATM   11  H   UNL     1     -12.589   7.634  71.590  1.00  0.00     0.000 HD 
ENDROOT
BRANCH   3  12
HETATM   12  C   UNL     1     -10.084   9.940  67.571  1.00  0.00    -0.197 C  
BRANCH  12  13
HETATM   13  N   UNL     1      -8.629   9.997  67.708  1.00  0.00    -0.118 NA 
HETATM   14  C   UNL     1      -7.199   8.779  69.107  1.00  0.00    -0.067 C  
HETATM   15  C   UNL     1      -6.861  10.257  69.287  1.00  0.00    -0.068 C  
HETATM   16  C   UNL     1      -7.901   8.727  67.751  1.00  0.00    -0.102 C  
HETATM   17  C   UNL     1      -8.022  10.896  68.559  1.00  0.00    -0.134 C  
HETATM   18  N   UNL     1      -8.369  12.123  68.743  1.00  0.00    -0.354 NA 
HETATM   19  H2  UNL     1      -9.169  12.461  68.208  1.00  0.00     0.000 HD 
HETATM   20  H1  UNL     1      -7.919  12.788  69.373  1.00  0.00     0.000 HD 
ENDBRANCH  12  13
ENDBRANCH   3  12
TORSDOF 2
ENDMDL
MODEL      203
REMARK 921   NORMALIZED FREE ENERGY PREDICTED BY IDOCK:   -3.26 KCAL/MOL
REMARK 922        TOTAL FREE ENERGY PREDICTED BY IDOCK:   -3.98 KCAL/MOL
REMARK 923 INTER-LIGAND FREE ENERGY PREDICTED BY IDOCK:   -3.68 KCAL/MOL
REMARK 924 INTRA-LIGAND FREE ENERGY PREDICTED BY IDOCK:   -0.30 KCAL/MOL
REMARK 927      BINDING AFFINITY PREDICTED BY RF-SCORE:    0.00 PKD
ROOT
HETATM    1 CL   UNL     1     -10.994   6.937  66.740  1.00  0.00    -0.335 Cl 
HETATM    2  C   UNL     1     -10.233   5.642  67.581  1.00  0.00    -0.199 C  
HETATM    3  C   UNL     1     -10.429   5.361  68.884  1.00  0.00    -0.168 C  
HETATM    4  C   UNL     1      -9.283   4.793  66.801  1.00  0.00    -0.125 C  
HETATM    5  N   UNL     1      -9.715   4.327  69.463  1.00  0.00    -0.208 N  
HETATM    6  C   UNL     1      -8.775   3.569  68.833  1.00  0.00    -0.094 C  
HETATM    7  O   UNL     1      -9.128   4.906  65.588  1.00  0.00    -0.142 OA 
HETATM    8  H   UNL     1      -9.908   4.116  70.441  1.00  0.00     0.000 HD 
HETATM    9  O   UNL     1      -8.142   2.684  69.397  1.00  0.00    -0.048 OA 
HETATM   10  N   UNL     1      -8.576   3.864  67.516  1.00  0.00    -0.099 N  
HETATM   11  H   UNL     1      -7.843   3.353  67.026  1.00  0.00     0.000 HD 
ENDROOT
BRANCH   3  12
HETATM   12  C   UNL     1     -11.325   6.147  69.821  1.00  0.00    -0.382 C  
BRANCH  12  13
HETATM   13  N   UNL     1     -10.579   7.138  70.596  1.00  0.00    -0.222 NA 
HETATM   14  C   UNL     1     -10.795   7.770  72.841  1.00  0.00    -0.453 C  
HETATM   15  C   UNL     1     -10.820   9.047  72.004  1.00  0.00    -0.342 C  
HETATM   16  C   UNL     1     -10.115   6.750  71.929  1.00  0.00    -0.180 C  
HETATM   17  C   UNL     1     -10.953   8.465  70.616  1.00  0.00    -0.243 C  
HETATM   18  N   UNL     1     -11.372   9.152  69.610  1.00  0.00    -0.437 NA 
HETATM   19  H2  UNL     1     -11.432   8.669  68.714  1.00  0.00     0.000 HD 
HETATM   20  H1  UNL     1     -11.650  10.134  69.625  1.00  0.00     0.000 HD 
ENDBRANCH  12  13
ENDBRANCH   3  12
TORSDOF 2
ENDMDL
MODEL      204
REMARK 921   NORMALIZED FREE ENERGY PREDICTED BY IDOCK:   -3.19 KCAL/MOL
REMARK 922        TOTAL FREE ENERGY PREDICTED BY IDOCK:   -3.91 KCAL/MOL
REMARK 923 INTER-LIGAND FREE ENERGY PREDICTED BY IDOCK:   -3.60 KCAL/MOL
REMARK 924 INTRA-LIGAND FREE ENERGY PREDICTED BY IDOCK:   -0.31 KCAL/MOL
REMARK 927      BINDING AFFINITY PREDICTED BY RF-SCORE:    0.00 PKD
ROOT
HETATM    1 CL   UNL     1     -10.187   9.297  71.213  1.00  0.00    -0.390 Cl 
HETATM    2  C   UNL     1     -10.281   8.229  69.866  1.00  0.00    -0.201 C  
HETATM    3  C   UNL     1      -9.553   8.356  68.741  1.00  0.00    -0.149 C  
HETATM    4  C   UNL     1     -11.252   7.097  69.966  1.00  0.00    -0.238 C  
HETATM    5  N   UNL     1      -9.760   7.466  67.702  1.00  0.00    -0.140 N  
HETATM    6  C   UNL     1     -10.684   6.466  67.694  1.00  0.00    -0.311 C  
HETATM    7  O   UNL     1     -11.874   6.840  70.993  1.00  0.00    -0.339 OA 
HETATM    8  H   UNL     1      -9.171   7.566  66.876  1.00  0.00     0.000 HD 
HETATM    9  O   UNL     1     -10.855   5.721  66.736  1.00  0.00    -0.298 OA 
HETATM   10  N   UNL     1     -11.424   6.347  68.834  1.00  0.00    -0.575 N  
HETATM   11  H   UNL     1     -12.162   5.644  68.844  1.00  0.00     0.000 HD 
ENDROOT
BRANCH   3  12
HETATM   12  C   UNL     1      -8.558   9.467  68.467  1.00  0.00    -0.123 C  
BRANCH  12  13
HETATM   13  N   UNL     1      -7.262   9.215  69.098  1.00  0.00    -0.066 NA 
HETATM   14  C   UNL     1      -6.703   7.797  70.876  1.00  0.00    -0.038 C  
HETATM   15  C   UNL     1      -6.127   9.175  71.194  1.00  0.00    -0.067 C  
HETATM   16  C   UNL     1      -6.894   7.822  69.361  1.00  0.00    -0.044 C  
HETATM   17  C   UNL     1      -6.797  10.007  70.125  1.00  0.00    -0.137 C  
HETATM   18  N   UNL     1      -6.904  11.289  70.205  1.00  0.00    -0.479 NA 
HETATM   19  H2  UNL     1      -7.377  11.761  69.435  1.00  0.00     0.000 HD 
HETATM   20  H1  UNL     1      -6.560  11.875  70.966  1.00  0.00     0.000 HD 
ENDBRANCH  12  13
ENDBRANCH   3  12
TORSDOF 2
ENDMDL
MODEL      205
REMARK 921   NORMALIZED FREE ENERGY PREDICTED BY IDOCK:   -3.18 KCAL/MOL
REMARK 922        TOTAL FREE ENERGY PREDICTED BY IDOCK:   -3.90 KCAL/MOL
REMARK 923 INTER-LIGAND FREE ENERGY PREDICTED BY IDOCK:   -4.06 KCAL/MOL
REMARK 924 INTRA-LIGAND FREE ENERGY PREDICTED BY IDOCK:    0.17 KCAL/MOL
REMARK 927      BINDING AFFINITY PREDICTED BY RF-SCORE:    0.00 PKD
ROOT
HETATM    1 CL   UNL     1      -8.576  17.252  66.874  1.00  0.00    -0.249 Cl 
HETATM    2  C   UNL     1      -9.732  16.371  65.951  1.00  0.00    -0.294 C  
HETATM    3  C   UNL     1      -9.756  15.029  65.841  1.00  0.00    -0.342 C  
HETATM    4  C   UNL     1     -10.763  17.168  65.219  1.00  0.00    -0.056 C  
HETATM    5  N   UNL     1     -10.701  14.439  65.022  1.00  0.00    -0.398 N  
HETATM    6  C   UNL     1     -11.613  15.106  64.263  1.00  0.00    -0.184 C  
HETATM    7  O   UNL     1     -10.886  18.382  65.350  1.00  0.00    -0.577 OA 
HETATM    8  H   UNL     1     -10.716  13.420  64.983  1.00  0.00     0.000 HD 
HETATM    9  O   UNL     1     -12.412  14.540  63.524  1.00  0.00    -0.727 OA 
HETATM   10  N   UNL     1     -11.580  16.466  64.374  1.00  0.00    -0.380 N  
HETATM   11  H   UNL     1     -12.213  17.001  63.780  1.00  0.00     0.000 HD 
ENDROOT
BRANCH   3  12
HETATM   12  C   UNL     1      -8.761  14.084  66.485  1.00  0.00     0.079 C  
BRANCH  12  13
HETATM   13  N   UNL     1      -9.395  13.194  67.458  1.00  0.00    -0.199 NA 
HETATM   14  C   UNL     1      -8.496  11.406  68.675  1.00  0.00    -0.131 C  
HETATM   15  C   UNL     1      -9.769  10.902  67.999  1.00  0.00    -0.176 C  
HETATM   16  C   UNL     1      -8.674  12.923  68.703  1.00  0.00     0.060 C  
HETATM   17  C   UNL     1     -10.057  12.051  67.061  1.00  0.00    -0.203 C  
HETATM   18  N   UNL     1     -10.824  11.935  66.032  1.00  0.00    -0.288 NA 
HETATM   19  H2  UNL     1     -10.953  12.767  65.456  1.00  0.00     0.000 HD 
HETATM   20  H1  UNL     1     -11.314  11.089  65.739  1.00  0.00     0.000 HD 
ENDBRANCH  12  13
ENDBRANCH   3  12
TORSDOF 2
ENDMDL
MODEL      206
REMARK 921   NORMALIZED FREE ENERGY PREDICTED BY IDOCK:   -3.18 KCAL/MOL
REMARK 922        TOTAL FREE ENERGY PREDICTED BY IDOCK:   -3.89 KCAL/MOL
REMARK 923 INTER-LIGAND FREE ENERGY PREDICTED BY IDOCK:   -3.59 KCAL/MOL
REMARK 924 INTRA-LIGAND FREE ENERGY PREDICTED BY IDOCK:   -0.31 KCAL/MOL
REMARK 927      BINDING AFFINITY PREDICTED BY RF-SCORE:    0.00 PKD
ROOT
HETATM    1 CL   UNL     1     -10.785  10.387  69.902  1.00  0.00    -0.325 Cl 
HETATM    2  C   UNL     1     -10.720   8.897  69.044  1.00  0.00    -0.126 C  
HETATM    3  C   UNL     1     -10.259   8.762  67.785  1.00  0.00    -0.228 C  
HETATM    4  C   UNL     1     -11.226   7.684  69.754  1.00  0.00    -0.029 C  
HETATM    5  N   UNL     1     -10.310   7.520  67.180  1.00  0.00    -0.283 N  
HETATM    6  C   UNL     1     -10.834   6.393  67.737  1.00  0.00    -0.334 C  
HETATM    7  O   UNL     1     -11.559   7.692  70.935  1.00  0.00    -0.281 OA 
HETATM    8  H   UNL     1      -9.924   7.441  66.240  1.00  0.00     0.000 HD 
HETATM    9  O   UNL     1     -10.889   5.319  67.149  1.00  0.00    -0.154 OA 
HETATM   10  N   UNL     1     -11.306   6.538  69.009  1.00  0.00    -0.585 N  
HETATM   11  H   UNL     1     -11.754   5.729  69.439  1.00  0.00     0.000 HD 
ENDROOT
BRANCH   3  12
HETATM   12  C   UNL     1      -9.749   9.896  66.917  1.00  0.00    -0.186 C  
BRANCH  12  13
HETATM   13  N   UNL     1      -8.650   9.475  66.048  1.00  0.00    -0.130 NA 
HETATM   14  C   UNL     1      -6.570  10.478  65.658  1.00  0.00    -0.116 C  
HETATM   15  C   UNL     1      -7.205  10.204  64.297  1.00  0.00    -0.108 C  
HETATM   16  C   UNL     1      -7.294   9.517  66.599  1.00  0.00    -0.090 C  
HETATM   17  C   UNL     1      -8.609   9.833  64.717  1.00  0.00    -0.179 C  
HETATM   18  N   UNL     1      -9.610   9.867  63.907  1.00  0.00    -0.432 NA 
HETATM   19  H2  UNL     1     -10.520   9.603  64.287  1.00  0.00     0.000 HD 
HETATM   20  H1  UNL     1      -9.579  10.131  62.922  1.00  0.00     0.000 HD 
ENDBRANCH  12  13
ENDBRANCH   3  12
TORSDOF 2
ENDMDL
MODEL      207
REMARK 921   NORMALIZED FREE ENERGY PREDICTED BY IDOCK:   -3.17 KCAL/MOL
REMARK 922        TOTAL FREE ENERGY PREDICTED BY IDOCK:   -3.89 KCAL/MOL
REMARK 923 INTER-LIGAND FREE ENERGY PREDICTED BY IDOCK:   -3.42 KCAL/MOL
REMARK 924 INTRA-LIGAND FREE ENERGY PREDICTED BY IDOCK:   -0.47 KCAL/MOL
REMARK 927      BINDING AFFINITY PREDICTED BY RF-SCORE:    0.00 PKD
ROOT
HETATM    1 CL   UNL     1     -11.767  10.464  71.040  1.00  0.00    -0.442 Cl 
HETATM    2  C   UNL     1     -11.299   8.869  70.593  1.00  0.00    -0.259 C  
HETATM    3  C   UNL     1     -10.677   8.552  69.442  1.00  0.00    -0.156 C  
HETATM    4  C   UNL     1     -11.627   7.772  71.554  1.00  0.00    -0.270 C  
HETATM    5  N   UNL     1     -10.403   7.224  69.169  1.00  0.00    -0.201 N  
HETATM    6  C   UNL     1     -10.747   6.170  69.959  1.00  0.00    -0.305 C  
HETATM    7  O   UNL     1     -12.091   7.981  72.672  1.00  0.00    -0.328 OA 
HETATM    8  H   UNL     1      -9.901   7.018  68.306  1.00  0.00     0.000 HD 
HETATM    9  O   UNL     1     -10.513   5.004  69.660  1.00  0.00    -0.255 OA 
HETATM   10  N   UNL     1     -11.385   6.497  71.121  1.00  0.00    -0.299 N  
HETATM   11  H   UNL     1     -11.705   5.731  71.712  1.00  0.00     0.000 HD 
ENDROOT
BRANCH   3  12
HETATM   12  C   UNL     1     -10.311   9.537  68.348  1.00  0.00    -0.206 C  
BRANCH  12  13
HETATM   13  N   UNL     1      -8.965  10.083  68.524  1.00  0.00    -0.121 NA 
HETATM   14  C   UNL     1      -7.842  11.741  67.310  1.00  0.00    -0.161 C  
HETATM   15  C   UNL     1      -6.916  10.530  67.390  1.00  0.00    -0.085 C  
HETATM   16  C   UNL     1      -8.810  11.538  68.474  1.00  0.00    -0.139 C  
HETATM   17  C   UNL     1      -7.868   9.491  67.937  1.00  0.00    -0.091 C  
HETATM   18  N   UNL     1      -7.647   8.225  67.840  1.00  0.00    -0.100 NA 
HETATM   19  H2  UNL     1      -8.351   7.602  68.235  1.00  0.00     0.000 HD 
HETATM   20  H1  UNL     1      -6.835   7.787  67.405  1.00  0.00     0.000 HD 
ENDBRANCH  12  13
ENDBRANCH   3  12
TORSDOF 2
ENDMDL
MODEL      208
REMARK 921   NORMALIZED FREE ENERGY PREDICTED BY IDOCK:   -3.17 KCAL/MOL
REMARK 922        TOTAL FREE ENERGY PREDICTED BY IDOCK:   -3.88 KCAL/MOL
REMARK 923 INTER-LIGAND FREE ENERGY PREDICTED BY IDOCK:   -3.53 KCAL/MOL
REMARK 924 INTRA-LIGAND FREE ENERGY PREDICTED BY IDOCK:   -0.36 KCAL/MOL
REMARK 927      BINDING AFFINITY PREDICTED BY RF-SCORE:    0.00 PKD
ROOT
HETATM    1 CL   UNL     1      -9.668   7.033  67.946  1.00  0.00    -0.133 Cl 
HETATM    2  C   UNL     1      -8.838   8.327  68.721  1.00  0.00    -0.137 C  
HETATM    3  C   UNL     1      -9.273   9.601  68.751  1.00  0.00    -0.141 C  
HETATM    4  C   UNL     1      -7.543   7.997  69.389  1.00  0.00    -0.102 C  
HETATM    5  N   UNL     1      -8.488  10.565  69.357  1.00  0.00    -0.311 N  
HETATM    6  C   UNL     1      -7.262  10.350  69.909  1.00  0.00    -0.153 C  
HETATM    7  O   UNL     1      -7.127   6.848  69.508  1.00  0.00    -0.070 OA 
HETATM    8  H   UNL     1      -8.857  11.515  69.393  1.00  0.00     0.000 HD 
HETATM    9  O   UNL     1      -6.586  11.243  70.407  1.00  0.00    -0.248 OA 
HETATM   10  N   UNL     1      -6.824   9.058  69.870  1.00  0.00    -0.045 N  
HETATM   11  H   UNL     1      -5.888   8.868  70.227  1.00  0.00     0.000 HD 
ENDROOT
BRANCH   3  12
HETATM   12  C   UNL     1     -10.541  10.106  68.090  1.00  0.00    -0.223 C  
BRANCH  12  13
HETATM   13  N   UNL     1     -10.260  11.024  66.985  1.00  0.00    -0.203 NA 
HETATM   14  C   UNL     1     -11.700  12.439  65.798  1.00  0.00    -0.470 C  
HETATM   15  C   UNL     1     -10.921  11.619  64.773  1.00  0.00    -0.351 C  
HETATM   16  C   UNL     1     -10.836  12.368  67.056  1.00  0.00    -0.246 C  
HETATM   17  C   UNL     1     -10.270  10.596  65.675  1.00  0.00    -0.253 C  
HETATM   18  N   UNL     1      -9.804   9.478  65.236  1.00  0.00    -0.441 NA 
HETATM   19  H2  UNL     1      -9.387   8.850  65.924  1.00  0.00     0.000 HD 
HETATM   20  H1  UNL     1      -9.811   9.161  64.267  1.00  0.00     0.000 HD 
ENDBRANCH  12  13
ENDBRANCH   3  12
TORSDOF 2
ENDMDL
MODEL      209
REMARK 921   NORMALIZED FREE ENERGY PREDICTED BY IDOCK:   -3.16 KCAL/MOL
REMARK 922        TOTAL FREE ENERGY PREDICTED BY IDOCK:   -3.88 KCAL/MOL
REMARK 923 INTER-LIGAND FREE ENERGY PREDICTED BY IDOCK:   -3.56 KCAL/MOL
REMARK 924 INTRA-LIGAND FREE ENERGY PREDICTED BY IDOCK:   -0.32 KCAL/MOL
REMARK 927      BINDING AFFINITY PREDICTED BY RF-SCORE:    0.00 PKD
ROOT
HETATM    1 CL   UNL     1     -10.164   9.613  68.447  1.00  0.00    -0.203 Cl 
HETATM    2  C   UNL     1     -10.139   7.906  68.665  1.00  0.00    -0.197 C  
HETATM    3  C   UNL     1     -10.818   7.250  69.625  1.00  0.00    -0.222 C  
HETATM    4  C   UNL     1      -9.289   7.116  67.723  1.00  0.00    -0.127 C  
HETATM    5  N   UNL     1     -10.673   5.879  69.735  1.00  0.00    -0.309 N  
HETATM    6  C   UNL     1      -9.853   5.110  68.967  1.00  0.00    -0.176 C  
HETATM    7  O   UNL     1      -8.726   7.615  66.753  1.00  0.00    -0.123 OA 
HETATM    8  H   UNL     1     -11.224   5.406  70.450  1.00  0.00     0.000 HD 
HETATM    9  O   UNL     1      -9.730   3.900  69.122  1.00  0.00    -0.176 OA 
HETATM   10  N   UNL     1      -9.162   5.781  68.000  1.00  0.00    -0.109 N  
HETATM   11  H   UNL     1      -8.498   5.246  67.440  1.00  0.00     0.000 HD 
ENDROOT
BRANCH   3  12
HETATM   12  C   UNL     1     -11.689   7.906  70.679  1.00  0.00    -0.157 C  
BRANCH  12  13
HETATM   13  N   UNL     1     -11.054   7.907  71.997  1.00  0.00    -0.261 NA 
HETATM   14  C   UNL     1      -8.816   7.557  72.591  1.00  0.00    -0.180 C  
HETATM   15  C   UNL     1      -9.666   6.631  73.457  1.00  0.00    -0.213 C  
HETATM   16  C   UNL     1      -9.795   8.640  72.144  1.00  0.00    -0.317 C  
HETATM   17  C   UNL     1     -11.007   6.769  72.774  1.00  0.00    -0.270 C  
HETATM   18  N   UNL     1     -11.955   5.908  72.920  1.00  0.00    -0.515 NA 
HETATM   19  H2  UNL     1     -12.822   6.087  72.413  1.00  0.00     0.000 HD 
HETATM   20  H1  UNL     1     -11.920   5.066  73.494  1.00  0.00     0.000 HD 
ENDBRANCH  12  13
ENDBRANCH   3  12
TORSDOF 2
ENDMDL
MODEL      210
REMARK 921   NORMALIZED FREE ENERGY PREDICTED BY IDOCK:   -3.16 KCAL/MOL
REMARK 922        TOTAL FREE ENERGY PREDICTED BY IDOCK:   -3.87 KCAL/MOL
REMARK 923 INTER-LIGAND FREE ENERGY PREDICTED BY IDOCK:   -3.52 KCAL/MOL
REMARK 924 INTRA-LIGAND FREE ENERGY PREDICTED BY IDOCK:   -0.35 KCAL/MOL
REMARK 927      BINDING AFFINITY PREDICTED BY RF-SCORE:    0.00 PKD
ROOT
HETATM    1 CL   UNL     1      -8.734   5.499  67.599  1.00  0.00    -0.108 Cl 
HETATM    2  C   UNL     1      -9.939   6.003  68.720  1.00  0.00    -0.150 C  
HETATM    3  C   UNL     1     -10.554   7.200  68.689  1.00  0.00    -0.189 C  
HETATM    4  C   UNL     1     -10.303   5.039  69.802  1.00  0.00    -0.216 C  
HETATM    5  N   UNL     1     -11.467   7.512  69.681  1.00  0.00    -0.455 N  
HETATM    6  C   UNL     1     -11.782   6.717  70.740  1.00  0.00    -0.388 C  
HETATM    7  O   UNL     1      -9.876   3.888  69.842  1.00  0.00    -0.199 OA 
HETATM    8  H   UNL     1     -11.941   8.412  69.614  1.00  0.00     0.000 HD 
HETATM    9  O   UNL     1     -12.574   7.050  71.615  1.00  0.00    -0.352 OA 
HETATM   10  N   UNL     1     -11.150   5.508  70.769  1.00  0.00    -0.130 N  
HETATM   11  H   UNL     1     -11.321   4.908  71.575  1.00  0.00     0.000 HD 
ENDROOT
BRANCH   3  12
HETATM   12  C   UNL     1     -10.272   8.301  67.685  1.00  0.00    -0.231 C  
BRANCH  12  13
HETATM   13  N   UNL     1      -9.169   9.164  68.110  1.00  0.00    -0.132 NA 
HETATM   14  C   UNL     1      -7.164   8.625  69.193  1.00  0.00    -0.064 C  
HETATM   15  C   UNL     1      -7.813   9.762  69.978  1.00  0.00    -0.188 C  
HETATM   16  C   UNL     1      -7.806   8.722  67.810  1.00  0.00    -0.102 C  
HETATM   17  C   UNL     1      -9.181   9.794  69.336  1.00  0.00    -0.205 C  
HETATM   18  N   UNL     1     -10.201  10.345  69.898  1.00  0.00    -0.415 NA 
HETATM   19  H2  UNL     1     -11.083  10.311  69.388  1.00  0.00     0.000 HD 
HETATM   20  H1  UNL     1     -10.209  10.811  70.806  1.00  0.00     0.000 HD 
ENDBRANCH  12  13
ENDBRANCH   3  12
TORSDOF 2
ENDMDL
MODEL      211
REMARK 921   NORMALIZED FREE ENERGY PREDICTED BY IDOCK:   -3.15 KCAL/MOL
REMARK 922        TOTAL FREE ENERGY PREDICTED BY IDOCK:   -3.87 KCAL/MOL
REMARK 923 INTER-LIGAND FREE ENERGY PREDICTED BY IDOCK:   -3.64 KCAL/MOL
REMARK 924 INTRA-LIGAND FREE ENERGY PREDICTED BY IDOCK:   -0.23 KCAL/MOL
REMARK 927      BINDING AFFINITY PREDICTED BY RF-SCORE:    0.00 PKD
ROOT
HETATM    1 CL   UNL     1     -10.122   7.883  66.952  1.00  0.00    -0.337 Cl 
HETATM    2  C   UNL     1     -10.627   9.083  68.077  1.00  0.00    -0.186 C  
HETATM    3  C   UNL     1     -10.779   8.873  69.399  1.00  0.00    -0.181 C  
HETATM    4  C   UNL     1     -10.927  10.441  67.530  1.00  0.00    -0.295 C  
HETATM    5  N   UNL     1     -11.247   9.903  70.194  1.00  0.00    -0.271 N  
HETATM    6  C   UNL     1     -11.618  11.135  69.750  1.00  0.00    -0.334 C  
HETATM    7  O   UNL     1     -10.710  10.753  66.363  1.00  0.00    -0.234 OA 
HETATM    8  H   UNL     1     -11.321   9.725  71.195  1.00  0.00     0.000 HD 
HETATM    9  O   UNL     1     -12.060  12.009  70.488  1.00  0.00    -0.366 OA 
HETATM   10  N   UNL     1     -11.468  11.340  68.409  1.00  0.00    -0.283 N  
HETATM   11  H   UNL     1     -11.785  12.233  68.032  1.00  0.00     0.000 HD 
ENDROOT
BRANCH   3  12
HETATM   12  C   UNL     1     -10.556   7.548  70.102  1.00  0.00    -0.235 C  
BRANCH  12  13
HETATM   13  N   UNL     1      -9.136   7.274  70.327  1.00  0.00    -0.152 NA 
HETATM   14  C   UNL     1      -8.106   5.764  71.791  1.00  0.00    -0.118 C  
HETATM   15  C   UNL     1      -7.456   7.127  72.013  1.00  0.00    -0.085 C  
HETATM   16  C   UNL     1      -8.717   5.873  70.395  1.00  0.00    -0.139 C  
HETATM   17  C   UNL     1      -8.396   8.012  71.226  1.00  0.00    -0.117 C  
HETATM   18  N   UNL     1      -8.468   9.285  71.407  1.00  0.00    -0.304 NA 
HETATM   19  H2  UNL     1      -9.137   9.796  70.831  1.00  0.00     0.000 HD 
HETATM   20  H1  UNL     1      -7.920   9.831  72.073  1.00  0.00     0.000 HD 
ENDBRANCH  12  13
ENDBRANCH   3  12
TORSDOF 2
ENDMDL
MODEL      212
REMARK 921   NORMALIZED FREE ENERGY PREDICTED BY IDOCK:   -3.15 KCAL/MOL
REMARK 922        TOTAL FREE ENERGY PREDICTED BY IDOCK:   -3.86 KCAL/MOL
REMARK 923 INTER-LIGAND FREE ENERGY PREDICTED BY IDOCK:   -3.82 KCAL/MOL
REMARK 924 INTRA-LIGAND FREE ENERGY PREDICTED BY IDOCK:   -0.04 KCAL/MOL
REMARK 927      BINDING AFFINITY PREDICTED BY RF-SCORE:    0.00 PKD
ROOT
HETATM    1 CL   UNL     1      -9.653   8.169  66.956  1.00  0.00    -0.230 Cl 
HETATM    2  C   UNL     1      -9.829   7.125  68.313  1.00  0.00    -0.151 C  
HETATM    3  C   UNL     1      -9.546   7.472  69.583  1.00  0.00    -0.159 C  
HETATM    4  C   UNL     1     -10.317   5.738  68.042  1.00  0.00    -0.206 C  
HETATM    5  N   UNL     1      -9.673   6.525  70.583  1.00  0.00    -0.179 N  
HETATM    6  C   UNL     1     -10.031   5.224  70.396  1.00  0.00    -0.233 C  
HETATM    7  O   UNL     1     -10.704   5.371  66.936  1.00  0.00    -0.271 OA 
HETATM    8  H   UNL     1      -9.484   6.825  71.539  1.00  0.00     0.000 HD 
HETATM    9  O   UNL     1     -10.098   4.410  71.310  1.00  0.00    -0.186 OA 
HETATM   10  N   UNL     1     -10.309   4.877  69.106  1.00  0.00    -0.117 N  
HETATM   11  H   UNL     1     -10.530   3.899  68.920  1.00  0.00     0.000 HD 
ENDROOT
BRANCH   3  12
HETATM   12  C   UNL     1      -9.006   8.820  70.019  1.00  0.00    -0.158 C  
BRANCH  12  13
HETATM   13  N   UNL     1     -10.027   9.638  70.675  1.00  0.00    -0.269 NA 
HETATM   14  C   UNL     1     -12.195   9.076  71.362  1.00  0.00    -0.387 C  
HETATM   15  C   UNL     1     -12.298  10.349  70.526  1.00  0.00    -0.410 C  
HETATM   16  C   UNL     1     -10.736   9.054  71.815  1.00  0.00    -0.367 C  
HETATM   17  C   UNL     1     -10.904  10.412  69.946  1.00  0.00    -0.298 C  
HETATM   18  N   UNL     1     -10.616  11.108  68.900  1.00  0.00    -0.199 NA 
HETATM   19  H2  UNL     1      -9.647  11.083  68.582  1.00  0.00     0.000 HD 
HETATM   20  H1  UNL     1     -11.265  11.681  68.361  1.00  0.00     0.000 HD 
ENDBRANCH  12  13
ENDBRANCH   3  12
TORSDOF 2
ENDMDL
MODEL      213
REMARK 921   NORMALIZED FREE ENERGY PREDICTED BY IDOCK:   -3.14 KCAL/MOL
REMARK 922        TOTAL FREE ENERGY PREDICTED BY IDOCK:   -3.85 KCAL/MOL
REMARK 923 INTER-LIGAND FREE ENERGY PREDICTED BY IDOCK:   -3.38 KCAL/MOL
REMARK 924 INTRA-LIGAND FREE ENERGY PREDICTED BY IDOCK:   -0.47 KCAL/MOL
REMARK 927      BINDING AFFINITY PREDICTED BY RF-SCORE:    0.00 PKD
ROOT
HETATM    1 CL   UNL     1     -10.571   7.439  73.426  1.00  0.00    -0.430 Cl 
HETATM    2  C   UNL     1     -10.638   6.965  71.773  1.00  0.00    -0.212 C  
HETATM    3  C   UNL     1      -9.559   6.710  71.009  1.00  0.00    -0.171 C  
HETATM    4  C   UNL     1     -11.995   6.845  71.157  1.00  0.00    -0.366 C  
HETATM    5  N   UNL     1      -9.739   6.392  69.675  1.00  0.00    -0.152 N  
HETATM    6  C   UNL     1     -10.937   6.348  69.030  1.00  0.00    -0.348 C  
HETATM    7  O   UNL     1     -13.033   6.949  71.804  1.00  0.00    -0.363 OA 
HETATM    8  H   UNL     1      -8.906   6.173  69.130  1.00  0.00     0.000 HD 
HETATM    9  O   UNL     1     -11.047   6.094  67.836  1.00  0.00    -0.328 OA 
HETATM   10  N   UNL     1     -12.027   6.614  69.808  1.00  0.00    -0.618 N  
HETATM   11  H   UNL     1     -12.937   6.642  69.348  1.00  0.00     0.000 HD 
ENDROOT
BRANCH   3  12
HETATM   12  C   UNL     1      -8.118   6.824  71.469  1.00  0.00    -0.110 C  
BRANCH  12  13
HETATM   13  N   UNL     1      -7.552   5.526  71.838  1.00  0.00    -0.097 NA 
HETATM   14  C   UNL     1      -5.504   5.009  72.849  1.00  0.00    -0.013 C  
HETATM   15  C   UNL     1      -5.628   4.138  71.601  1.00  0.00    -0.008 C  
HETATM   16  C   UNL     1      -6.946   5.402  73.165  1.00  0.00    -0.080 C  
HETATM   17  C   UNL     1      -6.826   4.777  70.937  1.00  0.00    -0.036 C  
HETATM   18  N   UNL     1      -7.094   4.622  69.686  1.00  0.00    -0.049 NA 
HETATM   19  H2  UNL     1      -7.922   5.098  69.329  1.00  0.00     0.000 HD 
HETATM   20  H1  UNL     1      -6.556   4.067  69.019  1.00  0.00     0.000 HD 
ENDBRANCH  12  13
ENDBRANCH   3  12
TORSDOF 2
ENDMDL
MODEL      214
REMARK 921   NORMALIZED FREE ENERGY PREDICTED BY IDOCK:   -3.14 KCAL/MOL
REMARK 922        TOTAL FREE ENERGY PREDICTED BY IDOCK:   -3.85 KCAL/MOL
REMARK 923 INTER-LIGAND FREE ENERGY PREDICTED BY IDOCK:   -3.72 KCAL/MOL
REMARK 924 INTRA-LIGAND FREE ENERGY PREDICTED BY IDOCK:   -0.13 KCAL/MOL
REMARK 927      BINDING AFFINITY PREDICTED BY RF-SCORE:    0.00 PKD
ROOT
HETATM    1 CL   UNL     1      -9.451   3.756  69.475  1.00  0.00    -0.250 Cl 
HETATM    2  C   UNL     1      -9.826   5.259  68.724  1.00  0.00    -0.161 C  
HETATM    3  C   UNL     1     -10.610   6.208  69.269  1.00  0.00    -0.285 C  
HETATM    4  C   UNL     1      -9.244   5.502  67.369  1.00  0.00    -0.110 C  
HETATM    5  N   UNL     1     -10.885   7.352  68.542  1.00  0.00    -0.417 N  
HETATM    6  C   UNL     1     -10.458   7.601  67.273  1.00  0.00    -0.326 C  
HETATM    7  O   UNL     1      -8.433   4.745  66.845  1.00  0.00    -0.107 OA 
HETATM    8  H   UNL     1     -11.454   8.067  68.993  1.00  0.00     0.000 HD 
HETATM    9  O   UNL     1     -10.755   8.616  66.654  1.00  0.00    -0.180 OA 
HETATM   10  N   UNL     1      -9.670   6.631  66.723  1.00  0.00    -0.165 N  
HETATM   11  H   UNL     1      -9.376   6.759  65.755  1.00  0.00     0.000 HD 
ENDROOT
BRANCH   3  12
HETATM   12  C   UNL     1     -11.305   6.099  70.612  1.00  0.00    -0.298 C  
BRANCH  12  13
HETATM   13  N   UNL     1     -10.745   7.022  71.600  1.00  0.00    -0.219 NA 
HETATM   14  C   UNL     1     -10.057   9.249  71.362  1.00  0.00    -0.348 C  
HETATM   15  C   UNL     1      -8.915   8.489  72.031  1.00  0.00    -0.301 C  
HETATM   16  C   UNL     1     -11.285   8.383  71.641  1.00  0.00    -0.278 C  
HETATM   17  C   UNL     1      -9.391   7.065  71.857  1.00  0.00    -0.140 C  
HETATM   18  N   UNL     1      -8.601   6.051  71.940  1.00  0.00    -0.136 NA 
HETATM   19  H2  UNL     1      -9.016   5.129  71.803  1.00  0.00     0.000 HD 
HETATM   20  H1  UNL     1      -7.599   6.083  72.131  1.00  0.00     0.000 HD 
ENDBRANCH  12  13
ENDBRANCH   3  12
TORSDOF 2
ENDMDL
MODEL      215
REMARK 921   NORMALIZED FREE ENERGY PREDICTED BY IDOCK:   -3.08 KCAL/MOL
REMARK 922        TOTAL FREE ENERGY PREDICTED BY IDOCK:   -3.78 KCAL/MOL
REMARK 923 INTER-LIGAND FREE ENERGY PREDICTED BY IDOCK:   -3.40 KCAL/MOL
REMARK 924 INTRA-LIGAND FREE ENERGY PREDICTED BY IDOCK:   -0.38 KCAL/MOL
REMARK 927      BINDING AFFINITY PREDICTED BY RF-SCORE:    0.00 PKD
ROOT
HETATM    1 CL   UNL     1     -10.609  11.394  68.557  1.00  0.00    -0.207 Cl 
HETATM    2  C   UNL     1     -11.089  10.051  69.520  1.00  0.00    -0.238 C  
HETATM    3  C   UNL     1     -10.661   8.788  69.332  1.00  0.00    -0.209 C  
HETATM    4  C   UNL     1     -12.059  10.321  70.624  1.00  0.00    -0.338 C  
HETATM    5  N   UNL     1     -11.164   7.781  70.136  1.00  0.00    -0.399 N  
HETATM    6  C   UNL     1     -12.109   7.942  71.103  1.00  0.00    -0.276 C  
HETATM    7  O   UNL     1     -12.416  11.453  70.937  1.00  0.00    -0.370 OA 
HETATM    8  H   UNL     1     -10.797   6.841  69.993  1.00  0.00     0.000 HD 
HETATM    9  O   UNL     1     -12.550   7.013  71.770  1.00  0.00    -0.344 OA 
HETATM   10  N   UNL     1     -12.544   9.223  71.283  1.00  0.00    -0.367 N  
HETATM   11  H   UNL     1     -13.290   9.375  71.962  1.00  0.00     0.000 HD 
ENDROOT
BRANCH   3  12
HETATM   12  C   UNL     1      -9.712   8.342  68.236  1.00  0.00    -0.155 C  
BRANCH  12  13
HETATM   13  N   UNL     1      -8.311   8.425  68.651  1.00  0.00    -0.120 NA 
HETATM   14  C   UNL     1      -6.373   8.689  67.363  1.00  0.00    -0.057 C  
HETATM   15  C   UNL     1      -6.147   7.494  68.286  1.00  0.00    -0.036 C  
HETATM   16  C   UNL     1      -7.487   9.476  68.051  1.00  0.00    -0.083 C  
HETATM   17  C   UNL     1      -7.545   7.292  68.824  1.00  0.00    -0.104 C  
HETATM   18  N   UNL     1      -7.932   6.187  69.361  1.00  0.00    -0.103 NA 
HETATM   19  H2  UNL     1      -8.897   6.147  69.690  1.00  0.00     0.000 HD 
HETATM   20  H1  UNL     1      -7.364   5.349  69.489  1.00  0.00     0.000 HD 
ENDBRANCH  12  13
ENDBRANCH   3  12
TORSDOF 2
ENDMDL
MODEL      216
REMARK 921   NORMALIZED FREE ENERGY PREDICTED BY IDOCK:   -3.07 KCAL/MOL
REMARK 922        TOTAL FREE ENERGY PREDICTED BY IDOCK:   -3.77 KCAL/MOL
REMARK 923 INTER-LIGAND FREE ENERGY PREDICTED BY IDOCK:   -3.63 KCAL/MOL
REMARK 924 INTRA-LIGAND FREE ENERGY PREDICTED BY IDOCK:   -0.14 KCAL/MOL
REMARK 927      BINDING AFFINITY PREDICTED BY RF-SCORE:    0.00 PKD
ROOT
HETATM    1 CL   UNL     1      -8.159  10.415  68.072  1.00  0.00    -0.109 Cl 
HETATM    2  C   UNL     1      -9.337  11.598  67.649  1.00  0.00    -0.178 C  
HETATM    3  C   UNL     1      -9.063  12.895  67.416  1.00  0.00    -0.197 C  
HETATM    4  C   UNL     1     -10.755  11.137  67.553  1.00  0.00    -0.236 C  
HETATM    5  N   UNL     1     -10.104  13.763  67.141  1.00  0.00    -0.239 N  
HETATM    6  C   UNL     1     -11.424  13.429  67.121  1.00  0.00    -0.339 C  
HETATM    7  O   UNL     1     -11.081   9.957  67.639  1.00  0.00    -0.267 OA 
HETATM    8  H   UNL     1      -9.864  14.733  66.937  1.00  0.00     0.000 HD 
HETATM    9  O   UNL     1     -12.317  14.240  66.904  1.00  0.00    -0.408 OA 
HETATM   10  N   UNL     1     -11.695  12.114  67.365  1.00  0.00    -0.333 N  
HETATM   11  H   UNL     1     -12.676  11.837  67.409  1.00  0.00     0.000 HD 
ENDROOT
BRANCH   3  12
HETATM   12  C   UNL     1      -7.688  13.528  67.512  1.00  0.00    -0.175 C  
BRANCH  12  13
HETATM   13  N   UNL     1      -7.685  14.717  68.365  1.00  0.00    -0.118 NA 
HETATM   14  C   UNL     1      -6.460  16.704  68.175  1.00  0.00    -0.141 C  
HETATM   15  C   UNL     1      -6.270  16.186  69.599  1.00  0.00    -0.191 C  
HETATM   16  C   UNL     1      -7.746  16.024  67.708  1.00  0.00    -0.138 C  
HETATM   17  C   UNL     1      -6.869  14.804  69.472  1.00  0.00    -0.169 C  
HETATM   18  N   UNL     1      -6.618  13.858  70.310  1.00  0.00    -0.395 NA 
HETATM   19  H2  UNL     1      -7.067  12.958  70.136  1.00  0.00     0.000 HD 
HETATM   20  H1  UNL     1      -6.014  13.923  71.129  1.00  0.00     0.000 HD 
ENDBRANCH  12  13
ENDBRANCH   3  12
TORSDOF 2
ENDMDL
MODEL      217
REMARK 921   NORMALIZED FREE ENERGY PREDICTED BY IDOCK:   -3.04 KCAL/MOL
REMARK 922        TOTAL FREE ENERGY PREDICTED BY IDOCK:   -3.74 KCAL/MOL
REMARK 923 INTER-LIGAND FREE ENERGY PREDICTED BY IDOCK:   -3.60 KCAL/MOL
REMARK 924 INTRA-LIGAND FREE ENERGY PREDICTED BY IDOCK:   -0.14 KCAL/MOL
REMARK 927      BINDING AFFINITY PREDICTED BY RF-SCORE:    0.00 PKD
ROOT
HETATM    1 CL   UNL     1      -9.525  12.009  68.245  1.00  0.00    -0.199 Cl 
HETATM    2  C   UNL     1      -9.923  10.393  67.806  1.00  0.00    -0.175 C  
HETATM    3  C   UNL     1      -9.781   9.883  66.568  1.00  0.00    -0.204 C  
HETATM    4  C   UNL     1     -10.476   9.516  68.882  1.00  0.00    -0.216 C  
HETATM    5  N   UNL     1     -10.191   8.584  66.325  1.00  0.00    -0.416 N  
HETATM    6  C   UNL     1     -10.779   7.760  67.235  1.00  0.00    -0.255 C  
HETATM    7  O   UNL     1     -10.536   9.860  70.059  1.00  0.00    -0.247 OA 
HETATM    8  H   UNL     1     -10.041   8.214  65.386  1.00  0.00     0.000 HD 
HETATM    9  O   UNL     1     -11.157   6.625  66.965  1.00  0.00    -0.403 OA 
HETATM   10  N   UNL     1     -10.927   8.285  68.486  1.00  0.00    -0.426 N  
HETATM   11  H   UNL     1     -11.410   7.716  69.180  1.00  0.00     0.000 HD 
ENDROOT
BRANCH   3  12
HETATM   12  C   UNL     1      -9.274  10.649  65.361  1.00  0.00    -0.193 C  
BRANCH  12  13
HETATM   13  N   UNL     1      -7.914  10.258  64.991  1.00  0.00    -0.147 NA 
HETATM   14  C   UNL     1      -6.746   8.274  65.421  1.00  0.00    -0.052 C  
HETATM   15  C   UNL     1      -5.853   9.432  65.861  1.00  0.00    -0.054 C  
HETATM   16  C   UNL     1      -7.720   8.918  64.435  1.00  0.00    -0.120 C  
HETATM   17  C   UNL     1      -6.833  10.581  65.783  1.00  0.00    -0.127 C  
HETATM   18  N   UNL     1      -6.646  11.697  66.398  1.00  0.00    -0.365 NA 
HETATM   19  H2  UNL     1      -7.367  12.411  66.288  1.00  0.00     0.000 HD 
HETATM   20  H1  UNL     1      -5.846  11.935  66.985  1.00  0.00     0.000 HD 
ENDBRANCH  12  13
ENDBRANCH   3  12
TORSDOF 2
ENDMDL
MODEL      218
REMARK 921   NORMALIZED FREE ENERGY PREDICTED BY IDOCK:   -3.04 KCAL/MOL
REMARK 922        TOTAL FREE ENERGY PREDICTED BY IDOCK:   -3.74 KCAL/MOL
REMARK 923 INTER-LIGAND FREE ENERGY PREDICTED BY IDOCK:   -3.42 KCAL/MOL
REMARK 924 INTRA-LIGAND FREE ENERGY PREDICTED BY IDOCK:   -0.32 KCAL/MOL
REMARK 927      BINDING AFFINITY PREDICTED BY RF-SCORE:    0.00 PKD
ROOT
HETATM    1 CL   UNL     1     -10.022   7.876  73.077  1.00  0.00    -0.347 Cl 
HETATM    2  C   UNL     1     -10.283   7.241  71.499  1.00  0.00    -0.193 C  
HETATM    3  C   UNL     1      -9.302   6.848  70.664  1.00  0.00    -0.162 C  
HETATM    4  C   UNL     1     -11.700   7.140  71.035  1.00  0.00    -0.320 C  
HETATM    5  N   UNL     1      -9.635   6.408  69.396  1.00  0.00    -0.143 N  
HETATM    6  C   UNL     1     -10.895   6.369  68.880  1.00  0.00    -0.325 C  
HETATM    7  O   UNL     1     -12.659   7.369  71.766  1.00  0.00    -0.320 OA 
HETATM    8  H   UNL     1      -8.875   6.086  68.798  1.00  0.00     0.000 HD 
HETATM    9  O   UNL     1     -11.139   6.002  67.737  1.00  0.00    -0.300 OA 
HETATM   10  N   UNL     1     -11.884   6.776  69.729  1.00  0.00    -0.651 N  
HETATM   11  H   UNL     1     -12.834   6.810  69.360  1.00  0.00     0.000 HD 
ENDROOT
BRANCH   3  12
HETATM   12  C   UNL     1      -7.818   6.923  70.966  1.00  0.00    -0.097 C  
BRANCH  12  13
HETATM   13  N   UNL     1      -7.162   8.011  70.239  1.00  0.00    -0.052 NA 
HETATM   14  C   UNL     1      -8.023  10.054  69.485  1.00  0.00    -0.161 C  
HETATM   15  C   UNL     1      -7.322   9.391  68.302  1.00  0.00    -0.078 C  
HETATM   16  C   UNL     1      -7.399   9.378  70.705  1.00  0.00    -0.131 C  
HETATM   17  C   UNL     1      -7.080   8.009  68.863  1.00  0.00    -0.067 C  
HETATM   18  N   UNL     1      -6.838   6.987  68.117  1.00  0.00    -0.071 NA 
HETATM   19  H2  UNL     1      -6.693   6.095  68.589  1.00  0.00     0.000 HD 
HETATM   20  H1  UNL     1      -6.778   6.986  67.098  1.00  0.00     0.000 HD 
ENDBRANCH  12  13
ENDBRANCH   3  12
TORSDOF 2
ENDMDL
MODEL      219
REMARK 921   NORMALIZED FREE ENERGY PREDICTED BY IDOCK:   -3.03 KCAL/MOL
REMARK 922        TOTAL FREE ENERGY PREDICTED BY IDOCK:   -3.73 KCAL/MOL
REMARK 923 INTER-LIGAND FREE ENERGY PREDICTED BY IDOCK:   -3.73 KCAL/MOL
REMARK 924 INTRA-LIGAND FREE ENERGY PREDICTED BY IDOCK:    0.00 KCAL/MOL
REMARK 927      BINDING AFFINITY PREDICTED BY RF-SCORE:    0.00 PKD
ROOT
HETATM    1 CL   UNL     1      -7.223  14.992  69.259  1.00  0.00    -0.164 Cl 
HETATM    2  C   UNL     1      -8.274  15.712  68.101  1.00  0.00    -0.144 C  
HETATM    3  C   UNL     1      -9.505  15.256  67.803  1.00  0.00    -0.197 C  
HETATM    4  C   UNL     1      -7.762  16.915  67.377  1.00  0.00    -0.171 C  
HETATM    5  N   UNL     1     -10.234  15.887  66.811  1.00  0.00    -0.274 N  
HETATM    6  C   UNL     1      -9.797  16.932  66.056  1.00  0.00    -0.258 C  
HETATM    7  O   UNL     1      -6.701  17.464  67.662  1.00  0.00    -0.149 OA 
HETATM    8  H   UNL     1     -11.175  15.540  66.630  1.00  0.00     0.000 HD 
HETATM    9  O   UNL     1     -10.466  17.439  65.163  1.00  0.00    -0.619 OA 
HETATM   10  N   UNL     1      -8.545  17.385  66.358  1.00  0.00    -0.255 N  
HETATM   11  H   UNL     1      -8.164  18.133  65.779  1.00  0.00     0.000 HD 
ENDROOT
BRANCH   3  12
HETATM   12  C   UNL     1     -10.153  14.029  68.415  1.00  0.00    -0.236 C  
BRANCH  12  13
HETATM   13  N   UNL     1      -9.731  12.794  67.754  1.00  0.00    -0.201 NA 
HETATM   14  C   UNL     1     -10.101  12.058  65.561  1.00  0.00    -0.281 C  
HETATM   15  C   UNL     1     -10.520  10.927  66.498  1.00  0.00    -0.308 C  
HETATM   16  C   UNL     1      -9.156  12.905  66.412  1.00  0.00    -0.074 C  
HETATM   17  C   UNL     1     -10.488  11.645  67.828  1.00  0.00    -0.187 C  
HETATM   18  N   UNL     1     -11.108  11.207  68.870  1.00  0.00    -0.215 NA 
HETATM   19  H2  UNL     1     -11.030  11.765  69.720  1.00  0.00     0.000 HD 
HETATM   20  H1  UNL     1     -11.668  10.357  68.924  1.00  0.00     0.000 HD 
ENDBRANCH  12  13
ENDBRANCH   3  12
TORSDOF 2
ENDMDL
MODEL      220
REMARK 921   NORMALIZED FREE ENERGY PREDICTED BY IDOCK:   -3.02 KCAL/MOL
REMARK 922        TOTAL FREE ENERGY PREDICTED BY IDOCK:   -3.72 KCAL/MOL
REMARK 923 INTER-LIGAND FREE ENERGY PREDICTED BY IDOCK:   -3.27 KCAL/MOL
REMARK 924 INTRA-LIGAND FREE ENERGY PREDICTED BY IDOCK:   -0.45 KCAL/MOL
REMARK 927      BINDING AFFINITY PREDICTED BY RF-SCORE:    0.00 PKD
ROOT
HETATM    1 CL   UNL     1      -6.497  12.273  68.045  1.00  0.00    -0.068 Cl 
HETATM    2  C   UNL     1      -7.927  12.266  67.086  1.00  0.00    -0.161 C  
HETATM    3  C   UNL     1      -8.862  13.235  67.106  1.00  0.00    -0.222 C  
HETATM    4  C   UNL     1      -8.134  11.091  66.187  1.00  0.00    -0.141 C  
HETATM    5  N   UNL     1      -9.998  13.089  66.331  1.00  0.00    -0.271 N  
HETATM    6  C   UNL     1     -10.289  12.009  65.555  1.00  0.00    -0.263 C  
HETATM    7  O   UNL     1      -7.285  10.219  66.021  1.00  0.00    -0.114 OA 
HETATM    8  H   UNL     1     -10.673  13.853  66.341  1.00  0.00     0.000 HD 
HETATM    9  O   UNL     1     -11.326  11.908  64.910  1.00  0.00    -0.316 OA 
HETATM   10  N   UNL     1      -9.341  11.027  65.545  1.00  0.00    -0.209 N  
HETATM   11  H   UNL     1      -9.548  10.180  65.017  1.00  0.00     0.000 HD 
ENDROOT
BRANCH   3  12
HETATM   12  C   UNL     1      -8.822  14.468  67.989  1.00  0.00    -0.175 C  
BRANCH  12  13
HETATM   13  N   UNL     1      -8.578  15.689  67.220  1.00  0.00    -0.180 NA 
HETATM   14  C   UNL     1      -8.018  17.842  67.951  1.00  0.00    -0.235 C  
HETATM   15  C   UNL     1      -9.211  17.978  67.009  1.00  0.00    -0.265 C  
HETATM   16  C   UNL     1      -7.407  16.493  67.575  1.00  0.00    -0.142 C  
HETATM   17  C   UNL     1      -9.611  16.528  66.859  1.00  0.00    -0.243 C  
HETATM   18  N   UNL     1     -10.777  16.166  66.449  1.00  0.00    -0.261 NA 
HETATM   19  H2  UNL     1     -10.953  15.163  66.385  1.00  0.00     0.000 HD 
HETATM   20  H1  UNL     1     -11.541  16.787  66.181  1.00  0.00     0.000 HD 
ENDBRANCH  12  13
ENDBRANCH   3  12
TORSDOF 2
ENDMDL
MODEL      221
REMARK 921   NORMALIZED FREE ENERGY PREDICTED BY IDOCK:   -3.02 KCAL/MOL
REMARK 922        TOTAL FREE ENERGY PREDICTED BY IDOCK:   -3.72 KCAL/MOL
REMARK 923 INTER-LIGAND FREE ENERGY PREDICTED BY IDOCK:   -3.37 KCAL/MOL
REMARK 924 INTRA-LIGAND FREE ENERGY PREDICTED BY IDOCK:   -0.34 KCAL/MOL
REMARK 927      BINDING AFFINITY PREDICTED BY RF-SCORE:    0.00 PKD
ROOT
HETATM    1 CL   UNL     1      -7.394   8.865  68.090  1.00  0.00    -0.083 Cl 
HETATM    2  C   UNL     1      -8.759   9.835  67.694  1.00  0.00    -0.125 C  
HETATM    3  C   UNL     1      -8.689  11.110  67.264  1.00  0.00    -0.139 C  
HETATM    4  C   UNL     1     -10.106   9.209  67.857  1.00  0.00    -0.199 C  
HETATM    5  N   UNL     1      -9.861  11.806  67.032  1.00  0.00    -0.196 N  
HETATM    6  C   UNL     1     -11.118  11.326  67.240  1.00  0.00    -0.305 C  
HETATM    7  O   UNL     1     -10.261   8.023  68.136  1.00  0.00    -0.194 OA 
HETATM    8  H   UNL     1      -9.777  12.758  66.676  1.00  0.00     0.000 HD 
HETATM    9  O   UNL     1     -12.129  11.992  67.052  1.00  0.00    -0.603 OA 
HETATM   10  N   UNL     1     -11.182  10.037  67.682  1.00  0.00    -0.432 N  
HETATM   11  H   UNL     1     -12.104   9.660  67.900  1.00  0.00     0.000 HD 
ENDROOT
BRANCH   3  12
HETATM   12  C   UNL     1      -7.407  11.900  67.084  1.00  0.00    -0.142 C  
BRANCH  12  13
HETATM   13  N   UNL     1      -7.290  12.989  68.055  1.00  0.00    -0.107 NA 
HETATM   14  C   UNL     1      -5.727  14.728  68.186  1.00  0.00    -0.134 C  
HETATM   15  C   UNL     1      -5.781  14.061  69.558  1.00  0.00    -0.092 C  
HETATM   16  C   UNL     1      -7.053  14.338  67.537  1.00  0.00    -0.167 C  
HETATM   17  C   UNL     1      -6.593  12.829  69.233  1.00  0.00    -0.086 C  
HETATM   18  N   UNL     1      -6.601  11.782  69.985  1.00  0.00    -0.368 NA 
HETATM   19  H2  UNL     1      -7.177  10.998  69.679  1.00  0.00     0.000 HD 
HETATM   20  H1  UNL     1      -6.086  11.664  70.858  1.00  0.00     0.000 HD 
ENDBRANCH  12  13
ENDBRANCH   3  12
TORSDOF 2
ENDMDL
MODEL      222
REMARK 921   NORMALIZED FREE ENERGY PREDICTED BY IDOCK:   -2.97 KCAL/MOL
REMARK 922        TOTAL FREE ENERGY PREDICTED BY IDOCK:   -3.66 KCAL/MOL
REMARK 923 INTER-LIGAND FREE ENERGY PREDICTED BY IDOCK:   -3.38 KCAL/MOL
REMARK 924 INTRA-LIGAND FREE ENERGY PREDICTED BY IDOCK:   -0.28 KCAL/MOL
REMARK 927      BINDING AFFINITY PREDICTED BY RF-SCORE:    0.00 PKD
ROOT
HETATM    1 CL   UNL     1      -9.491   7.182  68.449  1.00  0.00    -0.138 Cl 
HETATM    2  C   UNL     1      -8.560   7.581  69.841  1.00  0.00    -0.139 C  
HETATM    3  C   UNL     1      -8.699   6.992  71.045  1.00  0.00    -0.139 C  
HETATM    4  C   UNL     1      -7.543   8.665  69.688  1.00  0.00    -0.080 C  
HETATM    5  N   UNL     1      -7.931   7.440  72.104  1.00  0.00    -0.092 N  
HETATM    6  C   UNL     1      -7.049   8.476  72.056  1.00  0.00    -0.084 C  
HETATM    7  O   UNL     1      -7.271   9.178  68.606  1.00  0.00    -0.073 OA 
HETATM    8  H   UNL     1      -8.034   6.954  72.995  1.00  0.00     0.000 HD 
HETATM    9  O   UNL     1      -6.413   8.860  73.031  1.00  0.00    -0.288 OA 
HETATM   10  N   UNL     1      -6.917   9.072  70.836  1.00  0.00    -0.083 N  
HETATM   11  H   UNL     1      -6.305   9.885  70.774  1.00  0.00     0.000 HD 
ENDROOT
BRANCH   3  12
HETATM   12  C   UNL     1      -9.707   5.909  71.374  1.00  0.00    -0.166 C  
BRANCH  12  13
HETATM   13  N   UNL     1     -11.011   6.462  71.743  1.00  0.00    -0.244 NA 
HETATM   14  C   UNL     1     -12.073   8.422  71.024  1.00  0.00    -0.218 C  
HETATM   15  C   UNL     1     -12.102   8.423  72.550  1.00  0.00    -0.403 C  
HETATM   16  C   UNL     1     -11.871   6.952  70.663  1.00  0.00    -0.368 C  
HETATM   17  C   UNL     1     -11.160   7.277  72.844  1.00  0.00    -0.325 C  
HETATM   18  N   UNL     1     -10.588   7.123  73.988  1.00  0.00    -0.539 NA 
HETATM   19  H2  UNL     1      -9.965   6.321  74.088  1.00  0.00     0.000 HD 
HETATM   20  H1  UNL     1     -10.699   7.726  74.803  1.00  0.00     0.000 HD 
ENDBRANCH  12  13
ENDBRANCH   3  12
TORSDOF 2
ENDMDL
MODEL      223
REMARK 921   NORMALIZED FREE ENERGY PREDICTED BY IDOCK:   -2.97 KCAL/MOL
REMARK 922        TOTAL FREE ENERGY PREDICTED BY IDOCK:   -3.66 KCAL/MOL
REMARK 923 INTER-LIGAND FREE ENERGY PREDICTED BY IDOCK:   -4.30 KCAL/MOL
REMARK 924 INTRA-LIGAND FREE ENERGY PREDICTED BY IDOCK:    0.64 KCAL/MOL
REMARK 927      BINDING AFFINITY PREDICTED BY RF-SCORE:    0.00 PKD
ROOT
HETATM    1 CL   UNL     1      -8.259  14.660  68.824  1.00  0.00    -0.155 Cl 
HETATM    2  C   UNL     1      -7.948  16.353  68.855  1.00  0.00    -0.236 C  
HETATM    3  C   UNL     1      -8.858  17.300  68.559  1.00  0.00    -0.269 C  
HETATM    4  C   UNL     1      -6.564  16.780  69.222  1.00  0.00    -0.223 C  
HETATM    5  N   UNL     1      -8.472  18.628  68.563  1.00  0.00    -0.335 N  
HETATM    6  C   UNL     1      -7.211  19.081  68.806  1.00  0.00    -0.323 C  
HETATM    7  O   UNL     1      -5.704  15.996  69.613  1.00  0.00    -0.125 OA 
HETATM    8  H   UNL     1      -9.190  19.325  68.367  1.00  0.00     0.000 HD 
HETATM    9  O   UNL     1      -6.906  20.268  68.765  1.00  0.00    -0.279 OA 
HETATM   10  N   UNL     1      -6.291  18.116  69.097  1.00  0.00    -0.241 N  
HETATM   11  H   UNL     1      -5.325  18.413  69.233  1.00  0.00     0.000 HD 
ENDROOT
BRANCH   3  12
HETATM   12  C   UNL     1     -10.288  17.032  68.130  1.00  0.00    -0.347 C  
BRANCH  12  13
HETATM   13  N   UNL     1     -10.496  15.637  67.743  1.00  0.00    -0.267 NA 
HETATM   14  C   UNL     1     -11.980  14.710  66.187  1.00  0.00    -0.250 C  
HETATM   15  C   UNL     1     -12.157  13.944  67.495  1.00  0.00    -0.366 C  
HETATM   16  C   UNL     1     -10.592  15.335  66.313  1.00  0.00    -0.309 C  
HETATM   17  C   UNL     1     -11.363  14.820  68.437  1.00  0.00    -0.299 C  
HETATM   18  N   UNL     1     -11.513  14.782  69.716  1.00  0.00    -0.277 NA 
HETATM   19  H2  UNL     1     -10.934  15.417  70.267  1.00  0.00     0.000 HD 
HETATM   20  H1  UNL     1     -12.155  14.178  70.229  1.00  0.00     0.000 HD 
ENDBRANCH  12  13
ENDBRANCH   3  12
TORSDOF 2
ENDMDL
MODEL      224
REMARK 921   NORMALIZED FREE ENERGY PREDICTED BY IDOCK:   -2.96 KCAL/MOL
REMARK 922        TOTAL FREE ENERGY PREDICTED BY IDOCK:   -3.65 KCAL/MOL
REMARK 923 INTER-LIGAND FREE ENERGY PREDICTED BY IDOCK:   -3.41 KCAL/MOL
REMARK 924 INTRA-LIGAND FREE ENERGY PREDICTED BY IDOCK:   -0.24 KCAL/MOL
REMARK 927      BINDING AFFINITY PREDICTED BY RF-SCORE:    0.00 PKD
ROOT
HETATM    1 CL   UNL     1      -7.934   7.325  65.203  1.00  0.00    -0.123 Cl 
HETATM    2  C   UNL     1      -7.413   8.825  65.867  1.00  0.00    -0.089 C  
HETATM    3  C   UNL     1      -7.832   9.322  67.046  1.00  0.00    -0.098 C  
HETATM    4  C   UNL     1      -6.441   9.622  65.059  1.00  0.00    -0.090 C  
HETATM    5  N   UNL     1      -7.384  10.568  67.447  1.00  0.00    -0.092 N  
HETATM    6  C   UNL     1      -6.567  11.382  66.724  1.00  0.00    -0.136 C  
HETATM    7  O   UNL     1      -5.922   9.198  64.030  1.00  0.00    -0.070 OA 
HETATM    8  H   UNL     1      -7.692  10.905  68.359  1.00  0.00     0.000 HD 
HETATM    9  O   UNL     1      -6.222  12.495  67.106  1.00  0.00    -0.187 OA 
HETATM   10  N   UNL     1      -6.152  10.876  65.527  1.00  0.00    -0.338 N  
HETATM   11  H   UNL     1      -5.581  11.478  64.935  1.00  0.00     0.000 HD 
ENDROOT
BRANCH   3  12
HETATM   12  C   UNL     1      -8.842   8.660  67.963  1.00  0.00    -0.141 C  
BRANCH  12  13
HETATM   13  N   UNL     1      -9.360   9.584  68.972  1.00  0.00    -0.151 NA 
HETATM   14  C   UNL     1     -10.143   9.162  71.139  1.00  0.00    -0.384 C  
HETATM   15  C   UNL     1     -11.205   9.996  70.425  1.00  0.00    -0.393 C  
HETATM   16  C   UNL     1      -8.868   9.437  70.344  1.00  0.00    -0.249 C  
HETATM   17  C   UNL     1     -10.692   9.939  69.005  1.00  0.00    -0.222 C  
HETATM   18  N   UNL     1     -11.437  10.191  67.985  1.00  0.00    -0.643 NA 
HETATM   19  H2  UNL     1     -11.000  10.122  67.066  1.00  0.00     0.000 HD 
HETATM   20  H1  UNL     1     -12.422  10.454  68.009  1.00  0.00     0.000 HD 
ENDBRANCH  12  13
ENDBRANCH   3  12
TORSDOF 2
ENDMDL
MODEL      225
REMARK 921   NORMALIZED FREE ENERGY PREDICTED BY IDOCK:   -2.96 KCAL/MOL
REMARK 922        TOTAL FREE ENERGY PREDICTED BY IDOCK:   -3.65 KCAL/MOL
REMARK 923 INTER-LIGAND FREE ENERGY PREDICTED BY IDOCK:   -3.40 KCAL/MOL
REMARK 924 INTRA-LIGAND FREE ENERGY PREDICTED BY IDOCK:   -0.25 KCAL/MOL
REMARK 927      BINDING AFFINITY PREDICTED BY RF-SCORE:    0.00 PKD
ROOT
HETATM    1 CL   UNL     1      -8.812   8.125  67.565  1.00  0.00    -0.134 Cl 
HETATM    2  C   UNL     1      -9.981   7.622  68.724  1.00  0.00    -0.174 C  
HETATM    3  C   UNL     1     -10.444   6.363  68.841  1.00  0.00    -0.223 C  
HETATM    4  C   UNL     1     -10.517   8.670  69.645  1.00  0.00    -0.220 C  
HETATM    5  N   UNL     1     -11.428   6.092  69.775  1.00  0.00    -0.401 N  
HETATM    6  C   UNL     1     -12.019   7.013  70.586  1.00  0.00    -0.313 C  
HETATM    7  O   UNL     1     -10.073   9.813  69.684  1.00  0.00    -0.200 OA 
HETATM    8  H   UNL     1     -11.736   5.124  69.863  1.00  0.00     0.000 HD 
HETATM    9  O   UNL     1     -12.912   6.732  71.377  1.00  0.00    -0.314 OA 
HETATM   10  N   UNL     1     -11.550   8.288  70.457  1.00  0.00    -0.444 N  
HETATM   11  H   UNL     1     -12.005   9.013  71.011  1.00  0.00     0.000 HD 
ENDROOT
BRANCH   3  12
HETATM   12  C   UNL     1     -10.035   5.197  67.961  1.00  0.00    -0.145 C  
BRANCH  12  13
HETATM   13  N   UNL     1      -9.208   4.227  68.680  1.00  0.00    -0.130 NA 
HETATM   14  C   UNL     1      -6.878   4.067  68.851  1.00  0.00    -0.046 C  
HETATM   15  C   UNL     1      -7.398   2.695  68.431  1.00  0.00    -0.048 C  
HETATM   16  C   UNL     1      -8.095   4.743  69.479  1.00  0.00    -0.069 C  
HETATM   17  C   UNL     1      -8.834   3.034  68.101  1.00  0.00    -0.125 C  
HETATM   18  N   UNL     1      -9.575   2.280  67.365  1.00  0.00    -0.410 NA 
HETATM   19  H2  UNL     1     -10.530   2.596  67.195  1.00  0.00     0.000 HD 
HETATM   20  H1  UNL     1      -9.298   1.396  66.937  1.00  0.00     0.000 HD 
ENDBRANCH  12  13
ENDBRANCH   3  12
TORSDOF 2
ENDMDL
MODEL      226
REMARK 921   NORMALIZED FREE ENERGY PREDICTED BY IDOCK:   -2.95 KCAL/MOL
REMARK 922        TOTAL FREE ENERGY PREDICTED BY IDOCK:   -3.64 KCAL/MOL
REMARK 923 INTER-LIGAND FREE ENERGY PREDICTED BY IDOCK:   -3.28 KCAL/MOL
REMARK 924 INTRA-LIGAND FREE ENERGY PREDICTED BY IDOCK:   -0.36 KCAL/MOL
REMARK 927      BINDING AFFINITY PREDICTED BY RF-SCORE:    0.00 PKD
ROOT
HETATM    1 CL   UNL     1      -9.307   4.719  65.535  1.00  0.00    -0.157 Cl 
HETATM    2  C   UNL     1      -9.735   4.831  67.198  1.00  0.00    -0.184 C  
HETATM    3  C   UNL     1     -10.417   5.858  67.741  1.00  0.00    -0.238 C  
HETATM    4  C   UNL     1      -9.301   3.711  68.087  1.00  0.00    -0.180 C  
HETATM    5  N   UNL     1     -10.653   5.862  69.104  1.00  0.00    -0.268 N  
HETATM    6  C   UNL     1     -10.214   4.919  69.983  1.00  0.00    -0.243 C  
HETATM    7  O   UNL     1      -8.775   2.687  67.661  1.00  0.00    -0.093 OA 
HETATM    8  H   UNL     1     -11.199   6.635  69.482  1.00  0.00     0.000 HD 
HETATM    9  O   UNL     1     -10.418   4.982  71.190  1.00  0.00    -0.205 OA 
HETATM   10  N   UNL     1      -9.517   3.885  69.427  1.00  0.00    -0.181 N  
HETATM   11  H   UNL     1      -9.128   3.187  70.061  1.00  0.00     0.000 HD 
ENDROOT
BRANCH   3  12
HETATM   12  C   UNL     1     -10.893   7.084  66.988  1.00  0.00    -0.343 C  
BRANCH  12  13
HETATM   13  N   UNL     1     -10.048   8.251  67.243  1.00  0.00    -0.221 NA 
HETATM   14  C   UNL     1      -7.784   8.372  67.831  1.00  0.00    -0.103 C  
HETATM   15  C   UNL     1      -8.560   9.229  68.829  1.00  0.00    -0.131 C  
HETATM   16  C   UNL     1      -8.720   8.277  66.628  1.00  0.00    -0.136 C  
HETATM   17  C   UNL     1      -9.978   8.827  68.494  1.00  0.00    -0.182 C  
HETATM   18  N   UNL     1     -10.963   9.011  69.303  1.00  0.00    -0.418 NA 
HETATM   19  H2  UNL     1     -11.883   8.702  68.988  1.00  0.00     0.000 HD 
HETATM   20  H1  UNL     1     -10.911   9.437  70.229  1.00  0.00     0.000 HD 
ENDBRANCH  12  13
ENDBRANCH   3  12
TORSDOF 2
ENDMDL
MODEL      227
REMARK 921   NORMALIZED FREE ENERGY PREDICTED BY IDOCK:   -2.88 KCAL/MOL
REMARK 922        TOTAL FREE ENERGY PREDICTED BY IDOCK:   -3.56 KCAL/MOL
REMARK 923 INTER-LIGAND FREE ENERGY PREDICTED BY IDOCK:   -3.22 KCAL/MOL
REMARK 924 INTRA-LIGAND FREE ENERGY PREDICTED BY IDOCK:   -0.34 KCAL/MOL
REMARK 927      BINDING AFFINITY PREDICTED BY RF-SCORE:    0.00 PKD
ROOT
HETATM    1 CL   UNL     1      -9.520   3.987  69.287  1.00  0.00    -0.250 Cl 
HETATM    2  C   UNL     1      -9.730   4.032  67.579  1.00  0.00    -0.125 C  
HETATM    3  C   UNL     1     -10.409   4.991  66.921  1.00  0.00    -0.218 C  
HETATM    4  C   UNL     1      -9.122   2.917  66.792  1.00  0.00    -0.152 C  
HETATM    5  N   UNL     1     -10.559   4.888  65.550  1.00  0.00    -0.510 N  
HETATM    6  C   UNL     1     -10.104   3.858  64.783  1.00  0.00    -0.198 C  
HETATM    7  O   UNL     1      -8.395   2.065  67.294  1.00  0.00    -0.071 OA 
HETATM    8  H   UNL     1     -11.049   5.644  65.074  1.00  0.00     0.000 HD 
HETATM    9  O   UNL     1     -10.289   3.792  63.573  1.00  0.00    -0.196 OA 
HETATM   10  N   UNL     1      -9.423   2.887  65.457  1.00  0.00    -0.336 N  
HETATM   11  H   UNL     1      -9.114   2.074  64.924  1.00  0.00     0.000 HD 
ENDROOT
BRANCH   3  12
HETATM   12  C   UNL     1     -11.116   6.163  67.573  1.00  0.00    -0.215 C  
BRANCH  12  13
HETATM   13  N   UNL     1     -10.185   7.223  67.962  1.00  0.00    -0.176 NA 
HETATM   14  C   UNL     1      -7.843   7.228  68.007  1.00  0.00    -0.118 C  
HETATM   15  C   UNL     1      -8.326   7.718  69.370  1.00  0.00    -0.133 C  
HETATM   16  C   UNL     1      -9.037   7.473  67.087  1.00  0.00    -0.127 C  
HETATM   17  C   UNL     1      -9.799   7.394  69.274  1.00  0.00    -0.168 C  
HETATM   18  N   UNL     1     -10.559   7.295  70.309  1.00  0.00    -0.224 NA 
HETATM   19  H2  UNL     1     -11.539   7.068  70.142  1.00  0.00     0.000 HD 
HETATM   20  H1  UNL     1     -10.273   7.422  71.281  1.00  0.00     0.000 HD 
ENDBRANCH  12  13
ENDBRANCH   3  12
TORSDOF 2
ENDMDL
MODEL      228
REMARK 921   NORMALIZED FREE ENERGY PREDICTED BY IDOCK:   -2.87 KCAL/MOL
REMARK 922        TOTAL FREE ENERGY PREDICTED BY IDOCK:   -3.56 KCAL/MOL
REMARK 923 INTER-LIGAND FREE ENERGY PREDICTED BY IDOCK:   -3.40 KCAL/MOL
REMARK 924 INTRA-LIGAND FREE ENERGY PREDICTED BY IDOCK:   -0.16 KCAL/MOL
REMARK 927      BINDING AFFINITY PREDICTED BY RF-SCORE:    0.00 PKD
ROOT
HETATM    1 CL   UNL     1      -9.515   8.492  66.008  1.00  0.00    -0.281 Cl 
HETATM    2  C   UNL     1     -10.296   9.620  67.048  1.00  0.00    -0.248 C  
HETATM    3  C   UNL     1     -10.620   9.374  68.331  1.00  0.00    -0.204 C  
HETATM    4  C   UNL     1     -10.641  10.952  66.465  1.00  0.00    -0.237 C  
HETATM    5  N   UNL     1     -11.299  10.342  69.050  1.00  0.00    -0.399 N  
HETATM    6  C   UNL     1     -11.717  11.540  68.558  1.00  0.00    -0.313 C  
HETATM    7  O   UNL     1     -10.285  11.302  65.343  1.00  0.00    -0.247 OA 
HETATM    8  H   UNL     1     -11.502  10.141  70.029  1.00  0.00     0.000 HD 
HETATM    9  O   UNL     1     -12.346  12.355  69.225  1.00  0.00    -0.098 OA 
HETATM   10  N   UNL     1     -11.391  11.780  67.255  1.00  0.00    -0.309 N  
HETATM   11  H   UNL     1     -11.734  12.645  66.837  1.00  0.00     0.000 HD 
ENDROOT
BRANCH   3  12
HETATM   12  C   UNL     1     -10.377   8.065  69.058  1.00  0.00    -0.218 C  
BRANCH  12  13
HETATM   13  N   UNL     1      -9.086   8.049  69.748  1.00  0.00    -0.149 NA 
HETATM   14  C   UNL     1      -7.577   9.791  70.161  1.00  0.00    -0.180 C  
HETATM   15  C   UNL     1      -6.788   8.646  69.528  1.00  0.00    -0.044 C  
HETATM   16  C   UNL     1      -8.823   9.110  70.722  1.00  0.00    -0.239 C  
HETATM   17  C   UNL     1      -7.918   7.748  69.080  1.00  0.00    -0.123 C  
HETATM   18  N   UNL     1      -7.768   6.837  68.182  1.00  0.00    -0.107 NA 
HETATM   19  H2  UNL     1      -8.592   6.284  67.943  1.00  0.00     0.000 HD 
HETATM   20  H1  UNL     1      -6.904   6.614  67.688  1.00  0.00     0.000 HD 
ENDBRANCH  12  13
ENDBRANCH   3  12
TORSDOF 2
ENDMDL
MODEL      229
REMARK 921   NORMALIZED FREE ENERGY PREDICTED BY IDOCK:   -2.86 KCAL/MOL
REMARK 922        TOTAL FREE ENERGY PREDICTED BY IDOCK:   -3.53 KCAL/MOL
REMARK 923 INTER-LIGAND FREE ENERGY PREDICTED BY IDOCK:   -3.40 KCAL/MOL
REMARK 924 INTRA-LIGAND FREE ENERGY PREDICTED BY IDOCK:   -0.13 KCAL/MOL
REMARK 927      BINDING AFFINITY PREDICTED BY RF-SCORE:    0.00 PKD
ROOT
HETATM    1 CL   UNL     1      -8.623   7.433  69.038  1.00  0.00    -0.133 Cl 
HETATM    2  C   UNL     1      -9.747   8.723  68.848  1.00  0.00    -0.172 C  
HETATM    3  C   UNL     1     -10.294   9.089  67.673  1.00  0.00    -0.257 C  
HETATM    4  C   UNL     1     -10.119   9.484  70.078  1.00  0.00    -0.242 C  
HETATM    5  N   UNL     1     -11.142  10.181  67.638  1.00  0.00    -0.400 N  
HETATM    6  C   UNL     1     -11.457  10.969  68.703  1.00  0.00    -0.308 C  
HETATM    7  O   UNL     1      -9.758   9.152  71.203  1.00  0.00    -0.269 OA 
HETATM    8  H   UNL     1     -11.567  10.415  66.741  1.00  0.00     0.000 HD 
HETATM    9  O   UNL     1     -12.189  11.949  68.618  1.00  0.00    -0.358 OA 
HETATM   10  N   UNL     1     -10.894  10.596  69.889  1.00  0.00    -0.381 N  
HETATM   11  H   UNL     1     -11.065  11.193  70.698  1.00  0.00     0.000 HD 
ENDROOT
BRANCH   3  12
HETATM   12  C   UNL     1      -9.992   8.448  66.332  1.00  0.00    -0.221 C  
BRANCH  12  13
HETATM   13  N   UNL     1      -8.784   8.999  65.716  1.00  0.00    -0.158 NA 
HETATM   14  C   UNL     1      -6.942  10.060  66.698  1.00  0.00    -0.087 C  
HETATM   15  C   UNL     1      -7.433  10.958  65.565  1.00  0.00     0.095 C  
HETATM   16  C   UNL     1      -7.498   8.683  66.341  1.00  0.00    -0.087 C  
HETATM   17  C   UNL     1      -8.749  10.290  65.235  1.00  0.00    -0.172 C  
HETATM   18  N   UNL     1      -9.690  10.888  64.591  1.00  0.00    -0.256 NA 
HETATM   19  H2  UNL     1     -10.543  10.355  64.420  1.00  0.00     0.000 HD 
HETATM   20  H1  UNL     1      -9.664  11.844  64.235  1.00  0.00     0.000 HD 
ENDBRANCH  12  13
ENDBRANCH   3  12
TORSDOF 2
ENDMDL
MODEL      230
REMARK 921   NORMALIZED FREE ENERGY PREDICTED BY IDOCK:   -2.83 KCAL/MOL
REMARK 922        TOTAL FREE ENERGY PREDICTED BY IDOCK:   -3.50 KCAL/MOL
REMARK 923 INTER-LIGAND FREE ENERGY PREDICTED BY IDOCK:   -3.21 KCAL/MOL
REMARK 924 INTRA-LIGAND FREE ENERGY PREDICTED BY IDOCK:   -0.29 KCAL/MOL
REMARK 927      BINDING AFFINITY PREDICTED BY RF-SCORE:    0.00 PKD
ROOT
HETATM    1 CL   UNL     1      -8.366   8.826  67.298  1.00  0.00    -0.104 Cl 
HETATM    2  C   UNL     1      -9.207   8.623  68.787  1.00  0.00    -0.142 C  
HETATM    3  C   UNL     1     -10.168   7.704  68.999  1.00  0.00    -0.206 C  
HETATM    4  C   UNL     1      -8.843   9.549  69.902  1.00  0.00    -0.211 C  
HETATM    5  N   UNL     1     -10.813   7.676  70.222  1.00  0.00    -0.244 N  
HETATM    6  C   UNL     1     -10.590   8.541  71.250  1.00  0.00    -0.234 C  
HETATM    7  O   UNL     1      -7.907  10.339  69.834  1.00  0.00    -0.166 OA 
HETATM    8  H   UNL     1     -11.512   6.949  70.366  1.00  0.00     0.000 HD 
HETATM    9  O   UNL     1     -11.211   8.499  72.307  1.00  0.00    -0.342 OA 
HETATM   10  N   UNL     1      -9.621   9.474  71.026  1.00  0.00    -0.272 N  
HETATM   11  H   UNL     1      -9.463  10.172  71.753  1.00  0.00     0.000 HD 
ENDROOT
BRANCH   3  12
HETATM   12  C   UNL     1     -10.680   6.721  67.963  1.00  0.00    -0.241 C  
BRANCH  12  13
HETATM   13  N   UNL     1      -9.676   5.716  67.613  1.00  0.00    -0.118 NA 
HETATM   14  C   UNL     1      -9.697   4.090  65.928  1.00  0.00    -0.193 C  
HETATM   15  C   UNL     1      -9.351   3.384  67.236  1.00  0.00    -0.237 C  
HETATM   16  C   UNL     1      -9.344   5.552  66.197  1.00  0.00    -0.157 C  
HETATM   17  C   UNL     1      -9.649   4.483  68.230  1.00  0.00    -0.143 C  
HETATM   18  N   UNL     1      -9.852   4.254  69.482  1.00  0.00    -0.199 NA 
HETATM   19  H2  UNL     1     -10.051   5.061  70.072  1.00  0.00     0.000 HD 
HETATM   20  H1  UNL     1      -9.832   3.341  69.938  1.00  0.00     0.000 HD 
ENDBRANCH  12  13
ENDBRANCH   3  12
TORSDOF 2
ENDMDL
MODEL      231
REMARK 921   NORMALIZED FREE ENERGY PREDICTED BY IDOCK:   -2.83 KCAL/MOL
REMARK 922        TOTAL FREE ENERGY PREDICTED BY IDOCK:   -3.50 KCAL/MOL
REMARK 923 INTER-LIGAND FREE ENERGY PREDICTED BY IDOCK:   -3.04 KCAL/MOL
REMARK 924 INTRA-LIGAND FREE ENERGY PREDICTED BY IDOCK:   -0.46 KCAL/MOL
REMARK 927      BINDING AFFINITY PREDICTED BY RF-SCORE:    0.00 PKD
ROOT
HETATM    1 CL   UNL     1     -10.394   7.442  69.238  1.00  0.00    -0.200 Cl 
HETATM    2  C   UNL     1     -10.220   8.343  67.781  1.00  0.00    -0.224 C  
HETATM    3  C   UNL     1      -9.560   7.908  66.691  1.00  0.00    -0.226 C  
HETATM    4  C   UNL     1     -10.838   9.703  67.748  1.00  0.00    -0.217 C  
HETATM    5  N   UNL     1      -9.438   8.748  65.599  1.00  0.00    -0.435 N  
HETATM    6  C   UNL     1      -9.902  10.026  65.533  1.00  0.00    -0.303 C  
HETATM    7  O   UNL     1     -11.550  10.135  68.650  1.00  0.00    -0.114 OA 
HETATM    8  H   UNL     1      -8.961   8.380  64.777  1.00  0.00     0.000 HD 
HETATM    9  O   UNL     1      -9.742  10.747  64.554  1.00  0.00    -0.242 OA 
HETATM   10  N   UNL     1     -10.564  10.463  66.643  1.00  0.00    -0.211 N  
HETATM   11  H   UNL     1     -10.880  11.433  66.650  1.00  0.00     0.000 HD 
ENDROOT
BRANCH   3  12
HETATM   12  C   UNL     1      -8.846   6.575  66.578  1.00  0.00    -0.138 C  
BRANCH  12  13
HETATM   13  N   UNL     1      -9.510   5.671  65.639  1.00  0.00    -0.029 NA 
HETATM   14  C   UNL     1      -9.333   3.347  65.402  1.00  0.00    -0.153 C  
HETATM   15  C   UNL     1      -9.119   3.963  64.021  1.00  0.00    -0.129 C  
HETATM   16  C   UNL     1     -10.080   4.433  66.174  1.00  0.00    -0.234 C  
HETATM   17  C   UNL     1      -8.986   5.423  64.388  1.00  0.00     0.147 C  
HETATM   18  N   UNL     1      -8.441   6.290  63.606  1.00  0.00    -0.331 NA 
HETATM   19  H2  UNL     1      -8.394   7.251  63.945  1.00  0.00     0.000 HD 
HETATM   20  H1  UNL     1      -8.054   6.107  62.680  1.00  0.00     0.000 HD 
ENDBRANCH  12  13
ENDBRANCH   3  12
TORSDOF 2
ENDMDL
MODEL      232
REMARK 921   NORMALIZED FREE ENERGY PREDICTED BY IDOCK:   -2.81 KCAL/MOL
REMARK 922        TOTAL FREE ENERGY PREDICTED BY IDOCK:   -3.48 KCAL/MOL
REMARK 923 INTER-LIGAND FREE ENERGY PREDICTED BY IDOCK:   -3.08 KCAL/MOL
REMARK 924 INTRA-LIGAND FREE ENERGY PREDICTED BY IDOCK:   -0.40 KCAL/MOL
REMARK 927      BINDING AFFINITY PREDICTED BY RF-SCORE:    0.00 PKD
ROOT
HETATM    1 CL   UNL     1     -11.584   6.968  72.087  1.00  0.00    -0.306 Cl 
HETATM    2  C   UNL     1     -10.781   6.115  70.825  1.00  0.00    -0.266 C  
HETATM    3  C   UNL     1     -10.573   6.604  69.588  1.00  0.00    -0.234 C  
HETATM    4  C   UNL     1     -10.303   4.735  71.139  1.00  0.00    -0.118 C  
HETATM    5  N   UNL     1      -9.966   5.800  68.641  1.00  0.00    -0.144 N  
HETATM    6  C   UNL     1      -9.582   4.507  68.834  1.00  0.00    -0.166 C  
HETATM    7  O   UNL     1     -10.351   4.252  72.267  1.00  0.00    -0.183 OA 
HETATM    8  H   UNL     1      -9.791   6.207  67.723  1.00  0.00     0.000 HD 
HETATM    9  O   UNL     1      -9.077   3.820  67.953  1.00  0.00    -0.126 OA 
HETATM   10  N   UNL     1      -9.803   4.016  70.087  1.00  0.00    -0.194 N  
HETATM   11  H   UNL     1      -9.577   3.035  70.254  1.00  0.00     0.000 HD 
ENDROOT
BRANCH   3  12
HETATM   12  C   UNL     1     -11.029   7.965  69.100  1.00  0.00     0.065 C  
BRANCH  12  13
HETATM   13  N   UNL     1      -9.920   8.765  68.578  1.00  0.00    -0.177 NA 
HETATM   14  C   UNL     1      -9.680  11.090  68.428  1.00  0.00    -0.181 C  
HETATM   15  C   UNL     1      -9.369  10.511  67.050  1.00  0.00    -0.176 C  
HETATM   16  C   UNL     1      -9.474   9.909  69.376  1.00  0.00    -0.213 C  
HETATM   17  C   UNL     1      -9.832   9.084  67.240  1.00  0.00    -0.196 C  
HETATM   18  N   UNL     1     -10.103   8.303  66.252  1.00  0.00    -0.466 NA 
HETATM   19  H2  UNL     1     -10.413   7.359  66.482  1.00  0.00     0.000 HD 
HETATM   20  H1  UNL     1     -10.038   8.540  65.262  1.00  0.00     0.000 HD 
ENDBRANCH  12  13
ENDBRANCH   3  12
TORSDOF 2
ENDMDL
MODEL      233
REMARK 921   NORMALIZED FREE ENERGY PREDICTED BY IDOCK:   -2.73 KCAL/MOL
REMARK 922        TOTAL FREE ENERGY PREDICTED BY IDOCK:   -3.40 KCAL/MOL
REMARK 923 INTER-LIGAND FREE ENERGY PREDICTED BY IDOCK:   -3.09 KCAL/MOL
REMARK 924 INTRA-LIGAND FREE ENERGY PREDICTED BY IDOCK:   -0.31 KCAL/MOL
REMARK 927      BINDING AFFINITY PREDICTED BY RF-SCORE:    0.00 PKD
ROOT
HETATM    1 CL   UNL     1      -8.143  14.649  69.092  1.00  0.00    -0.118 Cl 
HETATM    2  C   UNL     1      -8.893  16.184  68.878  1.00  0.00    -0.248 C  
HETATM    3  C   UNL     1     -10.214  16.410  69.006  1.00  0.00    -0.269 C  
HETATM    4  C   UNL     1      -8.003  17.327  68.512  1.00  0.00    -0.261 C  
HETATM    5  N   UNL     1     -10.707  17.678  68.753  1.00  0.00    -0.321 N  
HETATM    6  C   UNL     1      -9.967  18.741  68.335  1.00  0.00    -0.392 C  
HETATM    7  O   UNL     1      -6.779  17.238  68.483  1.00  0.00    -0.170 OA 
HETATM    8  H   UNL     1     -11.706  17.828  68.889  1.00  0.00     0.000 HD 
HETATM    9  O   UNL     1     -10.452  19.840  68.089  1.00  0.00    -0.435 OA 
HETATM   10  N   UNL     1      -8.630  18.504  68.200  1.00  0.00    -0.294 N  
HETATM   11  H   UNL     1      -8.052  19.262  67.838  1.00  0.00     0.000 HD 
ENDROOT
BRANCH   3  12
HETATM   12  C   UNL     1     -11.253  15.355  69.333  1.00  0.00    -0.296 C  
BRANCH  12  13
HETATM   13  N   UNL     1     -12.014  15.683  70.538  1.00  0.00    -0.359 NA 
HETATM   14  C   UNL     1     -12.290  14.472  72.523  1.00  0.00    -0.282 C  
HETATM   15  C   UNL     1     -13.682  14.865  72.034  1.00  0.00    -0.538 C  
HETATM   16  C   UNL     1     -11.364  15.470  71.832  1.00  0.00    -0.373 C  
HETATM   17  C   UNL     1     -13.353  15.374  70.649  1.00  0.00    -0.238 C  
HETATM   18  N   UNL     1     -14.238  15.482  69.719  1.00  0.00     1.503 NA 
HETATM   19  H2  UNL     1     -13.918  15.830  68.815  1.00  0.00     0.000 HD 
HETATM   20  H1  UNL     1     -15.229  15.253  69.801  1.00  0.00     0.000 HD 
ENDBRANCH  12  13
ENDBRANCH   3  12
TORSDOF 2
ENDMDL
MODEL      234
REMARK 921   NORMALIZED FREE ENERGY PREDICTED BY IDOCK:   -2.71 KCAL/MOL
REMARK 922        TOTAL FREE ENERGY PREDICTED BY IDOCK:   -3.37 KCAL/MOL
REMARK 923 INTER-LIGAND FREE ENERGY PREDICTED BY IDOCK:   -3.09 KCAL/MOL
REMARK 924 INTRA-LIGAND FREE ENERGY PREDICTED BY IDOCK:   -0.29 KCAL/MOL
REMARK 927      BINDING AFFINITY PREDICTED BY RF-SCORE:    0.00 PKD
ROOT
HETATM    1 CL   UNL     1     -10.288   7.991  69.178  1.00  0.00    -0.221 Cl 
HETATM    2  C   UNL     1     -10.013   6.334  68.800  1.00  0.00    -0.149 C  
HETATM    3  C   UNL     1      -9.405   5.457  69.621  1.00  0.00    -0.135 C  
HETATM    4  C   UNL     1     -10.474   5.859  67.460  1.00  0.00    -0.243 C  
HETATM    5  N   UNL     1      -9.189   4.163  69.181  1.00  0.00    -0.133 N  
HETATM    6  C   UNL     1      -9.507   3.688  67.946  1.00  0.00    -0.169 C  
HETATM    7  O   UNL     1     -11.133   6.557  66.695  1.00  0.00    -0.283 OA 
HETATM    8  H   UNL     1      -8.756   3.512  69.836  1.00  0.00     0.000 HD 
HETATM    9  O   UNL     1      -9.266   2.540  67.587  1.00  0.00    -0.171 OA 
HETATM   10  N   UNL     1     -10.116   4.584  67.116  1.00  0.00    -0.157 N  
HETATM   11  H   UNL     1     -10.321   4.279  66.165  1.00  0.00     0.000 HD 
ENDROOT
BRANCH   3  12
HETATM   12  C   UNL     1      -8.845   5.787  70.991  1.00  0.00    -0.138 C  
BRANCH  12  13
HETATM   13  N   UNL     1      -9.872   5.744  72.032  1.00  0.00    -0.154 NA 
HETATM   14  C   UNL     1     -10.136   7.070  73.944  1.00  0.00    -0.386 C  
HETATM   15  C   UNL     1     -10.207   5.611  74.389  1.00  0.00    -0.295 C  
HETATM   16  C   UNL     1     -10.466   7.014  72.454  1.00  0.00    -0.209 C  
HETATM   17  C   UNL     1      -9.750   4.916  73.127  1.00  0.00    -0.141 C  
HETATM   18  N   UNL     1      -9.305   3.707  73.121  1.00  0.00    -0.101 NA 
HETATM   19  H2  UNL     1      -9.016   3.326  72.220  1.00  0.00     0.000 HD 
HETATM   20  H1  UNL     1      -9.215   3.094  73.932  1.00  0.00     0.000 HD 
ENDBRANCH  12  13
ENDBRANCH   3  12
TORSDOF 2
ENDMDL
MODEL      235
REMARK 921   NORMALIZED FREE ENERGY PREDICTED BY IDOCK:   -2.67 KCAL/MOL
REMARK 922        TOTAL FREE ENERGY PREDICTED BY IDOCK:   -3.32 KCAL/MOL
REMARK 923 INTER-LIGAND FREE ENERGY PREDICTED BY IDOCK:   -2.98 KCAL/MOL
REMARK 924 INTRA-LIGAND FREE ENERGY PREDICTED BY IDOCK:   -0.35 KCAL/MOL
REMARK 927      BINDING AFFINITY PREDICTED BY RF-SCORE:    0.00 PKD
ROOT
HETATM    1 CL   UNL     1      -8.737   1.907  67.254  1.00  0.00    -0.120 Cl 
HETATM    2  C   UNL     1      -9.346   3.517  67.238  1.00  0.00    -0.205 C  
HETATM    3  C   UNL     1      -9.561   4.261  68.340  1.00  0.00    -0.133 C  
HETATM    4  C   UNL     1      -9.665   4.108  65.903  1.00  0.00    -0.204 C  
HETATM    5  N   UNL     1     -10.108   5.524  68.202  1.00  0.00    -0.161 N  
HETATM    6  C   UNL     1     -10.499   6.089  67.027  1.00  0.00    -0.270 C  
HETATM    7  O   UNL     1      -9.398   3.547  64.844  1.00  0.00    -0.140 OA 
HETATM    8  H   UNL     1     -10.229   6.077  69.050  1.00  0.00     0.000 HD 
HETATM    9  O   UNL     1     -11.012   7.201  66.957  1.00  0.00    -0.369 OA 
HETATM   10  N   UNL     1     -10.286   5.328  65.915  1.00  0.00    -0.407 N  
HETATM   11  H   UNL     1     -10.614   5.696  65.023  1.00  0.00     0.000 HD 
ENDROOT
BRANCH   3  12
HETATM   12  C   UNL     1      -9.327   3.797  69.765  1.00  0.00    -0.175 C  
BRANCH  12  13
HETATM   13  N   UNL     1      -9.040   4.912  70.668  1.00  0.00    -0.124 NA 
HETATM   14  C   UNL     1      -8.175   4.903  72.845  1.00  0.00    -0.101 C  
HETATM   15  C   UNL     1      -9.443   5.753  72.863  1.00  0.00    -0.160 C  
HETATM   16  C   UNL     1      -7.758   4.900  71.375  1.00  0.00    -0.088 C  
HETATM   17  C   UNL     1     -10.009   5.432  71.499  1.00  0.00    -0.181 C  
HETATM   18  N   UNL     1     -11.246   5.629  71.194  1.00  0.00    -0.139 NA 
HETATM   19  H2  UNL     1     -11.534   5.376  70.249  1.00  0.00     0.000 HD 
HETATM   20  H1  UNL     1     -11.963   6.014  71.809  1.00  0.00     0.000 HD 
ENDBRANCH  12  13
ENDBRANCH   3  12
TORSDOF 2
ENDMDL
MODEL      236
REMARK 921   NORMALIZED FREE ENERGY PREDICTED BY IDOCK:   -2.67 KCAL/MOL
REMARK 922        TOTAL FREE ENERGY PREDICTED BY IDOCK:   -3.32 KCAL/MOL
REMARK 923 INTER-LIGAND FREE ENERGY PREDICTED BY IDOCK:   -3.05 KCAL/MOL
REMARK 924 INTRA-LIGAND FREE ENERGY PREDICTED BY IDOCK:   -0.27 KCAL/MOL
REMARK 927      BINDING AFFINITY PREDICTED BY RF-SCORE:    0.00 PKD
ROOT
HETATM    1 CL   UNL     1      -9.253  12.769  67.347  1.00  0.00    -0.185 Cl 
HETATM    2  C   UNL     1      -9.518  11.069  67.303  1.00  0.00    -0.164 C  
HETATM    3  C   UNL     1      -8.565  10.157  67.032  1.00  0.00    -0.129 C  
HETATM    4  C   UNL     1     -10.909  10.593  67.571  1.00  0.00    -0.296 C  
HETATM    5  N   UNL     1      -8.914   8.820  66.969  1.00  0.00    -0.130 N  
HETATM    6  C   UNL     1     -10.174   8.326  67.119  1.00  0.00    -0.295 C  
HETATM    7  O   UNL     1     -11.812  11.341  67.934  1.00  0.00    -0.597 OA 
HETATM    8  H   UNL     1      -8.166   8.149  66.795  1.00  0.00     0.000 HD 
HETATM    9  O   UNL     1     -10.442   7.133  67.022  1.00  0.00    -0.268 OA 
HETATM   10  N   UNL     1     -11.136   9.256  67.386  1.00  0.00    -0.355 N  
HETATM   11  H   UNL     1     -12.099   8.929  67.453  1.00  0.00     0.000 HD 
ENDROOT
BRANCH   3  12
HETATM   12  C   UNL     1      -7.121  10.476  66.700  1.00  0.00    -0.118 C  
BRANCH  12  13
HETATM   13  N   UNL     1      -6.338  10.798  67.894  1.00  0.00    -0.061 NA 
HETATM   14  C   UNL     1      -7.005  10.963  70.133  1.00  0.00     0.073 C  
HETATM   15  C   UNL     1      -6.243  12.241  69.791  1.00  0.00    -0.125 C  
HETATM   16  C   UNL     1      -6.533   9.962  69.080  1.00  0.00    -0.048 C  
HETATM   17  C   UNL     1      -6.135  12.103  68.289  1.00  0.00    -0.052 C  
HETATM   18  N   UNL     1      -5.890  13.103  67.515  1.00  0.00    -0.301 NA 
HETATM   19  H2  UNL     1      -5.842  12.911  66.514  1.00  0.00     0.000 HD 
HETATM   20  H1  UNL     1      -5.740  14.069  67.807  1.00  0.00     0.000 HD 
ENDBRANCH  12  13
ENDBRANCH   3  12
TORSDOF 2
ENDMDL
MODEL      237
REMARK 921   NORMALIZED FREE ENERGY PREDICTED BY IDOCK:   -2.64 KCAL/MOL
REMARK 922        TOTAL FREE ENERGY PREDICTED BY IDOCK:   -3.29 KCAL/MOL
REMARK 923 INTER-LIGAND FREE ENERGY PREDICTED BY IDOCK:   -3.41 KCAL/MOL
REMARK 924 INTRA-LIGAND FREE ENERGY PREDICTED BY IDOCK:    0.12 KCAL/MOL
REMARK 927      BINDING AFFINITY PREDICTED BY RF-SCORE:    0.00 PKD
ROOT
HETATM    1 CL   UNL     1      -7.113   9.484  68.598  1.00  0.00    -0.068 Cl 
HETATM    2  C   UNL     1      -8.518   8.593  69.038  1.00  0.00    -0.124 C  
HETATM    3  C   UNL     1      -9.773   8.921  68.674  1.00  0.00    -0.161 C  
HETATM    4  C   UNL     1      -8.314   7.386  69.894  1.00  0.00    -0.134 C  
HETATM    5  N   UNL     1     -10.829   8.158  69.139  1.00  0.00    -0.412 N  
HETATM    6  C   UNL     1     -10.722   7.098  69.987  1.00  0.00    -0.248 C  
HETATM    7  O   UNL     1      -7.203   6.950  70.180  1.00  0.00    -0.072 OA 
HETATM    8  H   UNL     1     -11.764   8.410  68.820  1.00  0.00     0.000 HD 
HETATM    9  O   UNL     1     -11.690   6.470  70.400  1.00  0.00    -0.393 OA 
HETATM   10  N   UNL     1      -9.449   6.776  70.358  1.00  0.00    -0.166 N  
HETATM   11  H   UNL     1      -9.333   6.021  71.033  1.00  0.00     0.000 HD 
ENDROOT
BRANCH   3  12
HETATM   12  C   UNL     1     -10.152  10.132  67.844  1.00  0.00    -0.176 C  
BRANCH  12  13
HETATM   13  N   UNL     1      -9.288  10.293  66.674  1.00  0.00    -0.159 NA 
HETATM   14  C   UNL     1      -9.537  11.668  64.795  1.00  0.00    -0.156 C  
HETATM   15  C   UNL     1      -9.264  10.253  64.290  1.00  0.00    -0.300 C  
HETATM   16  C   UNL     1      -9.000  11.656  66.225  1.00  0.00    -0.193 C  
HETATM   17  C   UNL     1      -9.408   9.470  65.575  1.00  0.00    -0.255 C  
HETATM   18  N   UNL     1      -9.619   8.199  65.595  1.00  0.00    -0.397 NA 
HETATM   19  H2  UNL     1      -9.707   7.761  66.512  1.00  0.00     0.000 HD 
HETATM   20  H1  UNL     1      -9.708   7.590  64.781  1.00  0.00     0.000 HD 
ENDBRANCH  12  13
ENDBRANCH   3  12
TORSDOF 2
ENDMDL
MODEL      238
REMARK 921   NORMALIZED FREE ENERGY PREDICTED BY IDOCK:   -2.63 KCAL/MOL
REMARK 922        TOTAL FREE ENERGY PREDICTED BY IDOCK:   -3.28 KCAL/MOL
REMARK 923 INTER-LIGAND FREE ENERGY PREDICTED BY IDOCK:   -2.93 KCAL/MOL
REMARK 924 INTRA-LIGAND FREE ENERGY PREDICTED BY IDOCK:   -0.35 KCAL/MOL
REMARK 927      BINDING AFFINITY PREDICTED BY RF-SCORE:    0.00 PKD
ROOT
HETATM    1 CL   UNL     1     -11.719  10.864  68.112  1.00  0.00    -0.312 Cl 
HETATM    2  C   UNL     1     -10.791  12.312  68.042  1.00  0.00    -0.220 C  
HETATM    3  C   UNL     1      -9.700  12.481  67.272  1.00  0.00    -0.202 C  
HETATM    4  C   UNL     1     -11.234  13.443  68.913  1.00  0.00    -0.276 C  
HETATM    5  N   UNL     1      -9.003  13.673  67.346  1.00  0.00    -0.207 N  
HETATM    6  C   UNL     1      -9.301  14.710  68.176  1.00  0.00    -0.197 C  
HETATM    7  O   UNL     1     -12.277  13.418  69.560  1.00  0.00    -0.286 OA 
HETATM    8  H   UNL     1      -8.200  13.785  66.727  1.00  0.00     0.000 HD 
HETATM    9  O   UNL     1      -8.634  15.737  68.231  1.00  0.00    -0.164 OA 
HETATM   10  N   UNL     1     -10.404  14.530  68.959  1.00  0.00    -0.269 N  
HETATM   11  H   UNL     1     -10.628  15.264  69.631  1.00  0.00     0.000 HD 
ENDROOT
BRANCH   3  12
HETATM   12  C   UNL     1      -9.099  11.423  66.366  1.00  0.00    -0.193 C  
BRANCH  12  13
HETATM   13  N   UNL     1      -7.918  10.794  66.960  1.00  0.00    -0.120 NA 
HETATM   14  C   UNL     1      -6.072   9.785  65.932  1.00  0.00    -0.070 C  
HETATM   15  C   UNL     1      -6.609   8.801  66.968  1.00  0.00    -0.062 C  
HETATM   16  C   UNL     1      -6.611  11.136  66.397  1.00  0.00    -0.108 C  
HETATM   17  C   UNL     1      -7.920   9.465  67.325  1.00  0.00    -0.106 C  
HETATM   18  N   UNL     1      -8.889   8.832  67.890  1.00  0.00    -0.136 NA 
HETATM   19  H2  UNL     1      -9.736   9.366  68.087  1.00  0.00     0.000 HD 
HETATM   20  H1  UNL     1      -8.890   7.848  68.161  1.00  0.00     0.000 HD 
ENDBRANCH  12  13
ENDBRANCH   3  12
TORSDOF 2
ENDMDL
MODEL      239
REMARK 921   NORMALIZED FREE ENERGY PREDICTED BY IDOCK:   -2.60 KCAL/MOL
REMARK 922        TOTAL FREE ENERGY PREDICTED BY IDOCK:   -3.25 KCAL/MOL
REMARK 923 INTER-LIGAND FREE ENERGY PREDICTED BY IDOCK:   -3.06 KCAL/MOL
REMARK 924 INTRA-LIGAND FREE ENERGY PREDICTED BY IDOCK:   -0.20 KCAL/MOL
REMARK 927      BINDING AFFINITY PREDICTED BY RF-SCORE:    0.00 PKD
ROOT
HETATM    1 CL   UNL     1      -9.068   6.392  69.394  1.00  0.00    -0.140 Cl 
HETATM    2  C   UNL     1      -9.202   5.511  70.867  1.00  0.00    -0.151 C  
HETATM    3  C   UNL     1      -9.089   6.056  72.093  1.00  0.00    -0.142 C  
HETATM    4  C   UNL     1      -9.446   4.041  70.757  1.00  0.00    -0.170 C  
HETATM    5  N   UNL     1      -9.158   5.234  73.203  1.00  0.00    -0.127 N  
HETATM    6  C   UNL     1      -9.295   3.880  73.173  1.00  0.00    -0.109 C  
HETATM    7  O   UNL     1      -9.673   3.480  69.689  1.00  0.00    -0.164 OA 
HETATM    8  H   UNL     1      -9.102   5.679  74.119  1.00  0.00     0.000 HD 
HETATM    9  O   UNL     1      -9.318   3.187  74.184  1.00  0.00    -0.084 OA 
HETATM   10  N   UNL     1      -9.402   3.333  71.927  1.00  0.00    -0.118 N  
HETATM   11  H   UNL     1      -9.453   2.316  71.864  1.00  0.00     0.000 HD 
ENDROOT
BRANCH   3  12
HETATM   12  C   UNL     1      -8.802   7.518  72.374  1.00  0.00    -0.127 C  
BRANCH  12  13
HETATM   13  N   UNL     1     -10.000   8.349  72.254  1.00  0.00    -0.291 NA 
HETATM   14  C   UNL     1     -12.210   7.744  71.769  1.00  0.00    -0.338 C  
HETATM   15  C   UNL     1     -11.829   8.878  70.819  1.00  0.00    -0.230 C  
HETATM   16  C   UNL     1     -11.218   7.885  72.922  1.00  0.00    -0.366 C  
HETATM   17  C   UNL     1     -10.340   8.952  71.062  1.00  0.00    -0.253 C  
HETATM   18  N   UNL     1      -9.526   9.512  70.234  1.00  0.00    -0.245 NA 
HETATM   19  H2  UNL     1      -8.537   9.507  70.485  1.00  0.00     0.000 HD 
HETATM   20  H1  UNL     1      -9.778   9.958  69.352  1.00  0.00     0.000 HD 
ENDBRANCH  12  13
ENDBRANCH   3  12
TORSDOF 2
ENDMDL
MODEL      240
REMARK 921   NORMALIZED FREE ENERGY PREDICTED BY IDOCK:   -2.60 KCAL/MOL
REMARK 922        TOTAL FREE ENERGY PREDICTED BY IDOCK:   -3.25 KCAL/MOL
REMARK 923 INTER-LIGAND FREE ENERGY PREDICTED BY IDOCK:   -3.93 KCAL/MOL
REMARK 924 INTRA-LIGAND FREE ENERGY PREDICTED BY IDOCK:    0.68 KCAL/MOL
REMARK 927      BINDING AFFINITY PREDICTED BY RF-SCORE:    0.00 PKD
ROOT
HETATM    1 CL   UNL     1      -8.734   8.758  70.888  1.00  0.00    -0.209 Cl 
HETATM    2  C   UNL     1     -10.403   8.621  71.283  1.00  0.00    -0.239 C  
HETATM    3  C   UNL     1     -10.932   7.628  72.023  1.00  0.00    -0.246 C  
HETATM    4  C   UNL     1     -11.315   9.677  70.746  1.00  0.00    -0.340 C  
HETATM    5  N   UNL     1     -12.300   7.595  72.224  1.00  0.00    -0.489 N  
HETATM    6  C   UNL     1     -13.196   8.474  71.697  1.00  0.00    -0.343 C  
HETATM    7  O   UNL     1     -10.907  10.675  70.159  1.00  0.00    -0.261 OA 
HETATM    8  H   UNL     1     -12.668   6.850  72.815  1.00  0.00     0.000 HD 
HETATM    9  O   UNL     1     -14.405   8.386  71.875  1.00  0.00    -0.432 OA 
HETATM   10  N   UNL     1     -12.654   9.474  70.942  1.00  0.00    -0.480 N  
HETATM   11  H   UNL     1     -13.299  10.121  70.487  1.00  0.00     0.000 HD 
ENDROOT
BRANCH   3  12
HETATM   12  C   UNL     1     -10.153   6.464  72.604  1.00  0.00    -0.178 C  
BRANCH  12  13
HETATM   13  N   UNL     1      -8.711   6.612  72.408  1.00  0.00    -0.129 NA 
HETATM   14  C   UNL     1      -7.003   5.013  72.522  1.00  0.00    -0.076 C  
HETATM   15  C   UNL     1      -6.588   6.186  73.407  1.00  0.00    -0.074 C  
HETATM   16  C   UNL     1      -8.034   5.619  71.571  1.00  0.00    -0.117 C  
HETATM   17  C   UNL     1      -7.878   6.972  73.446  1.00  0.00    -0.093 C  
HETATM   18  N   UNL     1      -8.130   7.852  74.352  1.00  0.00    -0.229 NA 
HETATM   19  H2  UNL     1      -9.031   8.327  74.297  1.00  0.00     0.000 HD 
HETATM   20  H1  UNL     1      -7.513   8.119  75.120  1.00  0.00     0.000 HD 
ENDBRANCH  12  13
ENDBRANCH   3  12
TORSDOF 2
ENDMDL
MODEL      241
REMARK 921   NORMALIZED FREE ENERGY PREDICTED BY IDOCK:   -2.58 KCAL/MOL
REMARK 922        TOTAL FREE ENERGY PREDICTED BY IDOCK:   -3.22 KCAL/MOL
REMARK 923 INTER-LIGAND FREE ENERGY PREDICTED BY IDOCK:   -2.88 KCAL/MOL
REMARK 924 INTRA-LIGAND FREE ENERGY PREDICTED BY IDOCK:   -0.34 KCAL/MOL
REMARK 927      BINDING AFFINITY PREDICTED BY RF-SCORE:    0.00 PKD
ROOT
HETATM    1 CL   UNL     1      -8.214   7.358  69.721  1.00  0.00    -0.128 Cl 
HETATM    2  C   UNL     1      -8.839   6.540  68.341  1.00  0.00    -0.123 C  
HETATM    3  C   UNL     1      -8.872   7.059  67.099  1.00  0.00    -0.121 C  
HETATM    4  C   UNL     1      -9.390   5.168  68.559  1.00  0.00    -0.125 C  
HETATM    5  N   UNL     1      -9.453   6.326  66.080  1.00  0.00    -0.359 N  
HETATM    6  C   UNL     1     -10.047   5.109  66.224  1.00  0.00    -0.231 C  
HETATM    7  O   UNL     1      -9.300   4.575  69.630  1.00  0.00    -0.120 OA 
HETATM    8  H   UNL     1      -9.434   6.730  65.144  1.00  0.00     0.000 HD 
HETATM    9  O   UNL     1     -10.579   4.510  65.296  1.00  0.00    -0.237 OA 
HETATM   10  N   UNL     1     -10.016   4.592  67.486  1.00  0.00    -0.151 N  
HETATM   11  H   UNL     1     -10.497   3.707  67.643  1.00  0.00     0.000 HD 
ENDROOT
BRANCH   3  12
HETATM   12  C   UNL     1      -8.392   8.446  66.720  1.00  0.00    -0.109 C  
BRANCH  12  13
HETATM   13  N   UNL     1      -9.497   9.399  66.600  1.00  0.00    -0.165 NA 
HETATM   14  C   UNL     1      -9.729  11.269  65.209  1.00  0.00    -0.280 C  
HETATM   15  C   UNL     1     -10.037  11.721  66.634  1.00  0.00    -0.231 C  
HETATM   16  C   UNL     1      -9.942   9.757  65.252  1.00  0.00    -0.181 C  
HETATM   17  C   UNL     1      -9.580  10.509  67.413  1.00  0.00    -0.158 C  
HETATM   18  N   UNL     1      -9.308  10.552  68.672  1.00  0.00    -0.164 NA 
HETATM   19  H2  UNL     1      -9.002   9.682  69.107  1.00  0.00     0.000 HD 
HETATM   20  H1  UNL     1      -9.369  11.374  69.273  1.00  0.00     0.000 HD 
ENDBRANCH  12  13
ENDBRANCH   3  12
TORSDOF 2
ENDMDL
MODEL      242
REMARK 921   NORMALIZED FREE ENERGY PREDICTED BY IDOCK:   -2.55 KCAL/MOL
REMARK 922        TOTAL FREE ENERGY PREDICTED BY IDOCK:   -3.19 KCAL/MOL
REMARK 923 INTER-LIGAND FREE ENERGY PREDICTED BY IDOCK:   -2.94 KCAL/MOL
REMARK 924 INTRA-LIGAND FREE ENERGY PREDICTED BY IDOCK:   -0.24 KCAL/MOL
REMARK 927      BINDING AFFINITY PREDICTED BY RF-SCORE:    0.00 PKD
ROOT
HETATM    1 CL   UNL     1      -8.464   9.670  68.576  1.00  0.00    -0.117 Cl 
HETATM    2  C   UNL     1      -9.533   8.894  69.680  1.00  0.00    -0.168 C  
HETATM    3  C   UNL     1      -9.188   7.867  70.480  1.00  0.00    -0.158 C  
HETATM    4  C   UNL     1     -10.938   9.400  69.731  1.00  0.00    -0.215 C  
HETATM    5  N   UNL     1     -10.153   7.288  71.284  1.00  0.00    -0.189 N  
HETATM    6  C   UNL     1     -11.467   7.643  71.318  1.00  0.00    -0.269 C  
HETATM    7  O   UNL     1     -11.310  10.399  69.123  1.00  0.00    -0.240 OA 
HETATM    8  H   UNL     1      -9.856   6.534  71.903  1.00  0.00     0.000 HD 
HETATM    9  O   UNL     1     -12.295   7.078  72.024  1.00  0.00    -0.310 OA 
HETATM   10  N   UNL     1     -11.812   8.679  70.500  1.00  0.00    -0.474 N  
HETATM   11  H   UNL     1     -12.797   8.938  70.460  1.00  0.00     0.000 HD 
ENDROOT
BRANCH   3  12
HETATM   12  C   UNL     1      -7.820   7.213  70.520  1.00  0.00    -0.100 C  
BRANCH  12  13
HETATM   13  N   UNL     1      -7.789   5.952  69.779  1.00  0.00    -0.098 NA 
HETATM   14  C   UNL     1      -9.372   5.018  68.328  1.00  0.00    -0.160 C  
HETATM   15  C   UNL     1      -9.011   3.948  69.355  1.00  0.00    -0.171 C  
HETATM   16  C   UNL     1      -8.188   5.981  68.370  1.00  0.00    -0.110 C  
HETATM   17  C   UNL     1      -8.225   4.774  70.348  1.00  0.00    -0.083 C  
HETATM   18  N   UNL     1      -8.017   4.393  71.561  1.00  0.00    -0.081 NA 
HETATM   19  H2  UNL     1      -7.479   5.022  72.157  1.00  0.00     0.000 HD 
HETATM   20  H1  UNL     1      -8.340   3.521  71.982  1.00  0.00     0.000 HD 
ENDBRANCH  12  13
ENDBRANCH   3  12
TORSDOF 2
ENDMDL
MODEL      243
REMARK 921   NORMALIZED FREE ENERGY PREDICTED BY IDOCK:   -2.54 KCAL/MOL
REMARK 922        TOTAL FREE ENERGY PREDICTED BY IDOCK:   -3.19 KCAL/MOL
REMARK 923 INTER-LIGAND FREE ENERGY PREDICTED BY IDOCK:   -3.31 KCAL/MOL
REMARK 924 INTRA-LIGAND FREE ENERGY PREDICTED BY IDOCK:    0.12 KCAL/MOL
REMARK 927      BINDING AFFINITY PREDICTED BY RF-SCORE:    0.00 PKD
ROOT
HETATM    1 CL   UNL     1      -9.966  14.175  65.906  1.00  0.00    -0.326 Cl 
HETATM    2  C   UNL     1      -8.693  14.292  67.059  1.00  0.00    -0.212 C  
HETATM    3  C   UNL     1      -8.434  15.388  67.798  1.00  0.00    -0.150 C  
HETATM    4  C   UNL     1      -7.820  13.092  67.228  1.00  0.00    -0.127 C  
HETATM    5  N   UNL     1      -7.345  15.381  68.651  1.00  0.00    -0.122 N  
HETATM    6  C   UNL     1      -6.461  14.355  68.792  1.00  0.00    -0.087 C  
HETATM    7  O   UNL     1      -8.049  12.017  66.681  1.00  0.00    -0.130 OA 
HETATM    8  H   UNL     1      -7.192  16.212  69.221  1.00  0.00     0.000 HD 
HETATM    9  O   UNL     1      -5.489  14.406  69.538  1.00  0.00    -0.090 OA 
HETATM   10  N   UNL     1      -6.726  13.250  68.036  1.00  0.00    -0.109 N  
HETATM   11  H   UNL     1      -6.056  12.482  68.075  1.00  0.00     0.000 HD 
ENDROOT
BRANCH   3  12
HETATM   12  C   UNL     1      -9.197  16.695  67.717  1.00  0.00    -0.214 C  
BRANCH  12  13
HETATM   13  N   UNL     1      -8.547  17.660  66.830  1.00  0.00    -0.245 NA 
HETATM   14  C   UNL     1      -6.931  19.289  67.301  1.00  0.00    -0.216 C  
HETATM   15  C   UNL     1      -8.065  19.978  66.544  1.00  0.00    -0.346 C  
HETATM   16  C   UNL     1      -7.095  17.814  66.940  1.00  0.00    -0.185 C  
HETATM   17  C   UNL     1      -9.113  18.890  66.567  1.00  0.00    -0.327 C  
HETATM   18  N   UNL     1     -10.364  19.124  66.368  1.00  0.00    -0.423 NA 
HETATM   19  H2  UNL     1     -10.996  18.324  66.409  1.00  0.00     0.000 HD 
HETATM   20  H1  UNL     1     -10.783  20.034  66.174  1.00  0.00     0.000 HD 
ENDBRANCH  12  13
ENDBRANCH   3  12
TORSDOF 2
ENDMDL
MODEL      244
REMARK 921   NORMALIZED FREE ENERGY PREDICTED BY IDOCK:   -2.53 KCAL/MOL
REMARK 922        TOTAL FREE ENERGY PREDICTED BY IDOCK:   -3.17 KCAL/MOL
REMARK 923 INTER-LIGAND FREE ENERGY PREDICTED BY IDOCK:   -2.85 KCAL/MOL
REMARK 924 INTRA-LIGAND FREE ENERGY PREDICTED BY IDOCK:   -0.32 KCAL/MOL
REMARK 927      BINDING AFFINITY PREDICTED BY RF-SCORE:    0.00 PKD
ROOT
HETATM    1 CL   UNL     1      -8.156   5.763  67.983  1.00  0.00    -0.104 Cl 
HETATM    2  C   UNL     1      -7.720   7.207  68.812  1.00  0.00    -0.116 C  
HETATM    3  C   UNL     1      -7.714   7.344  70.152  1.00  0.00    -0.090 C  
HETATM    4  C   UNL     1      -7.339   8.382  67.971  1.00  0.00    -0.096 C  
HETATM    5  N   UNL     1      -7.399   8.574  70.700  1.00  0.00    -0.055 N  
HETATM    6  C   UNL     1      -7.125   9.705  69.994  1.00  0.00    -0.104 C  
HETATM    7  O   UNL     1      -7.209   8.316  66.752  1.00  0.00    -0.079 OA 
HETATM    8  H   UNL     1      -7.371   8.640  71.717  1.00  0.00     0.000 HD 
HETATM    9  O   UNL     1      -6.884  10.784  70.523  1.00  0.00    -0.285 OA 
HETATM   10  N   UNL     1      -7.140   9.561  68.637  1.00  0.00    -0.068 N  
HETATM   11  H   UNL     1      -6.991  10.399  68.074  1.00  0.00     0.000 HD 
ENDROOT
BRANCH   3  12
HETATM   12  C   UNL     1      -8.111   6.265  71.141  1.00  0.00    -0.118 C  
BRANCH  12  13
HETATM   13  N   UNL     1      -9.560   6.207  71.341  1.00  0.00    -0.160 NA 
HETATM   14  C   UNL     1     -11.303   6.390  69.788  1.00  0.00    -0.494 C  
HETATM   15  C   UNL     1     -11.600   7.367  70.923  1.00  0.00    -0.318 C  
HETATM   16  C   UNL     1     -10.340   5.384  70.415  1.00  0.00    -0.283 C  
HETATM   17  C   UNL     1     -10.286   7.332  71.668  1.00  0.00    -0.192 C  
HETATM   18  N   UNL     1      -9.926   8.257  72.490  1.00  0.00    -0.293 NA 
HETATM   19  H2  UNL     1      -9.018   8.145  72.941  1.00  0.00     0.000 HD 
HETATM   20  H1  UNL     1     -10.464   9.089  72.733  1.00  0.00     0.000 HD 
ENDBRANCH  12  13
ENDBRANCH   3  12
TORSDOF 2
ENDMDL
MODEL      245
REMARK 921   NORMALIZED FREE ENERGY PREDICTED BY IDOCK:   -2.52 KCAL/MOL
REMARK 922        TOTAL FREE ENERGY PREDICTED BY IDOCK:   -3.16 KCAL/MOL
REMARK 923 INTER-LIGAND FREE ENERGY PREDICTED BY IDOCK:   -2.79 KCAL/MOL
REMARK 924 INTRA-LIGAND FREE ENERGY PREDICTED BY IDOCK:   -0.38 KCAL/MOL
REMARK 927      BINDING AFFINITY PREDICTED BY RF-SCORE:    0.00 PKD
ROOT
HETATM    1 CL   UNL     1      -9.793   7.956  68.777  1.00  0.00    -0.163 Cl 
HETATM    2  C   UNL     1      -9.149   7.364  67.295  1.00  0.00    -0.124 C  
HETATM    3  C   UNL     1      -8.196   7.987  66.576  1.00  0.00    -0.115 C  
HETATM    4  C   UNL     1      -9.707   6.077  66.780  1.00  0.00    -0.153 C  
HETATM    5  N   UNL     1      -7.800   7.441  65.368  1.00  0.00    -0.110 N  
HETATM    6  C   UNL     1      -8.324   6.320  64.801  1.00  0.00    -0.051 C  
HETATM    7  O   UNL     1     -10.494   5.387  67.421  1.00  0.00    -0.215 OA 
HETATM    8  H   UNL     1      -7.054   7.917  64.862  1.00  0.00     0.000 HD 
HETATM    9  O   UNL     1      -7.964   5.890  63.711  1.00  0.00    -0.113 OA 
HETATM   10  N   UNL     1      -9.294   5.697  65.531  1.00  0.00    -0.357 N  
HETATM   11  H   UNL     1      -9.746   4.884  65.114  1.00  0.00     0.000 HD 
ENDROOT
BRANCH   3  12
HETATM   12  C   UNL     1      -7.558   9.314  66.938  1.00  0.00    -0.091 C  
BRANCH  12  13
HETATM   13  N   UNL     1      -8.252  10.447  66.323  1.00  0.00    -0.138 NA 
HETATM   14  C   UNL     1     -10.518  10.718  65.796  1.00  0.00    -0.256 C  
HETATM   15  C   UNL     1      -9.716  11.059  64.543  1.00  0.00    -0.323 C  
HETATM   16  C   UNL     1      -9.510  10.884  66.932  1.00  0.00    -0.176 C  
HETATM   17  C   UNL     1      -8.344  10.575  64.953  1.00  0.00    -0.135 C  
HETATM   18  N   UNL     1      -7.412  10.321  64.101  1.00  0.00    -0.264 NA 
HETATM   19  H2  UNL     1      -6.521   9.994  64.476  1.00  0.00     0.000 HD 
HETATM   20  H1  UNL     1      -7.480  10.417  63.088  1.00  0.00     0.000 HD 
ENDBRANCH  12  13
ENDBRANCH   3  12
TORSDOF 2
ENDMDL
MODEL      246
REMARK 921   NORMALIZED FREE ENERGY PREDICTED BY IDOCK:   -2.52 KCAL/MOL
REMARK 922        TOTAL FREE ENERGY PREDICTED BY IDOCK:   -3.15 KCAL/MOL
REMARK 923 INTER-LIGAND FREE ENERGY PREDICTED BY IDOCK:   -2.92 KCAL/MOL
REMARK 924 INTRA-LIGAND FREE ENERGY PREDICTED BY IDOCK:   -0.23 KCAL/MOL
REMARK 927      BINDING AFFINITY PREDICTED BY RF-SCORE:    0.00 PKD
ROOT
HETATM    1 CL   UNL     1     -10.993   9.362  69.354  1.00  0.00    -0.205 Cl 
HETATM    2  C   UNL     1      -9.849   8.176  68.856  1.00  0.00    -0.176 C  
HETATM    3  C   UNL     1      -9.829   6.904  69.297  1.00  0.00    -0.157 C  
HETATM    4  C   UNL     1      -8.807   8.610  67.877  1.00  0.00    -0.137 C  
HETATM    5  N   UNL     1      -8.824   6.058  68.866  1.00  0.00    -0.121 N  
HETATM    6  C   UNL     1      -7.797   6.410  68.043  1.00  0.00    -0.105 C  
HETATM    7  O   UNL     1      -8.815   9.713  67.338  1.00  0.00    -0.128 OA 
HETATM    8  H   UNL     1      -8.853   5.092  69.191  1.00  0.00     0.000 HD 
HETATM    9  O   UNL     1      -6.908   5.634  67.713  1.00  0.00    -0.057 OA 
HETATM   10  N   UNL     1      -7.819   7.702  67.605  1.00  0.00    -0.121 N  
HETATM   11  H   UNL     1      -7.038   8.016  67.029  1.00  0.00     0.000 HD 
ENDROOT
BRANCH   3  12
HETATM   12  C   UNL     1     -10.788   6.320  70.317  1.00  0.00    -0.304 C  
BRANCH  12  13
HETATM   13  N   UNL     1     -10.217   6.302  71.664  1.00  0.00    -0.192 NA 
HETATM   14  C   UNL     1     -10.895   5.125  73.572  1.00  0.00    -0.360 C  
HETATM   15  C   UNL     1     -10.744   6.591  73.972  1.00  0.00    -0.059 C  
HETATM   16  C   UNL     1     -10.042   5.001  72.311  1.00  0.00    -0.192 C  
HETATM   17  C   UNL     1     -10.586   7.233  72.612  1.00  0.00    -0.266 C  
HETATM   18  N   UNL     1     -10.786   8.489  72.408  1.00  0.00    -0.345 NA 
HETATM   19  H2  UNL     1     -10.659   8.827  71.454  1.00  0.00     0.000 HD 
HETATM   20  H1  UNL     1     -11.059   9.177  73.110  1.00  0.00     0.000 HD 
ENDBRANCH  12  13
ENDBRANCH   3  12
TORSDOF 2
ENDMDL
MODEL      247
REMARK 921   NORMALIZED FREE ENERGY PREDICTED BY IDOCK:   -2.51 KCAL/MOL
REMARK 922        TOTAL FREE ENERGY PREDICTED BY IDOCK:   -3.15 KCAL/MOL
REMARK 923 INTER-LIGAND FREE ENERGY PREDICTED BY IDOCK:   -2.87 KCAL/MOL
REMARK 924 INTRA-LIGAND FREE ENERGY PREDICTED BY IDOCK:   -0.28 KCAL/MOL
REMARK 927      BINDING AFFINITY PREDICTED BY RF-SCORE:    0.00 PKD
ROOT
HETATM    1 CL   UNL     1      -7.273  10.004  67.912  1.00  0.00    -0.086 Cl 
HETATM    2  C   UNL     1      -8.690  10.690  68.609  1.00  0.00    -0.148 C  
HETATM    3  C   UNL     1      -9.598   9.998  69.323  1.00  0.00    -0.216 C  
HETATM    4  C   UNL     1      -8.917  12.150  68.384  1.00  0.00    -0.146 C  
HETATM    5  N   UNL     1     -10.728  10.650  69.784  1.00  0.00    -0.366 N  
HETATM    6  C   UNL     1     -11.038  11.953  69.545  1.00  0.00    -0.102 C  
HETATM    7  O   UNL     1      -8.091  12.878  67.843  1.00  0.00    -0.135 OA 
HETATM    8  H   UNL     1     -11.381  10.109  70.350  1.00  0.00     0.000 HD 
HETATM    9  O   UNL     1     -12.070  12.481  69.947  1.00  0.00    -0.304 OA 
HETATM   10  N   UNL     1     -10.117  12.647  68.815  1.00  0.00    -0.417 N  
HETATM   11  H   UNL     1     -10.341  13.612  68.571  1.00  0.00     0.000 HD 
ENDROOT
BRANCH   3  12
HETATM   12  C   UNL     1      -9.535   8.510  69.606  1.00  0.00    -0.165 C  
BRANCH  12  13
HETATM   13  N   UNL     1      -8.546   8.185  70.635  1.00  0.00    -0.127 NA 
HETATM   14  C   UNL     1      -7.353   6.204  71.005  1.00  0.00    -0.083 C  
HETATM   15  C   UNL     1      -7.996   6.602  72.331  1.00  0.00    -0.099 C  
HETATM   16  C   UNL     1      -7.321   7.507  70.208  1.00  0.00    -0.076 C  
HETATM   17  C   UNL     1      -8.926   7.700  71.868  1.00  0.00    -0.120 C  
HETATM   18  N   UNL     1      -9.935   8.097  72.564  1.00  0.00    -0.275 NA 
HETATM   19  H2  UNL     1     -10.507   8.841  72.164  1.00  0.00     0.000 HD 
HETATM   20  H1  UNL     1     -10.215   7.738  73.477  1.00  0.00     0.000 HD 
ENDBRANCH  12  13
ENDBRANCH   3  12
TORSDOF 2
ENDMDL
MODEL      248
REMARK 921   NORMALIZED FREE ENERGY PREDICTED BY IDOCK:   -2.50 KCAL/MOL
REMARK 922        TOTAL FREE ENERGY PREDICTED BY IDOCK:   -3.14 KCAL/MOL
REMARK 923 INTER-LIGAND FREE ENERGY PREDICTED BY IDOCK:   -2.96 KCAL/MOL
REMARK 924 INTRA-LIGAND FREE ENERGY PREDICTED BY IDOCK:   -0.18 KCAL/MOL
REMARK 927      BINDING AFFINITY PREDICTED BY RF-SCORE:    0.00 PKD
ROOT
HETATM    1 CL   UNL     1      -8.736   7.986  68.530  1.00  0.00    -0.131 Cl 
HETATM    2  C   UNL     1      -9.773   9.268  68.035  1.00  0.00    -0.150 C  
HETATM    3  C   UNL     1      -9.904   9.694  66.764  1.00  0.00    -0.211 C  
HETATM    4  C   UNL     1     -10.564   9.951  69.104  1.00  0.00    -0.220 C  
HETATM    5  N   UNL     1     -10.727  10.773  66.499  1.00  0.00    -0.218 N  
HETATM    6  C   UNL     1     -11.409  11.493  67.433  1.00  0.00    -0.298 C  
HETATM    7  O   UNL     1     -10.592   9.558  70.267  1.00  0.00    -0.226 OA 
HETATM    8  H   UNL     1     -10.832  11.053  65.524  1.00  0.00     0.000 HD 
HETATM    9  O   UNL     1     -12.102  12.465  67.154  1.00  0.00    -0.532 OA 
HETATM   10  N   UNL     1     -11.267  11.060  68.719  1.00  0.00    -0.242 N  
HETATM   11  H   UNL     1     -11.720  11.606  69.451  1.00  0.00     0.000 HD 
ENDROOT
BRANCH   3  12
HETATM   12  C   UNL     1      -9.147   9.137  65.575  1.00  0.00    -0.219 C  
BRANCH  12  13
HETATM   13  N   UNL     1      -7.705   9.079  65.817  1.00  0.00    -0.090 NA 
HETATM   14  C   UNL     1      -5.931   9.959  64.566  1.00  0.00    -0.106 C  
HETATM   15  C   UNL     1      -5.618   8.487  64.826  1.00  0.00    -0.047 C  
HETATM   16  C   UNL     1      -6.939  10.316  65.657  1.00  0.00    -0.133 C  
HETATM   17  C   UNL     1      -6.944   8.016  65.376  1.00  0.00    -0.063 C  
HETATM   18  N   UNL     1      -7.284   6.774  65.406  1.00  0.00    -0.074 NA 
HETATM   19  H2  UNL     1      -8.203   6.556  65.792  1.00  0.00     0.000 HD 
HETATM   20  H1  UNL     1      -6.721   5.988  65.080  1.00  0.00     0.000 HD 
ENDBRANCH  12  13
ENDBRANCH   3  12
TORSDOF 2
ENDMDL
MODEL      249
REMARK 921   NORMALIZED FREE ENERGY PREDICTED BY IDOCK:   -2.45 KCAL/MOL
REMARK 922        TOTAL FREE ENERGY PREDICTED BY IDOCK:   -3.09 KCAL/MOL
REMARK 923 INTER-LIGAND FREE ENERGY PREDICTED BY IDOCK:   -3.03 KCAL/MOL
REMARK 924 INTRA-LIGAND FREE ENERGY PREDICTED BY IDOCK:   -0.06 KCAL/MOL
REMARK 927      BINDING AFFINITY PREDICTED BY RF-SCORE:    0.00 PKD
ROOT
HETATM    1 CL   UNL     1      -8.055   8.985  67.480  1.00  0.00    -0.108 Cl 
HETATM    2  C   UNL     1      -9.282   8.216  68.411  1.00  0.00    -0.135 C  
HETATM    3  C   UNL     1     -10.106   7.259  67.943  1.00  0.00    -0.177 C  
HETATM    4  C   UNL     1      -9.439   8.666  69.827  1.00  0.00    -0.166 C  
HETATM    5  N   UNL     1     -11.093   6.757  68.773  1.00  0.00    -0.491 N  
HETATM    6  C   UNL     1     -11.345   7.179  70.042  1.00  0.00    -0.206 C  
HETATM    7  O   UNL     1      -8.665   9.450  70.369  1.00  0.00    -0.208 OA 
HETATM    8  H   UNL     1     -11.680   6.010  68.403  1.00  0.00     0.000 HD 
HETATM    9  O   UNL     1     -12.254   6.728  70.730  1.00  0.00    -0.390 OA 
HETATM   10  N   UNL     1     -10.512   8.155  70.508  1.00  0.00    -0.210 N  
HETATM   11  H   UNL     1     -10.703   8.533  71.435  1.00  0.00     0.000 HD 
ENDROOT
BRANCH   3  12
HETATM   12  C   UNL     1     -10.103   6.722  66.525  1.00  0.00    -0.066 C  
BRANCH  12  13
HETATM   13  N   UNL     1      -9.576   5.360  66.451  1.00  0.00    -0.152 NA 
HETATM   14  C   UNL     1      -7.419   4.554  66.879  1.00  0.00    -0.082 C  
HETATM   15  C   UNL     1      -7.838   4.026  65.509  1.00  0.00    -0.090 C  
HETATM   16  C   UNL     1      -8.743   4.892  67.561  1.00  0.00    -0.103 C  
HETATM   17  C   UNL     1      -9.088   4.841  65.270  1.00  0.00    -0.155 C  
HETATM   18  N   UNL     1      -9.596   5.010  64.098  1.00  0.00    -0.290 NA 
HETATM   19  H2  UNL     1     -10.439   5.581  64.039  1.00  0.00     0.000 HD 
HETATM   20  H1  UNL     1      -9.235   4.626  63.225  1.00  0.00     0.000 HD 
ENDBRANCH  12  13
ENDBRANCH   3  12
TORSDOF 2
ENDMDL
MODEL      250
REMARK 921   NORMALIZED FREE ENERGY PREDICTED BY IDOCK:   -2.44 KCAL/MOL
REMARK 922        TOTAL FREE ENERGY PREDICTED BY IDOCK:   -3.07 KCAL/MOL
REMARK 923 INTER-LIGAND FREE ENERGY PREDICTED BY IDOCK:   -2.68 KCAL/MOL
REMARK 924 INTRA-LIGAND FREE ENERGY PREDICTED BY IDOCK:   -0.39 KCAL/MOL
REMARK 927      BINDING AFFINITY PREDICTED BY RF-SCORE:    0.00 PKD
ROOT
HETATM    1 CL   UNL     1     -11.361   5.772  72.600  1.00  0.00    -0.342 Cl 
HETATM    2  C   UNL     1     -10.265   4.744  71.761  1.00  0.00    -0.188 C  
HETATM    3  C   UNL     1     -10.088   4.748  70.426  1.00  0.00    -0.231 C  
HETATM    4  C   UNL     1      -9.474   3.780  72.584  1.00  0.00    -0.124 C  
HETATM    5  N   UNL     1      -9.218   3.833  69.860  1.00  0.00    -0.131 N  
HETATM    6  C   UNL     1      -8.532   2.874  70.540  1.00  0.00    -0.056 C  
HETATM    7  O   UNL     1      -9.488   3.782  73.812  1.00  0.00    -0.099 OA 
HETATM    8  H   UNL     1      -9.080   3.881  68.851  1.00  0.00     0.000 HD 
HETATM    9  O   UNL     1      -7.796   2.062  69.991  1.00  0.00    -0.042 OA 
HETATM   10  N   UNL     1      -8.721   2.871  71.891  1.00  0.00    -0.072 N  
HETATM   11  H   UNL     1      -8.264   2.134  72.428  1.00  0.00     0.000 HD 
ENDROOT
BRANCH   3  12
HETATM   12  C   UNL     1     -10.838   5.633  69.449  1.00  0.00    -0.264 C  
BRANCH  12  13
HETATM   13  N   UNL     1      -9.974   6.652  68.851  1.00  0.00    -0.149 NA 
HETATM   14  C   UNL     1     -10.516   8.464  67.470  1.00  0.00    -0.328 C  
HETATM   15  C   UNL     1      -9.386   7.695  66.790  1.00  0.00    -0.218 C  
HETATM   16  C   UNL     1     -10.410   8.047  68.936  1.00  0.00    -0.209 C  
HETATM   17  C   UNL     1      -9.353   6.445  67.638  1.00  0.00    -0.117 C  
HETATM   18  N   UNL     1      -8.810   5.346  67.239  1.00  0.00    -0.107 NA 
HETATM   19  H2  UNL     1      -8.843   4.555  67.882  1.00  0.00     0.000 HD 
HETATM   20  H1  UNL     1      -8.351   5.194  66.341  1.00  0.00     0.000 HD 
ENDBRANCH  12  13
ENDBRANCH   3  12
TORSDOF 2
ENDMDL
MODEL      251
REMARK 921   NORMALIZED FREE ENERGY PREDICTED BY IDOCK:   -2.41 KCAL/MOL
REMARK 922        TOTAL FREE ENERGY PREDICTED BY IDOCK:   -3.03 KCAL/MOL
REMARK 923 INTER-LIGAND FREE ENERGY PREDICTED BY IDOCK:   -2.82 KCAL/MOL
REMARK 924 INTRA-LIGAND FREE ENERGY PREDICTED BY IDOCK:   -0.21 KCAL/MOL
REMARK 927      BINDING AFFINITY PREDICTED BY RF-SCORE:    0.00 PKD
ROOT
HETATM    1 CL   UNL     1      -8.482   7.112  69.354  1.00  0.00    -0.133 Cl 
HETATM    2  C   UNL     1      -8.935   8.683  68.814  1.00  0.00    -0.138 C  
HETATM    3  C   UNL     1      -9.474   8.947  67.608  1.00  0.00    -0.138 C  
HETATM    4  C   UNL     1      -8.693   9.819  69.754  1.00  0.00    -0.212 C  
HETATM    5  N   UNL     1      -9.743  10.260  67.265  1.00  0.00    -0.162 N  
HETATM    6  C   UNL     1      -9.471  11.347  68.038  1.00  0.00    -0.181 C  
HETATM    7  O   UNL     1      -8.311   9.659  70.909  1.00  0.00    -0.272 OA 
HETATM    8  H   UNL     1     -10.181  10.427  66.360  1.00  0.00     0.000 HD 
HETATM    9  O   UNL     1      -9.697  12.497  67.678  1.00  0.00    -0.188 OA 
HETATM   10  N   UNL     1      -8.918  11.073  69.255  1.00  0.00    -0.393 N  
HETATM   11  H   UNL     1      -8.653  11.866  69.839  1.00  0.00     0.000 HD 
ENDROOT
BRANCH   3  12
HETATM   12  C   UNL     1      -9.744   7.917  66.528  1.00  0.00    -0.209 C  
BRANCH  12  13
HETATM   13  N   UNL     1      -8.514   7.464  65.877  1.00  0.00    -0.146 NA 
HETATM   14  C   UNL     1      -7.582   8.085  63.821  1.00  0.00    -0.129 C  
HETATM   15  C   UNL     1      -7.640   6.560  63.852  1.00  0.00    -0.103 C  
HETATM   16  C   UNL     1      -7.639   8.483  65.295  1.00  0.00    -0.089 C  
HETATM   17  C   UNL     1      -8.497   6.341  65.078  1.00  0.00    -0.046 C  
HETATM   18  N   UNL     1      -9.118   5.236  65.305  1.00  0.00    -0.278 NA 
HETATM   19  H2  UNL     1      -9.676   5.186  66.157  1.00  0.00     0.000 HD 
HETATM   20  H1  UNL     1      -9.104   4.405  64.713  1.00  0.00     0.000 HD 
ENDBRANCH  12  13
ENDBRANCH   3  12
TORSDOF 2
ENDMDL
MODEL      252
REMARK 921   NORMALIZED FREE ENERGY PREDICTED BY IDOCK:   -2.40 KCAL/MOL
REMARK 922        TOTAL FREE ENERGY PREDICTED BY IDOCK:   -3.03 KCAL/MOL
REMARK 923 INTER-LIGAND FREE ENERGY PREDICTED BY IDOCK:   -2.76 KCAL/MOL
REMARK 924 INTRA-LIGAND FREE ENERGY PREDICTED BY IDOCK:   -0.27 KCAL/MOL
REMARK 927      BINDING AFFINITY PREDICTED BY RF-SCORE:    0.00 PKD
ROOT
HETATM    1 CL   UNL     1     -10.902  10.973  69.620  1.00  0.00    -0.269 Cl 
HETATM    2  C   UNL     1      -9.544  11.040  68.564  1.00  0.00    -0.187 C  
HETATM    3  C   UNL     1      -8.325  10.550  68.860  1.00  0.00    -0.147 C  
HETATM    4  C   UNL     1      -9.747  11.703  67.241  1.00  0.00    -0.180 C  
HETATM    5  N   UNL     1      -7.295  10.715  67.951  1.00  0.00    -0.088 N  
HETATM    6  C   UNL     1      -7.389  11.381  66.767  1.00  0.00    -0.135 C  
HETATM    7  O   UNL     1     -10.846  12.078  66.843  1.00  0.00    -0.238 OA 
HETATM    8  H   UNL     1      -6.392  10.305  68.187  1.00  0.00     0.000 HD 
HETATM    9  O   UNL     1      -6.439  11.531  66.006  1.00  0.00     0.082 OA 
HETATM   10  N   UNL     1      -8.625  11.881  66.476  1.00  0.00    -0.305 N  
HETATM   11  H   UNL     1      -8.720  12.431  65.623  1.00  0.00     0.000 HD 
ENDROOT
BRANCH   3  12
HETATM   12  C   UNL     1      -7.945   9.887  70.170  1.00  0.00    -0.162 C  
BRANCH  12  13
HETATM   13  N   UNL     1      -8.453   8.518  70.263  1.00  0.00    -0.122 NA 
HETATM   14  C   UNL     1     -10.220   7.486  69.124  1.00  0.00    -0.202 C  
HETATM   15  C   UNL     1     -10.426   7.226  70.614  1.00  0.00    -0.226 C  
HETATM   16  C   UNL     1      -8.732   7.810  69.012  1.00  0.00    -0.135 C  
HETATM   17  C   UNL     1      -9.398   8.164  71.202  1.00  0.00    -0.154 C  
HETATM   18  N   UNL     1      -9.439   8.563  72.427  1.00  0.00    -0.288 NA 
HETATM   19  H2  UNL     1      -8.702   9.201  72.730  1.00  0.00     0.000 HD 
HETATM   20  H1  UNL     1     -10.139   8.301  73.122  1.00  0.00     0.000 HD 
ENDBRANCH  12  13
ENDBRANCH   3  12
TORSDOF 2
ENDMDL
MODEL      253
REMARK 921   NORMALIZED FREE ENERGY PREDICTED BY IDOCK:   -2.37 KCAL/MOL
REMARK 922        TOTAL FREE ENERGY PREDICTED BY IDOCK:   -2.99 KCAL/MOL
REMARK 923 INTER-LIGAND FREE ENERGY PREDICTED BY IDOCK:   -2.69 KCAL/MOL
REMARK 924 INTRA-LIGAND FREE ENERGY PREDICTED BY IDOCK:   -0.30 KCAL/MOL
REMARK 927      BINDING AFFINITY PREDICTED BY RF-SCORE:    0.00 PKD
ROOT
HETATM    1 CL   UNL     1      -8.119   4.393  70.983  1.00  0.00    -0.079 Cl 
HETATM    2  C   UNL     1      -9.157   5.748  71.204  1.00  0.00    -0.146 C  
HETATM    3  C   UNL     1      -9.077   6.892  70.498  1.00  0.00    -0.156 C  
HETATM    4  C   UNL     1     -10.203   5.634  72.266  1.00  0.00    -0.199 C  
HETATM    5  N   UNL     1      -9.933   7.934  70.807  1.00  0.00    -0.184 N  
HETATM    6  C   UNL     1     -10.850   7.929  71.813  1.00  0.00    -0.237 C  
HETATM    7  O   UNL     1     -10.421   4.594  72.880  1.00  0.00    -0.177 OA 
HETATM    8  H   UNL     1      -9.871   8.775  70.234  1.00  0.00     0.000 HD 
HETATM    9  O   UNL     1     -11.565   8.890  72.073  1.00  0.00    -0.351 OA 
HETATM   10  N   UNL     1     -10.921   6.770  72.530  1.00  0.00    -0.237 N  
HETATM   11  H   UNL     1     -11.559   6.747  73.325  1.00  0.00     0.000 HD 
ENDROOT
BRANCH   3  12
HETATM   12  C   UNL     1      -8.052   7.181  69.419  1.00  0.00    -0.130 C  
BRANCH  12  13
HETATM   13  N   UNL     1      -8.491   6.718  68.102  1.00  0.00    -0.121 NA 
HETATM   14  C   UNL     1     -10.343   5.415  67.503  1.00  0.00    -0.246 C  
HETATM   15  C   UNL     1      -9.113   4.778  66.862  1.00  0.00    -0.118 C  
HETATM   16  C   UNL     1      -9.911   6.855  67.772  1.00  0.00    -0.148 C  
HETATM   17  C   UNL     1      -8.011   5.547  67.555  1.00  0.00    -0.101 C  
HETATM   18  N   UNL     1      -6.796   5.123  67.611  1.00  0.00    -0.059 NA 
HETATM   19  H2  UNL     1      -6.125   5.711  68.106  1.00  0.00     0.000 HD 
HETATM   20  H1  UNL     1      -6.441   4.257  67.206  1.00  0.00     0.000 HD 
ENDBRANCH  12  13
ENDBRANCH   3  12
TORSDOF 2
ENDMDL
MODEL      254
REMARK 921   NORMALIZED FREE ENERGY PREDICTED BY IDOCK:   -2.34 KCAL/MOL
REMARK 922        TOTAL FREE ENERGY PREDICTED BY IDOCK:   -2.96 KCAL/MOL
REMARK 923 INTER-LIGAND FREE ENERGY PREDICTED BY IDOCK:   -2.81 KCAL/MOL
REMARK 924 INTRA-LIGAND FREE ENERGY PREDICTED BY IDOCK:   -0.15 KCAL/MOL
REMARK 927      BINDING AFFINITY PREDICTED BY RF-SCORE:    0.00 PKD
ROOT
HETATM    1 CL   UNL     1      -9.886   8.734  68.299  1.00  0.00    -0.176 Cl 
HETATM    2  C   UNL     1      -9.640   8.361  69.961  1.00  0.00    -0.168 C  
HETATM    3  C   UNL     1     -10.226   7.333  70.605  1.00  0.00    -0.195 C  
HETATM    4  C   UNL     1      -8.722   9.256  70.728  1.00  0.00    -0.217 C  
HETATM    5  N   UNL     1      -9.994   7.169  71.959  1.00  0.00    -0.163 N  
HETATM    6  C   UNL     1      -9.239   7.994  72.735  1.00  0.00    -0.252 C  
HETATM    7  O   UNL     1      -8.061  10.145  70.199  1.00  0.00    -0.146 OA 
HETATM    8  H   UNL     1     -10.424   6.364  72.413  1.00  0.00     0.000 HD 
HETATM    9  O   UNL     1      -9.088   7.828  73.940  1.00  0.00    -0.268 OA 
HETATM   10  N   UNL     1      -8.654   9.037  72.077  1.00  0.00     0.088 N  
HETATM   11  H   UNL     1      -8.124   9.706  72.636  1.00  0.00     0.000 HD 
ENDROOT
BRANCH   3  12
HETATM   12  C   UNL     1     -11.209   6.360  69.983  1.00  0.00    -0.411 C  
BRANCH  12  13
HETATM   13  N   UNL     1     -10.565   5.114  69.569  1.00  0.00    -0.175 NA 
HETATM   14  C   UNL     1      -8.339   4.420  69.796  1.00  0.00    -0.075 C  
HETATM   15  C   UNL     1      -8.730   4.224  68.333  1.00  0.00    -0.118 C  
HETATM   16  C   UNL     1      -9.678   4.455  70.530  1.00  0.00    -0.217 C  
HETATM   17  C   UNL     1     -10.050   4.959  68.299  1.00  0.00    -0.075 C  
HETATM   18  N   UNL     1     -10.588   5.374  67.204  1.00  0.00    -0.239 NA 
HETATM   19  H2  UNL     1     -11.479   5.865  67.285  1.00  0.00     0.000 HD 
HETATM   20  H1  UNL     1     -10.207   5.259  66.265  1.00  0.00     0.000 HD 
ENDBRANCH  12  13
ENDBRANCH   3  12
TORSDOF 2
ENDMDL
MODEL      255
REMARK 921   NORMALIZED FREE ENERGY PREDICTED BY IDOCK:   -2.28 KCAL/MOL
REMARK 922        TOTAL FREE ENERGY PREDICTED BY IDOCK:   -2.90 KCAL/MOL
REMARK 923 INTER-LIGAND FREE ENERGY PREDICTED BY IDOCK:   -2.97 KCAL/MOL
REMARK 924 INTRA-LIGAND FREE ENERGY PREDICTED BY IDOCK:    0.07 KCAL/MOL
REMARK 927      BINDING AFFINITY PREDICTED BY RF-SCORE:    0.00 PKD
ROOT
HETATM    1 CL   UNL     1      -6.533  11.366  66.593  1.00  0.00    -0.134 Cl 
HETATM    2  C   UNL     1      -8.036  10.683  67.080  1.00  0.00    -0.121 C  
HETATM    3  C   UNL     1      -9.232  11.029  66.566  1.00  0.00    -0.171 C  
HETATM    4  C   UNL     1      -7.993   9.649  68.158  1.00  0.00    -0.100 C  
HETATM    5  N   UNL     1     -10.378  10.450  67.081  1.00  0.00    -0.225 N  
HETATM    6  C   UNL     1     -10.417   9.567  68.116  1.00  0.00    -0.223 C  
HETATM    7  O   UNL     1      -6.944   9.194  68.605  1.00  0.00    -0.062 OA 
HETATM    8  H   UNL     1     -11.265  10.706  66.650  1.00  0.00     0.000 HD 
HETATM    9  O   UNL     1     -11.461   9.104  68.562  1.00  0.00     0.353 OA 
HETATM   10  N   UNL     1      -9.203   9.226  68.638  1.00  0.00    -0.135 N  
HETATM   11  H   UNL     1      -9.197   8.607  69.448  1.00  0.00     0.000 HD 
ENDROOT
BRANCH   3  12
HETATM   12  C   UNL     1      -9.450  12.085  65.500  1.00  0.00    -0.104 C  
BRANCH  12  13
HETATM   13  N   UNL     1     -10.000  13.323  66.054  1.00  0.00    -0.294 NA 
HETATM   14  C   UNL     1     -11.408  13.654  67.895  1.00  0.00    -0.325 C  
HETATM   15  C   UNL     1     -12.026  14.394  66.711  1.00  0.00    -0.423 C  
HETATM   16  C   UNL     1      -9.939  13.503  67.506  1.00  0.00    -0.230 C  
HETATM   17  C   UNL     1     -11.177  13.861  65.580  1.00  0.00    -0.307 C  
HETATM   18  N   UNL     1     -11.546  13.918  64.347  1.00  0.00    -0.463 NA 
HETATM   19  H2  UNL     1     -10.905  13.527  63.656  1.00  0.00     0.000 HD 
HETATM   20  H1  UNL     1     -12.417  14.316  63.996  1.00  0.00     0.000 HD 
ENDBRANCH  12  13
ENDBRANCH   3  12
TORSDOF 2
ENDMDL
MODEL      256
REMARK 921   NORMALIZED FREE ENERGY PREDICTED BY IDOCK:   -2.27 KCAL/MOL
REMARK 922        TOTAL FREE ENERGY PREDICTED BY IDOCK:   -2.88 KCAL/MOL
REMARK 923 INTER-LIGAND FREE ENERGY PREDICTED BY IDOCK:   -2.67 KCAL/MOL
REMARK 924 INTRA-LIGAND FREE ENERGY PREDICTED BY IDOCK:   -0.21 KCAL/MOL
REMARK 927      BINDING AFFINITY PREDICTED BY RF-SCORE:    0.00 PKD
ROOT
HETATM    1 CL   UNL     1      -6.567   7.432  69.573  1.00  0.00    -0.036 Cl 
HETATM    2  C   UNL     1      -8.084   7.230  68.784  1.00  0.00    -0.124 C  
HETATM    3  C   UNL     1      -9.116   6.526  69.287  1.00  0.00    -0.137 C  
HETATM    4  C   UNL     1      -8.242   7.874  67.446  1.00  0.00    -0.123 C  
HETATM    5  N   UNL     1     -10.266   6.388  68.532  1.00  0.00    -0.160 N  
HETATM    6  C   UNL     1     -10.447   6.876  67.274  1.00  0.00    -0.287 C  
HETATM    7  O   UNL     1      -7.398   8.624  66.962  1.00  0.00    -0.079 OA 
HETATM    8  H   UNL     1     -11.043   5.878  68.952  1.00  0.00     0.000 HD 
HETATM    9  O   UNL     1     -11.473   6.700  66.628  1.00  0.00    -0.011 OA 
HETATM   10  N   UNL     1      -9.394   7.582  66.767  1.00  0.00    -0.157 N  
HETATM   11  H   UNL     1      -9.473   7.918  65.808  1.00  0.00     0.000 HD 
ENDROOT
BRANCH   3  12
HETATM   12  C   UNL     1      -9.103   5.782  70.608  1.00  0.00    -0.151 C  
BRANCH  12  13
HETATM   13  N   UNL     1     -10.092   6.309  71.549  1.00  0.00    -0.188 NA 
HETATM   14  C   UNL     1      -9.896   8.015  73.142  1.00  0.00    -0.332 C  
HETATM   15  C   UNL     1     -10.478   6.795  73.851  1.00  0.00    -0.356 C  
HETATM   16  C   UNL     1     -10.209   7.764  71.668  1.00  0.00    -0.186 C  
HETATM   17  C   UNL     1     -10.279   5.737  72.789  1.00  0.00    -0.185 C  
HETATM   18  N   UNL     1     -10.286   4.476  73.053  1.00  0.00    -0.159 NA 
HETATM   19  H2  UNL     1     -10.138   3.841  72.269  1.00  0.00     0.000 HD 
HETATM   20  H1  UNL     1     -10.425   4.054  73.971  1.00  0.00     0.000 HD 
ENDBRANCH  12  13
ENDBRANCH   3  12
TORSDOF 2
ENDMDL
MODEL      257
REMARK 921   NORMALIZED FREE ENERGY PREDICTED BY IDOCK:   -2.22 KCAL/MOL
REMARK 922        TOTAL FREE ENERGY PREDICTED BY IDOCK:   -2.83 KCAL/MOL
REMARK 923 INTER-LIGAND FREE ENERGY PREDICTED BY IDOCK:   -2.45 KCAL/MOL
REMARK 924 INTRA-LIGAND FREE ENERGY PREDICTED BY IDOCK:   -0.38 KCAL/MOL
REMARK 927      BINDING AFFINITY PREDICTED BY RF-SCORE:    0.00 PKD
ROOT
HETATM    1 CL   UNL     1     -10.733   7.096  68.110  1.00  0.00    -0.235 Cl 
HETATM    2  C   UNL     1      -9.795   7.097  69.553  1.00  0.00    -0.162 C  
HETATM    3  C   UNL     1      -9.324   8.206  70.154  1.00  0.00    -0.159 C  
HETATM    4  C   UNL     1      -9.481   5.767  70.158  1.00  0.00    -0.160 C  
HETATM    5  N   UNL     1      -8.532   8.076  71.281  1.00  0.00    -0.115 N  
HETATM    6  C   UNL     1      -8.139   6.896  71.834  1.00  0.00    -0.100 C  
HETATM    7  O   UNL     1      -9.960   4.716  69.743  1.00  0.00    -0.217 OA 
HETATM    8  H   UNL     1      -8.217   8.933  71.733  1.00  0.00     0.000 HD 
HETATM    9  O   UNL     1      -7.407   6.828  72.816  1.00  0.00    -0.079 OA 
HETATM   10  N   UNL     1      -8.613   5.775  71.217  1.00  0.00    -0.128 N  
HETATM   11  H   UNL     1      -8.297   4.873  71.572  1.00  0.00     0.000 HD 
ENDROOT
BRANCH   3  12
HETATM   12  C   UNL     1      -9.519   9.622  69.648  1.00  0.00    -0.210 C  
BRANCH  12  13
HETATM   13  N   UNL     1      -8.387  10.082  68.843  1.00  0.00    -0.122 NA 
HETATM   14  C   UNL     1      -6.828   8.855  67.598  1.00  0.00    -0.070 C  
HETATM   15  C   UNL     1      -6.044   9.806  68.499  1.00  0.00    -0.042 C  
HETATM   16  C   UNL     1      -8.214   9.491  67.514  1.00  0.00    -0.121 C  
HETATM   17  C   UNL     1      -7.147  10.300  69.405  1.00  0.00    -0.094 C  
HETATM   18  N   UNL     1      -6.917  10.845  70.550  1.00  0.00    -0.435 NA 
HETATM   19  H2  UNL     1      -7.728  11.142  71.091  1.00  0.00     0.000 HD 
HETATM   20  H1  UNL     1      -5.999  11.007  70.966  1.00  0.00     0.000 HD 
ENDBRANCH  12  13
ENDBRANCH   3  12
TORSDOF 2
ENDMDL
MODEL      258
REMARK 921   NORMALIZED FREE ENERGY PREDICTED BY IDOCK:   -2.21 KCAL/MOL
REMARK 922        TOTAL FREE ENERGY PREDICTED BY IDOCK:   -2.81 KCAL/MOL
REMARK 923 INTER-LIGAND FREE ENERGY PREDICTED BY IDOCK:   -2.62 KCAL/MOL
REMARK 924 INTRA-LIGAND FREE ENERGY PREDICTED BY IDOCK:   -0.19 KCAL/MOL
REMARK 927      BINDING AFFINITY PREDICTED BY RF-SCORE:    0.00 PKD
ROOT
HETATM    1 CL   UNL     1     -10.667   7.671  68.218  1.00  0.00    -0.160 Cl 
HETATM    2  C   UNL     1      -9.932   9.227  68.263  1.00  0.00    -0.173 C  
HETATM    3  C   UNL     1      -9.353   9.764  69.354  1.00  0.00    -0.202 C  
HETATM    4  C   UNL     1      -9.961  10.027  67.002  1.00  0.00    -0.205 C  
HETATM    5  N   UNL     1      -8.847  11.049  69.283  1.00  0.00    -0.383 N  
HETATM    6  C   UNL     1      -8.914  11.863  68.193  1.00  0.00    -0.185 C  
HETATM    7  O   UNL     1     -10.367   9.576  65.934  1.00  0.00    -0.206 OA 
HETATM    8  H   UNL     1      -8.385  11.417  70.114  1.00  0.00     0.000 HD 
HETATM    9  O   UNL     1      -8.480  13.009  68.186  1.00  0.00    -0.164 OA 
HETATM   10  N   UNL     1      -9.508  11.316  67.093  1.00  0.00    -0.169 N  
HETATM   11  H   UNL     1      -9.624  11.914  66.276  1.00  0.00     0.000 HD 
ENDROOT
BRANCH   3  12
HETATM   12  C   UNL     1      -9.277   9.102  70.716  1.00  0.00    -0.262 C  
BRANCH  12  13
HETATM   13  N   UNL     1      -8.065   8.297  70.871  1.00  0.00    -0.095 NA 
HETATM   14  C   UNL     1      -6.686   7.323  69.248  1.00  0.00    -0.049 C  
HETATM   15  C   UNL     1      -7.045   6.232  70.254  1.00  0.00    -0.074 C  
HETATM   16  C   UNL     1      -6.920   8.621  70.018  1.00  0.00    -0.043 C  
HETATM   17  C   UNL     1      -8.127   6.930  71.043  1.00  0.00    -0.106 C  
HETATM   18  N   UNL     1      -8.982   6.293  71.767  1.00  0.00    -0.141 NA 
HETATM   19  H2  UNL     1      -9.678   6.853  72.259  1.00  0.00     0.000 HD 
HETATM   20  H1  UNL     1      -9.028   5.282  71.895  1.00  0.00     0.000 HD 
ENDBRANCH  12  13
ENDBRANCH   3  12
TORSDOF 2
ENDMDL
MODEL      259
REMARK 921   NORMALIZED FREE ENERGY PREDICTED BY IDOCK:   -2.20 KCAL/MOL
REMARK 922        TOTAL FREE ENERGY PREDICTED BY IDOCK:   -2.80 KCAL/MOL
REMARK 923 INTER-LIGAND FREE ENERGY PREDICTED BY IDOCK:   -2.74 KCAL/MOL
REMARK 924 INTRA-LIGAND FREE ENERGY PREDICTED BY IDOCK:   -0.06 KCAL/MOL
REMARK 927      BINDING AFFINITY PREDICTED BY RF-SCORE:    0.00 PKD
ROOT
HETATM    1 CL   UNL     1     -11.502  13.122  68.953  1.00  0.00    -0.319 Cl 
HETATM    2  C   UNL     1     -10.209  14.229  68.693  1.00  0.00    -0.246 C  
HETATM    3  C   UNL     1      -9.198  14.028  67.826  1.00  0.00    -0.195 C  
HETATM    4  C   UNL     1     -10.219  15.484  69.502  1.00  0.00    -0.279 C  
HETATM    5  N   UNL     1      -8.184  14.965  67.748  1.00  0.00    -0.146 N  
HETATM    6  C   UNL     1      -8.087  16.087  68.513  1.00  0.00    -0.169 C  
HETATM    7  O   UNL     1     -11.155  15.801  70.231  1.00  0.00    -0.301 OA 
HETATM    8  H   UNL     1      -7.449  14.803  67.060  1.00  0.00     0.000 HD 
HETATM    9  O   UNL     1      -7.151  16.874  68.432  1.00  0.00    -0.172 OA 
HETATM   10  N   UNL     1      -9.111  16.281  69.394  1.00  0.00    -0.169 N  
HETATM   11  H   UNL     1      -9.046  17.083  70.021  1.00  0.00     0.000 HD 
ENDROOT
BRANCH   3  12
HETATM   12  C   UNL     1      -9.021  12.793  66.964  1.00  0.00    -0.221 C  
BRANCH  12  13
HETATM   13  N   UNL     1      -8.518  11.652  67.730  1.00  0.00    -0.138 NA 
HETATM   14  C   UNL     1      -6.377  11.235  68.582  1.00  0.00    -0.045 C  
HETATM   15  C   UNL     1      -6.804   9.996  67.799  1.00  0.00    -0.076 C  
HETATM   16  C   UNL     1      -7.695  11.934  68.908  1.00  0.00    -0.016 C  
HETATM   17  C   UNL     1      -8.039  10.522  67.103  1.00  0.00    -0.120 C  
HETATM   18  N   UNL     1      -8.543   9.959  66.059  1.00  0.00    -0.134 NA 
HETATM   19  H2  UNL     1      -9.375  10.392  65.659  1.00  0.00     0.000 HD 
HETATM   20  H1  UNL     1      -8.188   9.122  65.596  1.00  0.00     0.000 HD 
ENDBRANCH  12  13
ENDBRANCH   3  12
TORSDOF 2
ENDMDL
MODEL      260
REMARK 921   NORMALIZED FREE ENERGY PREDICTED BY IDOCK:   -2.19 KCAL/MOL
REMARK 922        TOTAL FREE ENERGY PREDICTED BY IDOCK:   -2.79 KCAL/MOL
REMARK 923 INTER-LIGAND FREE ENERGY PREDICTED BY IDOCK:   -2.53 KCAL/MOL
REMARK 924 INTRA-LIGAND FREE ENERGY PREDICTED BY IDOCK:   -0.26 KCAL/MOL
REMARK 927      BINDING AFFINITY PREDICTED BY RF-SCORE:    0.00 PKD
ROOT
HETATM    1 CL   UNL     1      -8.880   8.245  67.637  1.00  0.00    -0.136 Cl 
HETATM    2  C   UNL     1      -8.055   8.372  69.143  1.00  0.00    -0.119 C  
HETATM    3  C   UNL     1      -7.663   7.320  69.887  1.00  0.00    -0.103 C  
HETATM    4  C   UNL     1      -7.776   9.750  69.648  1.00  0.00    -0.136 C  
HETATM    5  N   UNL     1      -7.058   7.550  71.110  1.00  0.00    -0.058 N  
HETATM    6  C   UNL     1      -6.850   8.775  71.667  1.00  0.00    -0.078 C  
HETATM    7  O   UNL     1      -7.996  10.761  68.987  1.00  0.00    -0.126 OA 
HETATM    8  H   UNL     1      -6.743   6.736  71.636  1.00  0.00     0.000 HD 
HETATM    9  O   UNL     1      -6.339   8.930  72.771  1.00  0.00    -0.239 OA 
HETATM   10  N   UNL     1      -7.256   9.836  70.911  1.00  0.00    -0.003 N  
HETATM   11  H   UNL     1      -7.164  10.766  71.319  1.00  0.00     0.000 HD 
ENDROOT
BRANCH   3  12
HETATM   12  C   UNL     1      -7.905   5.865  69.537  1.00  0.00    -0.098 C  
BRANCH  12  13
HETATM   13  N   UNL     1      -9.242   5.417  69.929  1.00  0.00    -0.134 NA 
HETATM   14  C   UNL     1     -11.271   6.586  69.962  1.00  0.00    -0.453 C  
HETATM   15  C   UNL     1     -11.100   5.932  71.331  1.00  0.00    -0.313 C  
HETATM   16  C   UNL     1     -10.360   5.767  69.050  1.00  0.00    -0.245 C  
HETATM   17  C   UNL     1      -9.662   5.474  71.240  1.00  0.00    -0.166 C  
HETATM   18  N   UNL     1      -8.955   5.189  72.279  1.00  0.00    -0.128 NA 
HETATM   19  H2  UNL     1      -7.993   4.893  72.115  1.00  0.00     0.000 HD 
HETATM   20  H1  UNL     1      -9.267   5.231  73.249  1.00  0.00     0.000 HD 
ENDBRANCH  12  13
ENDBRANCH   3  12
TORSDOF 2
ENDMDL
MODEL      261
REMARK 921   NORMALIZED FREE ENERGY PREDICTED BY IDOCK:   -2.14 KCAL/MOL
REMARK 922        TOTAL FREE ENERGY PREDICTED BY IDOCK:   -2.74 KCAL/MOL
REMARK 923 INTER-LIGAND FREE ENERGY PREDICTED BY IDOCK:   -2.80 KCAL/MOL
REMARK 924 INTRA-LIGAND FREE ENERGY PREDICTED BY IDOCK:    0.06 KCAL/MOL
REMARK 927      BINDING AFFINITY PREDICTED BY RF-SCORE:    0.00 PKD
ROOT
HETATM    1 CL   UNL     1      -7.986   4.291  70.978  1.00  0.00    -0.070 Cl 
HETATM    2  C   UNL     1      -9.139   5.491  71.416  1.00  0.00    -0.143 C  
HETATM    3  C   UNL     1      -8.999   6.808  71.171  1.00  0.00    -0.147 C  
HETATM    4  C   UNL     1     -10.367   5.023  72.127  1.00  0.00    -0.215 C  
HETATM    5  N   UNL     1      -9.969   7.683  71.623  1.00  0.00    -0.175 N  
HETATM    6  C   UNL     1     -11.068   7.335  72.348  1.00  0.00    -0.275 C  
HETATM    7  O   UNL     1     -10.631   3.836  72.293  1.00  0.00    -0.076 OA 
HETATM    8  H   UNL     1      -9.853   8.670  71.394  1.00  0.00     0.000 HD 
HETATM    9  O   UNL     1     -11.886   8.152  72.757  1.00  0.00    -0.389 OA 
HETATM   10  N   UNL     1     -11.201   6.001  72.599  1.00  0.00    -0.278 N  
HETATM   11  H   UNL     1     -11.984   5.709  73.184  1.00  0.00     0.000 HD 
ENDROOT
BRANCH   3  12
HETATM   12  C   UNL     1      -7.799   7.447  70.498  1.00  0.00    -0.097 C  
BRANCH  12  13
HETATM   13  N   UNL     1      -8.177   8.222  69.316  1.00  0.00    -0.116 NA 
HETATM   14  C   UNL     1      -9.895   9.788  69.028  1.00  0.00    -0.183 C  
HETATM   15  C   UNL     1     -10.008   8.774  67.892  1.00  0.00    -0.231 C  
HETATM   16  C   UNL     1      -8.448   9.650  69.498  1.00  0.00    -0.159 C  
HETATM   17  C   UNL     1      -9.043   7.715  68.370  1.00  0.00    -0.130 C  
HETATM   18  N   UNL     1      -9.063   6.504  67.930  1.00  0.00    -0.115 NA 
HETATM   19  H2  UNL     1      -8.374   5.860  68.318  1.00  0.00     0.000 HD 
HETATM   20  H1  UNL     1      -9.704   6.129  67.230  1.00  0.00     0.000 HD 
ENDBRANCH  12  13
ENDBRANCH   3  12
TORSDOF 2
ENDMDL
MODEL      262
REMARK 921   NORMALIZED FREE ENERGY PREDICTED BY IDOCK:   -2.12 KCAL/MOL
REMARK 922        TOTAL FREE ENERGY PREDICTED BY IDOCK:   -2.71 KCAL/MOL
REMARK 923 INTER-LIGAND FREE ENERGY PREDICTED BY IDOCK:   -3.23 KCAL/MOL
REMARK 924 INTRA-LIGAND FREE ENERGY PREDICTED BY IDOCK:    0.52 KCAL/MOL
REMARK 927      BINDING AFFINITY PREDICTED BY RF-SCORE:    0.00 PKD
ROOT
HETATM    1 CL   UNL     1      -6.490  11.378  66.605  1.00  0.00    -0.134 Cl 
HETATM    2  C   UNL     1      -7.839  10.828  67.522  1.00  0.00    -0.109 C  
HETATM    3  C   UNL     1      -9.122  11.119  67.237  1.00  0.00    -0.150 C  
HETATM    4  C   UNL     1      -7.545   9.983  68.718  1.00  0.00    -0.083 C  
HETATM    5  N   UNL     1     -10.118  10.666  68.083  1.00  0.00    -0.155 N  
HETATM    6  C   UNL     1      -9.916   9.964  69.233  1.00  0.00    -0.207 C  
HETATM    7  O   UNL     1      -6.419   9.576  68.989  1.00  0.00    -0.045 OA 
HETATM    8  H   UNL     1     -11.082  10.874  67.825  1.00  0.00     0.000 HD 
HETATM    9  O   UNL     1     -10.829   9.611  69.971  1.00  0.00    -0.232 OA 
HETATM   10  N   UNL     1      -8.613   9.678  69.519  1.00  0.00    -0.157 N  
HETATM   11  H   UNL     1      -8.419   9.200  70.399  1.00  0.00     0.000 HD 
ENDROOT
BRANCH   3  12
HETATM   12  C   UNL     1      -9.584  11.994  66.088  1.00  0.00    -0.239 C  
BRANCH  12  13
HETATM   13  N   UNL     1     -10.064  13.299  66.544  1.00  0.00    -0.268 NA 
HETATM   14  C   UNL     1      -9.699  15.433  65.653  1.00  0.00    -0.366 C  
HETATM   15  C   UNL     1      -9.359  15.497  67.140  1.00  0.00    -0.227 C  
HETATM   16  C   UNL     1     -10.609  14.212  65.538  1.00  0.00    -0.326 C  
HETATM   17  C   UNL     1      -9.373  14.027  67.490  1.00  0.00    -0.209 C  
HETATM   18  N   UNL     1      -8.797  13.555  68.541  1.00  0.00    -0.325 NA 
HETATM   19  H2  UNL     1      -8.858  12.548  68.688  1.00  0.00     0.000 HD 
HETATM   20  H1  UNL     1      -8.286  14.095  69.241  1.00  0.00     0.000 HD 
ENDBRANCH  12  13
ENDBRANCH   3  12
TORSDOF 2
ENDMDL
MODEL      263
REMARK 921   NORMALIZED FREE ENERGY PREDICTED BY IDOCK:   -2.05 KCAL/MOL
REMARK 922        TOTAL FREE ENERGY PREDICTED BY IDOCK:   -2.63 KCAL/MOL
REMARK 923 INTER-LIGAND FREE ENERGY PREDICTED BY IDOCK:   -2.37 KCAL/MOL
REMARK 924 INTRA-LIGAND FREE ENERGY PREDICTED BY IDOCK:   -0.27 KCAL/MOL
REMARK 927      BINDING AFFINITY PREDICTED BY RF-SCORE:    0.00 PKD
ROOT
HETATM    1 CL   UNL     1      -7.013   4.659  68.119  1.00  0.00    -0.056 Cl 
HETATM    2  C   UNL     1      -8.288   5.543  68.864  1.00  0.00    -0.102 C  
HETATM    3  C   UNL     1      -8.252   6.865  69.117  1.00  0.00    -0.121 C  
HETATM    4  C   UNL     1      -9.504   4.771  69.263  1.00  0.00    -0.153 C  
HETATM    5  N   UNL     1      -9.318   7.453  69.774  1.00  0.00    -0.148 N  
HETATM    6  C   UNL     1     -10.416   6.796  70.239  1.00  0.00    -0.207 C  
HETATM    7  O   UNL     1      -9.670   3.590  68.973  1.00  0.00    -0.129 OA 
HETATM    8  H   UNL     1      -9.278   8.461  69.923  1.00  0.00     0.000 HD 
HETATM    9  O   UNL     1     -11.323   7.355  70.847  1.00  0.00    -0.264 OA 
HETATM   10  N   UNL     1     -10.443   5.456  69.986  1.00  0.00    -0.301 N  
HETATM   11  H   UNL     1     -11.225   4.922  70.365  1.00  0.00     0.000 HD 
ENDROOT
BRANCH   3  12
HETATM   12  C   UNL     1      -7.082   7.780  68.812  1.00  0.00    -0.076 C  
BRANCH  12  13
HETATM   13  N   UNL     1      -7.492   9.179  68.690  1.00  0.00    -0.079 NA 
HETATM   14  C   UNL     1      -6.275  11.050  67.980  1.00  0.00    -0.053 C  
HETATM   15  C   UNL     1      -6.917  11.406  69.319  1.00  0.00    -0.115 C  
HETATM   16  C   UNL     1      -7.126   9.891  67.464  1.00  0.00    -0.088 C  
HETATM   17  C   UNL     1      -7.411  10.047  69.759  1.00  0.00    -0.141 C  
HETATM   18  N   UNL     1      -7.701   9.775  70.984  1.00  0.00    -0.333 NA 
HETATM   19  H2  UNL     1      -8.022   8.827  71.182  1.00  0.00     0.000 HD 
HETATM   20  H1  UNL     1      -7.641  10.417  71.774  1.00  0.00     0.000 HD 
ENDBRANCH  12  13
ENDBRANCH   3  12
TORSDOF 2
ENDMDL
MODEL      264
REMARK 921   NORMALIZED FREE ENERGY PREDICTED BY IDOCK:   -2.04 KCAL/MOL
REMARK 922        TOTAL FREE ENERGY PREDICTED BY IDOCK:   -2.63 KCAL/MOL
REMARK 923 INTER-LIGAND FREE ENERGY PREDICTED BY IDOCK:   -2.76 KCAL/MOL
REMARK 924 INTRA-LIGAND FREE ENERGY PREDICTED BY IDOCK:    0.14 KCAL/MOL
REMARK 927      BINDING AFFINITY PREDICTED BY RF-SCORE:    0.00 PKD
ROOT
HETATM    1 CL   UNL     1      -6.460  10.521  65.709  1.00  0.00    -0.123 Cl 
HETATM    2  C   UNL     1      -7.548   9.502  66.569  1.00  0.00    -0.094 C  
HETATM    3  C   UNL     1      -8.884   9.500  66.400  1.00  0.00    -0.144 C  
HETATM    4  C   UNL     1      -6.953   8.573  67.577  1.00  0.00    -0.079 C  
HETATM    5  N   UNL     1      -9.661   8.675  67.193  1.00  0.00    -0.161 N  
HETATM    6  C   UNL     1      -9.194   7.868  68.185  1.00  0.00    -0.136 C  
HETATM    7  O   UNL     1      -5.742   8.428  67.718  1.00  0.00    -0.038 OA 
HETATM    8  H   UNL     1     -10.666   8.671  67.021  1.00  0.00     0.000 HD 
HETATM    9  O   UNL     1      -9.924   7.177  68.887  1.00  0.00    -0.157 OA 
HETATM   10  N   UNL     1      -7.840   7.880  68.356  1.00  0.00    -0.118 N  
HETATM   11  H   UNL     1      -7.458   7.328  69.124  1.00  0.00     0.000 HD 
ENDROOT
BRANCH   3  12
HETATM   12  C   UNL     1      -9.645  10.406  65.451  1.00  0.00    -0.246 C  
BRANCH  12  13
HETATM   13  N   UNL     1     -10.658  11.204  66.142  1.00  0.00    -0.260 NA 
HETATM   14  C   UNL     1     -11.465  13.351  65.669  1.00  0.00    -0.335 C  
HETATM   15  C   UNL     1     -11.068  13.329  67.143  1.00  0.00    -0.308 C  
HETATM   16  C   UNL     1     -11.668  11.877  65.323  1.00  0.00    -0.169 C  
HETATM   17  C   UNL     1     -10.330  12.012  67.211  1.00  0.00    -0.212 C  
HETATM   18  N   UNL     1      -9.506  11.723  68.158  1.00  0.00    -0.188 NA 
HETATM   19  H2  UNL     1      -9.053  10.810  68.113  1.00  0.00     0.000 HD 
HETATM   20  H1  UNL     1      -9.263  12.321  68.948  1.00  0.00     0.000 HD 
ENDBRANCH  12  13
ENDBRANCH   3  12
TORSDOF 2
ENDMDL
MODEL      265
REMARK 921   NORMALIZED FREE ENERGY PREDICTED BY IDOCK:   -1.79 KCAL/MOL
REMARK 922        TOTAL FREE ENERGY PREDICTED BY IDOCK:   -2.34 KCAL/MOL
REMARK 923 INTER-LIGAND FREE ENERGY PREDICTED BY IDOCK:   -3.74 KCAL/MOL
REMARK 924 INTRA-LIGAND FREE ENERGY PREDICTED BY IDOCK:    1.40 KCAL/MOL
REMARK 927      BINDING AFFINITY PREDICTED BY RF-SCORE:    0.00 PKD
ROOT
HETATM    1 CL   UNL     1      -7.516   9.342  67.503  1.00  0.00    -0.090 Cl 
HETATM    2  C   UNL     1      -8.265   9.789  66.020  1.00  0.00    -0.117 C  
HETATM    3  C   UNL     1      -9.578   9.647  65.757  1.00  0.00    -0.263 C  
HETATM    4  C   UNL     1      -7.381  10.359  64.959  1.00  0.00    -0.070 C  
HETATM    5  N   UNL     1     -10.054   9.990  64.504  1.00  0.00    -0.399 N  
HETATM    6  C   UNL     1      -9.293  10.435  63.467  1.00  0.00    -0.297 C  
HETATM    7  O   UNL     1      -6.198  10.628  65.149  1.00  0.00    -0.109 OA 
HETATM    8  H   UNL     1     -11.057   9.903  64.345  1.00  0.00     0.000 HD 
HETATM    9  O   UNL     1      -9.754  10.696  62.361  1.00  0.00    -0.204 OA 
HETATM   10  N   UNL     1      -7.962  10.570  63.738  1.00  0.00    -0.333 N  
HETATM   11  H   UNL     1      -7.352  10.851  62.970  1.00  0.00     0.000 HD 
ENDROOT
BRANCH   3  12
HETATM   12  C   UNL     1     -10.598   9.051  66.707  1.00  0.00    -0.131 C  
BRANCH  12  13
HETATM   13  N   UNL     1     -10.268   9.314  68.108  1.00  0.00    -0.195 NA 
HETATM   14  C   UNL     1     -10.377   7.901  69.973  1.00  0.00    -0.221 C  
HETATM   15  C   UNL     1     -11.115   9.188  70.333  1.00  0.00    -0.293 C  
HETATM   16  C   UNL     1      -9.468   8.313  68.817  1.00  0.00    -0.148 C  
HETATM   17  C   UNL     1     -11.195   9.849  68.977  1.00  0.00    -0.087 C  
HETATM   18  N   UNL     1     -12.038  10.785  68.707  1.00  0.00    -0.785 NA 
HETATM   19  H2  UNL     1     -12.017  11.166  67.761  1.00  0.00     0.000 HD 
HETATM   20  H1  UNL     1     -12.724  11.182  69.350  1.00  0.00     0.000 HD 
ENDBRANCH  12  13
ENDBRANCH   3  12
TORSDOF 2
ENDMDL
MODEL      266
REMARK 921   NORMALIZED FREE ENERGY PREDICTED BY IDOCK:   -0.53 KCAL/MOL
REMARK 922        TOTAL FREE ENERGY PREDICTED BY IDOCK:   -0.94 KCAL/MOL
REMARK 923 INTER-LIGAND FREE ENERGY PREDICTED BY IDOCK:   -0.74 KCAL/MOL
REMARK 924 INTRA-LIGAND FREE ENERGY PREDICTED BY IDOCK:   -0.20 KCAL/MOL
REMARK 927      BINDING AFFINITY PREDICTED BY RF-SCORE:    0.00 PKD
ROOT
HETATM    1 CL   UNL     1     -10.202   8.891  68.168  1.00  0.00    -0.231 Cl 
HETATM    2  C   UNL     1      -9.894   8.159  69.694  1.00  0.00    -0.184 C  
HETATM    3  C   UNL     1     -10.757   7.350  70.339  1.00  0.00    -0.237 C  
HETATM    4  C   UNL     1      -8.581   8.463  70.340  1.00  0.00    -0.136 C  
HETATM    5  N   UNL     1     -10.419   6.867  71.590  1.00  0.00    -0.204 N  
HETATM    6  C   UNL     1      -9.279   7.171  72.270  1.00  0.00    -0.132 C  
HETATM    7  O   UNL     1      -7.693   9.097  69.778  1.00  0.00    -0.070 OA 
HETATM    8  H   UNL     1     -11.076   6.231  72.040  1.00  0.00     0.000 HD 
HETATM    9  O   UNL     1      -9.036   6.744  73.394  1.00  0.00    -0.126 OA 
HETATM   10  N   UNL     1      -8.412   7.996  71.615  1.00  0.00    -0.115 N  
HETATM   11  H   UNL     1      -7.573   8.288  72.115  1.00  0.00     0.000 HD 
ENDROOT
BRANCH   3  12
HETATM   12  C   UNL     1     -12.139   6.976  69.841  1.00  0.00     0.201 C  
BRANCH  12  13
HETATM   13  N   UNL     1     -13.185   7.805  70.441  1.00  0.00     0.812 NA 
HETATM   14  C   UNL     1     -13.044   9.414  72.137  1.00  0.00    -0.526 C  
HETATM   15  C   UNL     1     -14.163   8.449  72.518  1.00  0.00    -0.264 C  
HETATM   16  C   UNL     1     -12.900   9.229  70.627  1.00  0.00     0.211 C  
HETATM   17  C   UNL     1     -13.940   7.352  71.503  1.00  0.00    -0.396 C  
HETATM   18  N   UNL     1     -14.407   6.160  71.651  1.00  0.00     0.655 NA 
HETATM   19  H2  UNL     1     -14.198   5.488  70.912  1.00  0.00     0.000 HD 
HETATM   20  H1  UNL     1     -14.965   5.826  72.436  1.00  0.00     0.000 HD 
ENDBRANCH  12  13
ENDBRANCH   3  12
TORSDOF 2
ENDMDL
MODEL      267
REMARK 921   NORMALIZED FREE ENERGY PREDICTED BY IDOCK:    5.41 KCAL/MOL
REMARK 922        TOTAL FREE ENERGY PREDICTED BY IDOCK:    5.70 KCAL/MOL
REMARK 923 INTER-LIGAND FREE ENERGY PREDICTED BY IDOCK:   -0.08 KCAL/MOL
REMARK 924 INTRA-LIGAND FREE ENERGY PREDICTED BY IDOCK:    5.78 KCAL/MOL
REMARK 927      BINDING AFFINITY PREDICTED BY RF-SCORE:    0.00 PKD
ROOT
HETATM    1 CL   UNL     1      -8.351  17.377  65.603  1.00  0.00     0.249 Cl 
HETATM    2  C   UNL     1      -9.571  16.689  66.604  1.00  0.00    -0.263 C  
HETATM    3  C   UNL     1      -9.528  15.441  67.107  1.00  0.00    -0.213 C  
HETATM    4  C   UNL     1     -10.756  17.545  66.913  1.00  0.00    -0.127 C  
HETATM    5  N   UNL     1     -10.598  14.980  67.853  1.00  0.00    -0.254 N  
HETATM    6  C   UNL     1     -11.742  15.674  68.102  1.00  0.00    -0.199 C  
HETATM    7  O   UNL     1     -10.828  18.728  66.591  1.00  0.00    -0.325 OA 
HETATM    8  H   UNL     1     -10.524  14.043  68.248  1.00  0.00     0.000 HD 
HETATM    9  O   UNL     1     -12.680  15.211  68.741  1.00  0.00     0.279 OA 
HETATM   10  N   UNL     1     -11.782  16.936  67.583  1.00  0.00     0.587 N  
HETATM   11  H   UNL     1     -12.645  17.466  67.705  1.00  0.00     0.000 HD 
ENDROOT
BRANCH   3  12
HETATM   12  C   UNL     1      -8.420  14.436  66.855  1.00  0.00    -0.127 C  
BRANCH  12  13
HETATM   13  N   UNL     1      -7.093  15.049  66.923  1.00  0.00    -0.010 NA 
HETATM   14  C   UNL     1      -5.317  14.636  68.393  1.00  0.00    -0.108 C  
HETATM   15  C   UNL     1      -5.561  16.143  68.387  1.00  0.00    -0.102 C  
HETATM   16  C   UNL     1      -5.941  14.160  67.083  1.00  0.00     0.859 C  
HETATM   17  C   UNL     1      -6.873  16.207  67.638  1.00  0.00    -0.152 C  
HETATM   18  N   UNL     1      -7.657  17.228  67.694  1.00  0.00    -0.176 NA 
HETATM   19  H2  UNL     1      -8.523  17.174  67.157  1.00  0.00     0.000 HD 
HETATM   20  H1  UNL     1      -7.494  18.085  68.223  1.00  0.00     0.000 HD 
ENDBRANCH  12  13
ENDBRANCH   3  12
TORSDOF 2
ENDMDL
MODEL      268
REMARK 921   NORMALIZED FREE ENERGY PREDICTED BY IDOCK:    9.58 KCAL/MOL
REMARK 922        TOTAL FREE ENERGY PREDICTED BY IDOCK:   10.36 KCAL/MOL
REMARK 923 INTER-LIGAND FREE ENERGY PREDICTED BY IDOCK:    9.55 KCAL/MOL
REMARK 924 INTRA-LIGAND FREE ENERGY PREDICTED BY IDOCK:    0.80 KCAL/MOL
REMARK 927      BINDING AFFINITY PREDICTED BY RF-SCORE:    0.00 PKD
ROOT
HETATM    1 CL   UNL     1     -10.710  10.716  69.283  1.00  0.00    -0.249 Cl 
HETATM    2  C   UNL     1     -10.137   9.609  70.470  1.00  0.00    -0.274 C  
HETATM    3  C   UNL     1     -10.923   8.766  71.166  1.00  0.00    -0.268 C  
HETATM    4  C   UNL     1      -8.668   9.608  70.742  1.00  0.00     0.116 C  
HETATM    5  N   UNL     1     -10.352   7.963  72.137  1.00  0.00    -0.220 N  
HETATM    6  C   UNL     1      -9.038   7.971  72.494  1.00  0.00    -0.209 C  
HETATM    7  O   UNL     1      -7.866  10.260  70.080  1.00  0.00    -0.137 OA 
HETATM    8  H   UNL     1     -10.966   7.311  72.625  1.00  0.00     0.000 HD 
HETATM    9  O   UNL     1      -8.582   7.263  73.385  1.00  0.00    -0.126 OA 
HETATM   10  N   UNL     1      -8.249   8.833  71.790  1.00  0.00    -0.122 N  
HETATM   11  H   UNL     1      -7.270   8.904  72.065  1.00  0.00     0.000 HD 
ENDROOT
BRANCH   3  12
HETATM   12  C   UNL     1     -12.431   8.672  71.038  1.00  0.00    -0.098 C  
BRANCH  12  13
HETATM   13  N   UNL     1     -13.118   9.670  71.858  1.00  0.00    -0.404 NA 
HETATM   14  C   UNL     1     -13.887  11.810  71.297  1.00  0.00     1.347 C  
HETATM   15  C   UNL     1     -13.047  11.947  72.565  1.00  0.00     0.569 C  
HETATM   16  C   UNL     1     -14.287  10.336  71.281  1.00  0.00     1.385 C  
HETATM   17  C   UNL     1     -12.416  10.575  72.626  1.00  0.00     1.728 C  
HETATM   18  N   UNL     1     -11.356  10.327  73.315  1.00  0.00     6.515 NA 
HETATM   19  H2  UNL     1     -11.003   9.370  73.290  1.00  0.00     0.000 HD 
HETATM   20  H1  UNL     1     -10.837  10.996  73.884  1.00  0.00     0.000 HD 
ENDBRANCH  12  13
ENDBRANCH   3  12
TORSDOF 2
ENDMDL
MODEL      269
REMARK 921   NORMALIZED FREE ENERGY PREDICTED BY IDOCK:   13.87 KCAL/MOL
REMARK 922        TOTAL FREE ENERGY PREDICTED BY IDOCK:   15.15 KCAL/MOL
REMARK 923 INTER-LIGAND FREE ENERGY PREDICTED BY IDOCK:    4.64 KCAL/MOL
REMARK 924 INTRA-LIGAND FREE ENERGY PREDICTED BY IDOCK:   10.52 KCAL/MOL
REMARK 927      BINDING AFFINITY PREDICTED BY RF-SCORE:    0.00 PKD
ROOT
HETATM    1 CL   UNL     1     -11.714  13.639  70.222  1.00  0.00    -0.308 Cl 
HETATM    2  C   UNL     1     -11.519  14.922  71.353  1.00  0.00    -0.261 C  
HETATM    3  C   UNL     1     -10.575  15.879  71.262  1.00  0.00     0.635 C  
HETATM    4  C   UNL     1     -12.459  14.952  72.513  1.00  0.00    -0.346 C  
HETATM    5  N   UNL     1     -10.481  16.827  72.265  1.00  0.00     3.540 N  
HETATM    6  C   UNL     1     -11.248  16.863  73.389  1.00  0.00     1.732 C  
HETATM    7  O   UNL     1     -13.415  14.189  72.617  1.00  0.00    -0.489 OA 
HETATM    8  H   UNL     1      -9.779  17.558  72.154  1.00  0.00     0.000 HD 
HETATM    9  O   UNL     1     -11.107  17.705  74.270  1.00  0.00     0.908 OA 
HETATM   10  N   UNL     1     -12.197  15.887  73.478  1.00  0.00    -0.490 N  
HETATM   11  H   UNL     1     -12.756  15.851  74.331  1.00  0.00     0.000 HD 
ENDROOT
BRANCH   3  12
HETATM   12  C   UNL     1      -9.524  15.967  70.173  1.00  0.00     0.631 C  
BRANCH  12  13
HETATM   13  N   UNL     1      -9.979  15.371  68.917  1.00  0.00    -0.209 NA 
HETATM   14  C   UNL     1     -11.957  15.721  67.713  1.00  0.00     0.341 C  
HETATM   15  C   UNL     1     -11.795  14.213  67.893  1.00  0.00    -0.405 C  
HETATM   16  C   UNL     1     -10.543  16.266  67.905  1.00  0.00    -0.318 C  
HETATM   17  C   UNL     1     -10.666  14.175  68.896  1.00  0.00    -0.256 C  
HETATM   18  N   UNL     1     -10.415  13.142  69.623  1.00  0.00    -0.068 NA 
HETATM   19  H2  UNL     1      -9.634  13.215  70.276  1.00  0.00     0.000 HD 
HETATM   20  H1  UNL     1     -10.923  12.257  69.608  1.00  0.00     0.000 HD 
ENDBRANCH  12  13
ENDBRANCH   3  12
TORSDOF 2
ENDMDL
