MODEL        1
REMARK 921   NORMALIZED FREE ENERGY PREDICTED BY IDOCK:   -8.72 KCAL/MOL
REMARK 922        TOTAL FREE ENERGY PREDICTED BY IDOCK:  -14.79 KCAL/MOL
REMARK 923 INTER-LIGAND FREE ENERGY PREDICTED BY IDOCK:  -12.79 KCAL/MOL
REMARK 924 INTRA-LIGAND FREE ENERGY PREDICTED BY IDOCK:   -1.99 KCAL/MOL
REMARK 927      BINDING AFFINITY PREDICTED BY RF-SCORE:    0.00 PKD
ROOT
HETATM    1  C   UNL     1      -9.065   8.502  66.676  1.00  0.00    -0.203 C  
HETATM    2  C   UNL     1      -9.765   9.778  66.136  1.00  0.00    -0.309 A  
HETATM    3  C   UNL     1      -7.535   8.623  66.825  1.00  0.00    -0.086 C  
HETATM    4  C   UNL     1      -9.733   7.866  67.937  1.00  0.00    -0.184 C  
HETATM    5  C   UNL     1      -6.771   8.895  65.539  1.00  0.00    -0.072 C  
HETATM    6  C   UNL     1     -10.322  10.761  66.975  1.00  0.00    -0.275 A  
HETATM    7  C   UNL     1     -10.661   6.885  67.886  1.00  0.00    -0.231 C  
HETATM    8  O   UNL     1     -11.111   6.367  66.682  1.00  0.00    -0.656 OA 
HETATM    9  C   UNL     1     -11.487   6.417  69.099  1.00  0.00    -0.265 C  
HETATM   10  C   UNL     1     -11.079  11.838  66.460  1.00  0.00    -0.310 A  
HETATM   11  C   UNL     1     -11.219  11.999  65.090  1.00  0.00    -0.368 A  
HETATM   12  C   UNL     1     -11.083   6.977  70.463  1.00  0.00    -0.280 C  
HETATM   13  C   UNL     1      -9.338   8.357  69.287  1.00  0.00    -0.154 C  
HETATM   14  H   UNL     1     -11.763   5.677  66.646  1.00  0.00     0.000 HD 
HETATM   15  O   UNL     1     -10.041   7.975  70.374  1.00  0.00    -0.192 OA 
HETATM   16  C   UNL     1      -9.900   9.989  64.746  1.00  0.00    -0.325 A  
HETATM   17  O   UNL     1      -8.398   9.127  69.438  1.00  0.00    -0.115 OA 
HETATM   18  C   UNL     1     -10.600  11.094  64.230  1.00  0.00    -0.425 A  
ENDROOT
BRANCH  10  19
HETATM   19  N   UNL     1     -11.795  12.701  67.351  1.00  0.00    -0.364 N  
HETATM   20  H   UNL     1     -12.691  12.410  67.744  1.00  0.00     0.000 HD 
BRANCH  19  21
HETATM   21  S   UNL     1     -11.123  14.234  67.750  1.00  0.00    -0.291 S  
HETATM   22  O   UNL     1      -9.682  14.057  67.800  1.00  0.00    -0.218 OA 
HETATM   23  O   UNL     1     -11.711  15.214  66.858  1.00  0.00    -0.244 OA 
BRANCH  21  24
HETATM   24  C   UNL     1     -11.691  14.630  69.396  1.00  0.00    -0.316 A  
HETATM   25  C   UNL     1     -12.773  14.260  71.527  1.00  0.00    -0.425 A  
HETATM   26  N   UNL     1     -11.089  15.705  69.872  1.00  0.00    -0.288 NA 
HETATM   27  F   UNL     1     -13.887  15.906  73.628  1.00  0.00    -0.424 F  
HETATM   28  C   UNL     1     -12.533  15.759  73.493  1.00  0.00    -0.552 C  
HETATM   29  F   UNL     1     -12.185  14.774  74.374  1.00  0.00    -0.663 F  
HETATM   30  C   UNL     1     -11.333  15.999  71.165  1.00  0.00    -0.361 A  
HETATM   31  F   UNL     1     -12.059  16.896  74.055  1.00  0.00    -0.530 F  
HETATM   32  C   UNL     1     -12.180  15.371  72.075  1.00  0.00    -0.460 A  
HETATM   33  C   UNL     1     -12.529  13.859  70.196  1.00  0.00    -0.355 A  
ENDBRANCH  21  24
ENDBRANCH  19  21
ENDBRANCH  10  19
BRANCH  12  34
HETATM   34  C   UNL     1     -10.516   5.744  71.183  1.00  0.00    -0.301 C  
BRANCH  34  35
HETATM   35  C   UNL     1     -10.685   5.876  72.713  1.00  0.00    -0.274 C  
BRANCH  35  36
HETATM   36  C   UNL     1      -9.405   6.262  73.356  1.00  0.00    -0.137 A  
HETATM   37  C   UNL     1      -8.037   7.814  74.564  1.00  0.00    -0.269 A  
HETATM   38  C   UNL     1      -9.281   7.474  74.027  1.00  0.00    -0.279 A  
HETATM   39  C   UNL     1      -7.105   5.730  73.780  1.00  0.00    -0.086 A  
HETATM   40  C   UNL     1      -6.961   6.948  74.447  1.00  0.00    -0.090 A  
HETATM   41  C   UNL     1      -8.333   5.385  73.237  1.00  0.00    -0.117 A  
ENDBRANCH  35  36
ENDBRANCH  34  35
ENDBRANCH  12  34
BRANCH  12  42
HETATM   42  C   UNL     1     -12.252   7.640  71.350  1.00  0.00    -0.351 C  
BRANCH  42  43
HETATM   43  C   UNL     1     -12.035   9.108  71.781  1.00  0.00    -0.449 C  
HETATM   44  C   UNL     1     -12.754  10.277  71.109  1.00  0.00    -0.502 C  
ENDBRANCH  42  43
ENDBRANCH  12  42
TORSDOF 8
ENDMDL
MODEL        2
REMARK 921   NORMALIZED FREE ENERGY PREDICTED BY IDOCK:   -8.68 KCAL/MOL
REMARK 922        TOTAL FREE ENERGY PREDICTED BY IDOCK:  -14.73 KCAL/MOL
REMARK 923 INTER-LIGAND FREE ENERGY PREDICTED BY IDOCK:  -13.30 KCAL/MOL
REMARK 924 INTRA-LIGAND FREE ENERGY PREDICTED BY IDOCK:   -1.43 KCAL/MOL
REMARK 927      BINDING AFFINITY PREDICTED BY RF-SCORE:    0.00 PKD
ROOT
HETATM    1  C   UNL     1      -9.032   9.564  65.876  1.00  0.00    -0.210 C  
HETATM    2  C   UNL     1      -9.931  10.733  65.392  1.00  0.00    -0.330 A  
HETATM    3  C   UNL     1      -7.523   9.775  65.639  1.00  0.00    -0.110 C  
HETATM    4  C   UNL     1      -9.338   9.051  67.320  1.00  0.00    -0.172 C  
HETATM    5  C   UNL     1      -7.102   9.929  64.187  1.00  0.00    -0.128 C  
HETATM    6  C   UNL     1     -10.348  11.781  66.234  1.00  0.00    -0.259 A  
HETATM    7  C   UNL     1     -10.177   8.028  67.594  1.00  0.00    -0.228 C  
HETATM    8  O   UNL     1     -10.856   7.351  66.594  1.00  0.00    -0.472 OA 
HETATM    9  C   UNL     1     -10.659   7.668  69.012  1.00  0.00    -0.186 C  
HETATM   10  C   UNL     1     -11.281  12.753  65.808  1.00  0.00    -0.307 A  
HETATM   11  C   UNL     1     -11.749  12.744  64.502  1.00  0.00    -0.420 A  
HETATM   12  C   UNL     1      -9.991   8.403  70.173  1.00  0.00    -0.187 C  
HETATM   13  C   UNL     1      -8.676   9.716  68.477  1.00  0.00    -0.120 C  
HETATM   14  H   UNL     1     -11.446   6.631  66.787  1.00  0.00     0.000 HD 
HETATM   15  O   UNL     1      -9.075   9.431  69.735  1.00  0.00    -0.163 OA 
HETATM   16  C   UNL     1     -10.402  10.772  64.061  1.00  0.00    -0.357 A  
HETATM   17  O   UNL     1      -7.787  10.542  68.317  1.00  0.00    -0.104 OA 
HETATM   18  C   UNL     1     -11.283  11.775  63.617  1.00  0.00    -0.519 A  
ENDROOT
BRANCH  10  19
HETATM   19  N   UNL     1     -11.831  13.680  66.751  1.00  0.00    -0.389 N  
HETATM   20  H   UNL     1     -12.839  13.720  66.910  1.00  0.00     0.000 HD 
BRANCH  19  21
HETATM   21  S   UNL     1     -10.770  14.726  67.612  1.00  0.00    -0.276 S  
HETATM   22  O   UNL     1      -9.535  13.988  67.816  1.00  0.00    -0.198 OA 
HETATM   23  O   UNL     1     -10.758  16.001  66.922  1.00  0.00    -0.314 OA 
BRANCH  21  24
HETATM   24  C   UNL     1     -11.515  15.011  69.209  1.00  0.00    -0.307 A  
HETATM   25  C   UNL     1     -12.892  14.538  71.139  1.00  0.00    -0.408 A  
HETATM   26  N   UNL     1     -10.900  15.977  69.866  1.00  0.00    -0.325 NA 
HETATM   27  F   UNL     1     -14.141  16.069  73.252  1.00  0.00    -0.617 F  
HETATM   28  C   UNL     1     -12.797  15.814  73.269  1.00  0.00    -0.542 C  
HETATM   29  F   UNL     1     -12.644  14.721  74.075  1.00  0.00    -0.608 F  
HETATM   30  C   UNL     1     -11.288  16.166  71.144  1.00  0.00    -0.316 A  
HETATM   31  F   UNL     1     -12.314  16.844  74.002  1.00  0.00    -0.500 F  
HETATM   32  C   UNL     1     -12.292  15.533  71.871  1.00  0.00    -0.472 A  
HETATM   33  C   UNL     1     -12.508  14.246  69.814  1.00  0.00    -0.264 A  
ENDBRANCH  21  24
ENDBRANCH  19  21
ENDBRANCH  10  19
BRANCH  12  34
HETATM   34  C   UNL     1      -9.182   7.292  70.860  1.00  0.00    -0.155 C  
BRANCH  34  35
HETATM   35  C   UNL     1      -9.555   5.907  70.285  1.00  0.00    -0.199 C  
BRANCH  35  36
HETATM   36  C   UNL     1      -9.971   4.980  71.366  1.00  0.00    -0.259 A  
HETATM   37  C   UNL     1     -10.016   2.809  72.380  1.00  0.00    -0.235 A  
HETATM   38  C   UNL     1      -9.548   3.655  71.372  1.00  0.00    -0.237 A  
HETATM   39  C   UNL     1     -11.273   4.629  73.350  1.00  0.00    -0.423 A  
HETATM   40  C   UNL     1     -10.866   3.293  73.363  1.00  0.00    -0.307 A  
HETATM   41  C   UNL     1     -10.820   5.475  72.349  1.00  0.00    -0.301 A  
ENDBRANCH  35  36
ENDBRANCH  34  35
ENDBRANCH  12  34
BRANCH  12  42
HETATM   42  C   UNL     1     -10.966   9.110  71.243  1.00  0.00    -0.400 C  
BRANCH  42  43
HETATM   43  C   UNL     1     -11.913  10.199  70.690  1.00  0.00    -0.423 C  
HETATM   44  C   UNL     1     -12.938  10.918  71.566  1.00  0.00    -0.556 C  
ENDBRANCH  42  43
ENDBRANCH  12  42
TORSDOF 8
ENDMDL
MODEL        3
REMARK 921   NORMALIZED FREE ENERGY PREDICTED BY IDOCK:   -8.64 KCAL/MOL
REMARK 922        TOTAL FREE ENERGY PREDICTED BY IDOCK:  -14.68 KCAL/MOL
REMARK 923 INTER-LIGAND FREE ENERGY PREDICTED BY IDOCK:  -12.26 KCAL/MOL
REMARK 924 INTRA-LIGAND FREE ENERGY PREDICTED BY IDOCK:   -2.42 KCAL/MOL
REMARK 927      BINDING AFFINITY PREDICTED BY RF-SCORE:    0.00 PKD
ROOT
HETATM    1  C   UNL     1      -8.780  10.315  65.098  1.00  0.00    -0.189 C  
HETATM    2  C   UNL     1      -8.933   9.052  65.986  1.00  0.00    -0.227 A  
HETATM    3  C   UNL     1      -9.145  10.105  63.614  1.00  0.00    -0.289 C  
HETATM    4  C   UNL     1      -9.419  11.615  65.685  1.00  0.00    -0.228 C  
HETATM    5  C   UNL     1      -8.302   9.081  62.871  1.00  0.00    -0.202 C  
HETATM    6  C   UNL     1     -10.098   8.766  66.722  1.00  0.00    -0.359 A  
HETATM    7  C   UNL     1      -8.745  12.515  66.434  1.00  0.00     0.053 C  
HETATM    8  O   UNL     1      -7.408  12.342  66.758  1.00  0.00    -0.370 OA 
HETATM    9  C   UNL     1      -9.414  13.669  67.203  1.00  0.00    -0.244 C  
HETATM   10  C   UNL     1     -10.157   7.688  67.633  1.00  0.00    -0.192 A  
HETATM   11  C   UNL     1      -9.081   6.823  67.761  1.00  0.00    -0.117 A  
HETATM   12  C   UNL     1     -10.901  13.901  66.936  1.00  0.00    -0.286 C  
HETATM   13  C   UNL     1     -10.856  11.898  65.414  1.00  0.00    -0.294 C  
HETATM   14  H   UNL     1      -6.934  12.975  67.284  1.00  0.00     0.000 HD 
HETATM   15  O   UNL     1     -11.481  12.897  66.073  1.00  0.00    -0.310 OA 
HETATM   16  C   UNL     1      -7.867   8.133  66.116  1.00  0.00    -0.092 A  
HETATM   17  O   UNL     1     -11.502  11.226  64.621  1.00  0.00    -0.104 OA 
HETATM   18  C   UNL     1      -7.948   7.024  66.976  1.00  0.00    -0.116 A  
ENDROOT
BRANCH  10  19
HETATM   19  N   UNL     1     -11.284   7.551  68.508  1.00  0.00    -0.327 N  
HETATM   20  H   UNL     1     -12.213   7.364  68.129  1.00  0.00     0.000 HD 
BRANCH  19  21
HETATM   21  S   UNL     1     -11.048   7.705  70.206  1.00  0.00    -0.210 S  
HETATM   22  O   UNL     1     -11.943   6.751  70.838  1.00  0.00    -0.363 OA 
HETATM   23  O   UNL     1      -9.620   7.649  70.455  1.00  0.00    -0.168 OA 
BRANCH  21  24
HETATM   24  C   UNL     1     -11.584   9.349  70.650  1.00  0.00    -0.269 A  
HETATM   25  C   UNL     1     -11.859  11.740  70.418  1.00  0.00    -0.362 A  
HETATM   26  N   UNL     1     -12.510   9.319  71.592  1.00  0.00    -0.345 NA 
HETATM   27  F   UNL     1     -12.410  13.970  72.177  1.00  0.00    -0.344 F  
HETATM   28  C   UNL     1     -13.405  13.108  71.800  1.00  0.00    -0.389 C  
HETATM   29  F   UNL     1     -14.029  13.714  70.746  1.00  0.00     0.076 F  
HETATM   30  C   UNL     1     -13.093  10.499  71.889  1.00  0.00    -0.462 A  
HETATM   31  F   UNL     1     -14.286  13.217  72.821  1.00  0.00    -0.559 F  
HETATM   32  C   UNL     1     -12.824  11.772  71.394  1.00  0.00    -0.440 A  
HETATM   33  C   UNL     1     -11.238  10.538  70.016  1.00  0.00    -0.386 A  
ENDBRANCH  21  24
ENDBRANCH  19  21
ENDBRANCH  10  19
BRANCH  12  34
HETATM   34  C   UNL     1     -10.908  15.245  66.191  1.00  0.00    -0.320 C  
BRANCH  34  35
HETATM   35  C   UNL     1      -9.549  15.964  66.343  1.00  0.00    -0.313 C  
BRANCH  35  36
HETATM   36  C   UNL     1      -9.740  17.389  66.707  1.00  0.00    -0.293 A  
HETATM   37  C   UNL     1     -10.548  19.595  66.234  1.00  0.00    -0.585 A  
HETATM   38  C   UNL     1     -10.448  18.249  65.874  1.00  0.00    -0.324 A  
HETATM   39  C   UNL     1      -9.277  19.172  68.243  1.00  0.00    -0.385 A  
HETATM   40  C   UNL     1      -9.973  20.050  67.411  1.00  0.00    -0.571 A  
HETATM   41  C   UNL     1      -9.164  17.836  67.890  1.00  0.00    -0.265 A  
ENDBRANCH  35  36
ENDBRANCH  34  35
ENDBRANCH  12  34
BRANCH  12  42
HETATM   42  C   UNL     1     -11.866  13.985  68.223  1.00  0.00    -0.406 C  
BRANCH  42  43
HETATM   43  C   UNL     1     -11.801  15.294  69.043  1.00  0.00    -0.342 C  
HETATM   44  C   UNL     1     -10.766  15.524  70.143  1.00  0.00    -0.345 C  
ENDBRANCH  42  43
ENDBRANCH  12  42
TORSDOF 8
ENDMDL
MODEL        4
REMARK 921   NORMALIZED FREE ENERGY PREDICTED BY IDOCK:   -8.62 KCAL/MOL
REMARK 922        TOTAL FREE ENERGY PREDICTED BY IDOCK:  -14.64 KCAL/MOL
REMARK 923 INTER-LIGAND FREE ENERGY PREDICTED BY IDOCK:  -12.71 KCAL/MOL
REMARK 924 INTRA-LIGAND FREE ENERGY PREDICTED BY IDOCK:   -1.93 KCAL/MOL
REMARK 927      BINDING AFFINITY PREDICTED BY RF-SCORE:    0.00 PKD
ROOT
HETATM    1  C   UNL     1      -9.153   8.466  66.569  1.00  0.00    -0.217 C  
HETATM    2  C   UNL     1      -9.845   9.770  66.088  1.00  0.00    -0.329 A  
HETATM    3  C   UNL     1      -7.616   8.555  66.672  1.00  0.00    -0.082 C  
HETATM    4  C   UNL     1      -9.792   7.808  67.834  1.00  0.00    -0.194 C  
HETATM    5  C   UNL     1      -6.888   8.849  65.370  1.00  0.00    -0.072 C  
HETATM    6  C   UNL     1     -10.356  10.739  66.971  1.00  0.00    -0.275 A  
HETATM    7  C   UNL     1     -10.740   6.846  67.785  1.00  0.00    -0.254 C  
HETATM    8  O   UNL     1     -11.238   6.370  66.583  1.00  0.00    -0.707 OA 
HETATM    9  C   UNL     1     -11.535   6.359  69.011  1.00  0.00    -0.203 C  
HETATM   10  C   UNL     1     -11.107  11.844  66.511  1.00  0.00    -0.306 A  
HETATM   11  C   UNL     1     -11.287  12.046  65.151  1.00  0.00    -0.359 A  
HETATM   12  C   UNL     1     -11.078   6.874  70.376  1.00  0.00    -0.296 C  
HETATM   13  C   UNL     1      -9.344   8.254  69.183  1.00  0.00    -0.151 C  
HETATM   14  H   UNL     1     -11.904   5.694  66.549  1.00  0.00     0.000 HD 
HETATM   15  O   UNL     1     -10.020   7.854  70.281  1.00  0.00    -0.188 OA 
HETATM   16  C   UNL     1     -10.019  10.022  64.709  1.00  0.00    -0.248 A  
HETATM   17  O   UNL     1      -8.386   9.001  69.324  1.00  0.00    -0.117 OA 
HETATM   18  C   UNL     1     -10.714  11.154  64.247  1.00  0.00    -0.403 A  
ENDROOT
BRANCH  10  19
HETATM   19  N   UNL     1     -11.777  12.695  67.448  1.00  0.00    -0.364 N  
HETATM   20  H   UNL     1     -12.644  12.391  67.894  1.00  0.00     0.000 HD 
BRANCH  19  21
HETATM   21  S   UNL     1     -11.101  14.235  67.812  1.00  0.00    -0.291 S  
HETATM   22  O   UNL     1      -9.664  14.046  67.905  1.00  0.00    -0.217 OA 
HETATM   23  O   UNL     1     -11.657  15.189  66.872  1.00  0.00    -0.285 OA 
BRANCH  21  24
HETATM   24  C   UNL     1     -11.707  14.691  69.428  1.00  0.00    -0.316 A  
HETATM   25  C   UNL     1     -12.884  14.420  71.523  1.00  0.00    -0.411 A  
HETATM   26  N   UNL     1     -11.067  15.743  69.907  1.00  0.00    -0.300 NA 
HETATM   27  F   UNL     1     -13.985  16.163  73.552  1.00  0.00    -0.553 F  
HETATM   28  C   UNL     1     -12.637  15.943  73.470  1.00  0.00    -0.578 C  
HETATM   29  F   UNL     1     -12.374  14.958  74.381  1.00  0.00    -0.661 F  
HETATM   30  C   UNL     1     -11.342  16.074  71.185  1.00  0.00    -0.361 A  
HETATM   31  F   UNL     1     -12.125  17.063  74.029  1.00  0.00    -0.506 F  
HETATM   32  C   UNL     1     -12.254  15.509  72.073  1.00  0.00    -0.484 A  
HETATM   33  C   UNL     1     -12.613  13.981  70.210  1.00  0.00    -0.354 A  
ENDBRANCH  21  24
ENDBRANCH  19  21
ENDBRANCH  10  19
BRANCH  12  34
HETATM   34  C   UNL     1     -10.512   5.610  71.043  1.00  0.00    -0.316 C  
BRANCH  34  35
HETATM   35  C   UNL     1      -8.984   5.515  70.832  1.00  0.00    -0.153 C  
BRANCH  35  36
HETATM   36  C   UNL     1      -8.665   4.703  69.633  1.00  0.00    -0.111 A  
HETATM   37  C   UNL     1      -7.414   4.306  67.628  1.00  0.00    -0.069 A  
HETATM   38  C   UNL     1      -7.635   5.072  68.774  1.00  0.00    -0.077 A  
HETATM   39  C   UNL     1      -9.216   2.823  68.248  1.00  0.00    -0.250 A  
HETATM   40  C   UNL     1      -8.194   3.188  67.371  1.00  0.00    -0.084 A  
HETATM   41  C   UNL     1      -9.449   3.582  69.385  1.00  0.00    -0.234 A  
ENDBRANCH  35  36
ENDBRANCH  34  35
ENDBRANCH  12  34
BRANCH  12  42
HETATM   42  C   UNL     1     -12.205   7.532  71.319  1.00  0.00    -0.357 C  
BRANCH  42  43
HETATM   43  C   UNL     1     -12.070   9.048  71.590  1.00  0.00    -0.422 C  
HETATM   44  C   UNL     1     -13.259   9.922  71.986  1.00  0.00    -0.555 C  
ENDBRANCH  42  43
ENDBRANCH  12  42
TORSDOF 8
ENDMDL
MODEL        5
REMARK 921   NORMALIZED FREE ENERGY PREDICTED BY IDOCK:   -8.46 KCAL/MOL
REMARK 922        TOTAL FREE ENERGY PREDICTED BY IDOCK:  -14.41 KCAL/MOL
REMARK 923 INTER-LIGAND FREE ENERGY PREDICTED BY IDOCK:  -11.37 KCAL/MOL
REMARK 924 INTRA-LIGAND FREE ENERGY PREDICTED BY IDOCK:   -3.04 KCAL/MOL
REMARK 927      BINDING AFFINITY PREDICTED BY RF-SCORE:    0.00 PKD
ROOT
HETATM    1  C   UNL     1     -11.039  12.871  64.572  1.00  0.00    -0.373 C  
HETATM    2  C   UNL     1      -9.968  11.791  64.260  1.00  0.00    -0.287 A  
HETATM    3  C   UNL     1     -12.494  12.358  64.546  1.00  0.00    -0.519 C  
HETATM    4  C   UNL     1     -10.744  13.747  65.832  1.00  0.00    -0.285 C  
HETATM    5  C   UNL     1     -12.969  11.805  63.213  1.00  0.00    -0.083 C  
HETATM    6  C   UNL     1      -9.308  11.052  65.259  1.00  0.00    -0.245 A  
HETATM    7  C   UNL     1     -10.098  14.933  65.791  1.00  0.00    -0.341 C  
HETATM    8  O   UNL     1      -9.624  15.466  64.603  1.00  0.00    -0.121 OA 
HETATM    9  C   UNL     1      -9.603  15.687  67.039  1.00  0.00    -0.233 C  
HETATM   10  C   UNL     1      -8.238  10.181  64.956  1.00  0.00    -0.152 A  
HETATM   11  C   UNL     1      -7.864   9.968  63.638  1.00  0.00    -0.151 A  
HETATM   12  C   UNL     1     -10.045  15.136  68.395  1.00  0.00    -0.225 C  
HETATM   13  C   UNL     1     -11.194  13.264  67.168  1.00  0.00    -0.299 C  
HETATM   14  H   UNL     1      -9.169  16.301  64.574  1.00  0.00     0.000 HD 
HETATM   15  O   UNL     1     -10.776  13.895  68.286  1.00  0.00    -0.239 OA 
HETATM   16  C   UNL     1      -9.584  11.527  62.926  1.00  0.00    -0.314 A  
HETATM   17  O   UNL     1     -11.919  12.286  67.283  1.00  0.00    -0.546 OA 
HETATM   18  C   UNL     1      -8.560  10.613  62.619  1.00  0.00    -0.252 A  
ENDROOT
BRANCH  10  19
HETATM   19  N   UNL     1      -7.463   9.603  66.014  1.00  0.00    -0.097 N  
HETATM   20  H   UNL     1      -6.571  10.017  66.287  1.00  0.00     0.000 HD 
BRANCH  19  21
HETATM   21  S   UNL     1      -8.059   8.202  66.817  1.00  0.00    -0.104 S  
HETATM   22  O   UNL     1      -8.875   7.486  65.852  1.00  0.00    -0.166 OA 
HETATM   23  O   UNL     1      -6.930   7.550  67.452  1.00  0.00    -0.078 OA 
BRANCH  21  24
HETATM   24  C   UNL     1      -9.125   8.778  68.128  1.00  0.00    -0.140 A  
HETATM   25  C   UNL     1      -9.719   9.916  70.177  1.00  0.00    -0.255 A  
HETATM   26  N   UNL     1     -10.400   8.686  67.793  1.00  0.00    -0.235 NA 
HETATM   27  F   UNL     1     -11.866   9.772  72.111  1.00  0.00    -0.406 F  
HETATM   28  C   UNL     1     -12.053  10.371  70.895  1.00  0.00    -0.374 C  
HETATM   29  F   UNL     1     -11.869  11.707  71.117  1.00  0.00    -0.320 F  
HETATM   30  C   UNL     1     -11.281   9.238  68.651  1.00  0.00     0.235 A  
HETATM   31  F   UNL     1     -13.387  10.242  70.709  1.00  0.00    -0.434 F  
HETATM   32  C   UNL     1     -11.059   9.845  69.885  1.00  0.00    -0.318 A  
HETATM   33  C   UNL     1      -8.733   9.406  69.306  1.00  0.00    -0.145 A  
ENDBRANCH  21  24
ENDBRANCH  19  21
ENDBRANCH  10  19
BRANCH  12  34
HETATM   34  C   UNL     1     -11.004  16.222  68.907  1.00  0.00    -0.334 C  
BRANCH  34  35
HETATM   35  C   UNL     1     -12.375  15.614  69.276  1.00  0.00    -0.063 C  
BRANCH  35  36
HETATM   36  C   UNL     1     -12.501  15.443  70.744  1.00  0.00    -0.476 A  
HETATM   37  C   UNL     1     -11.845  15.959  72.990  1.00  0.00    -0.535 A  
HETATM   38  C   UNL     1     -11.730  16.201  71.620  1.00  0.00    -0.558 A  
HETATM   39  C   UNL     1     -13.504  14.255  72.571  1.00  0.00    -0.613 A  
HETATM   40  C   UNL     1     -12.728  15.000  73.461  1.00  0.00    -0.667 A  
HETATM   41  C   UNL     1     -13.392  14.482  71.208  1.00  0.00    -0.430 A  
ENDBRANCH  35  36
ENDBRANCH  34  35
ENDBRANCH  12  34
BRANCH  12  42
HETATM   42  C   UNL     1      -8.887  14.871  69.483  1.00  0.00     0.021 C  
BRANCH  42  43
HETATM   43  C   UNL     1      -7.549  14.321  68.939  1.00  0.00    -0.113 C  
HETATM   44  C   UNL     1      -7.341  12.843  68.612  1.00  0.00    -0.099 C  
ENDBRANCH  42  43
ENDBRANCH  12  42
TORSDOF 8
ENDMDL
MODEL        6
REMARK 921   NORMALIZED FREE ENERGY PREDICTED BY IDOCK:   -8.33 KCAL/MOL
REMARK 922        TOTAL FREE ENERGY PREDICTED BY IDOCK:  -14.22 KCAL/MOL
REMARK 923 INTER-LIGAND FREE ENERGY PREDICTED BY IDOCK:  -11.83 KCAL/MOL
REMARK 924 INTRA-LIGAND FREE ENERGY PREDICTED BY IDOCK:   -2.39 KCAL/MOL
REMARK 927      BINDING AFFINITY PREDICTED BY RF-SCORE:    0.00 PKD
ROOT
HETATM    1  C   UNL     1      -9.559  11.257  65.076  1.00  0.00    -0.267 C  
HETATM    2  C   UNL     1      -9.451   9.777  65.528  1.00  0.00    -0.324 A  
HETATM    3  C   UNL     1     -10.260  11.465  63.718  1.00  0.00    -0.433 C  
HETATM    4  C   UNL     1     -10.082  12.244  66.169  1.00  0.00    -0.265 C  
HETATM    5  C   UNL     1      -9.585  10.808  62.525  1.00  0.00    -0.241 C  
HETATM    6  C   UNL     1     -10.396   9.160  66.370  1.00  0.00    -0.235 A  
HETATM    7  C   UNL     1      -9.279  12.944  66.999  1.00  0.00    -0.226 C  
HETATM    8  O   UNL     1      -7.899  12.826  66.954  1.00  0.00    -0.383 OA 
HETATM    9  C   UNL     1      -9.785  13.736  68.221  1.00  0.00    -0.231 C  
HETATM   10  C   UNL     1     -10.199   7.858  66.882  1.00  0.00    -0.310 A  
HETATM   11  C   UNL     1      -9.095   7.115  66.492  1.00  0.00    -0.182 A  
HETATM   12  C   UNL     1     -11.299  13.876  68.370  1.00  0.00    -0.285 C  
HETATM   13  C   UNL     1     -11.551  12.439  66.319  1.00  0.00    -0.393 C  
HETATM   14  H   UNL     1      -7.334  13.319  67.539  1.00  0.00     0.000 HD 
HETATM   15  O   UNL     1     -12.034  13.121  67.380  1.00  0.00    -0.365 OA 
HETATM   16  C   UNL     1      -8.355   8.981  65.126  1.00  0.00    -0.165 A  
HETATM   17  O   UNL     1     -12.345  11.971  65.514  1.00  0.00    -0.460 OA 
HETATM   18  C   UNL     1      -8.190   7.663  65.586  1.00  0.00    -0.136 A  
ENDROOT
BRANCH  10  19
HETATM   19  N   UNL     1     -11.078   7.344  67.890  1.00  0.00    -0.491 N  
HETATM   20  H   UNL     1     -12.044   7.105  67.661  1.00  0.00     0.000 HD 
BRANCH  19  21
HETATM   21  S   UNL     1     -10.483   7.135  69.491  1.00  0.00    -0.230 S  
HETATM   22  O   UNL     1     -11.538   7.577  70.387  1.00  0.00    -0.246 OA 
HETATM   23  O   UNL     1      -9.952   5.790  69.588  1.00  0.00    -0.163 OA 
BRANCH  21  24
HETATM   24  C   UNL     1      -9.100   8.249  69.672  1.00  0.00    -0.154 A  
HETATM   25  C   UNL     1      -6.784   8.944  69.650  1.00  0.00    -0.046 A  
HETATM   26  N   UNL     1      -9.492   9.510  69.712  1.00  0.00    -0.195 NA 
HETATM   27  F   UNL     1      -5.217  11.062  70.847  1.00  0.00    -0.078 F  
HETATM   28  C   UNL     1      -6.035  11.310  69.779  1.00  0.00    -0.103 C  
HETATM   29  F   UNL     1      -5.224  11.255  68.680  1.00  0.00    -0.044 F  
HETATM   30  C   UNL     1      -8.515  10.437  69.692  1.00  0.00    -0.049 A  
HETATM   31  F   UNL     1      -6.315  12.626  69.926  1.00  0.00    -0.123 F  
HETATM   32  C   UNL     1      -7.132  10.272  69.697  1.00  0.00    -0.125 A  
HETATM   33  C   UNL     1      -7.749   7.916  69.618  1.00  0.00    -0.103 A  
ENDBRANCH  21  24
ENDBRANCH  19  21
ENDBRANCH  10  19
BRANCH  12  34
HETATM   34  C   UNL     1     -11.530  15.373  68.110  1.00  0.00    -0.352 C  
BRANCH  34  35
HETATM   35  C   UNL     1     -10.445  15.939  67.166  1.00  0.00    -0.313 C  
BRANCH  35  36
HETATM   36  C   UNL     1     -10.264  17.395  67.380  1.00  0.00    -0.326 A  
HETATM   37  C   UNL     1      -9.993  19.298  68.811  1.00  0.00    -0.511 A  
HETATM   38  C   UNL     1     -10.100  17.914  68.661  1.00  0.00    -0.394 A  
HETATM   39  C   UNL     1     -10.181  19.593  66.422  1.00  0.00    -0.592 A  
HETATM   40  C   UNL     1     -10.027  20.129  67.702  1.00  0.00    -0.560 A  
HETATM   41  C   UNL     1     -10.296  18.221  66.262  1.00  0.00    -0.422 A  
ENDBRANCH  35  36
ENDBRANCH  34  35
ENDBRANCH  12  34
BRANCH  12  42
HETATM   42  C   UNL     1     -11.930  13.465  69.794  1.00  0.00    -0.396 C  
BRANCH  42  43
HETATM   43  C   UNL     1     -11.950  11.954  70.123  1.00  0.00    -0.413 C  
HETATM   44  C   UNL     1     -12.764  11.376  71.279  1.00  0.00    -0.498 C  
ENDBRANCH  42  43
ENDBRANCH  12  42
TORSDOF 8
ENDMDL
MODEL        7
REMARK 921   NORMALIZED FREE ENERGY PREDICTED BY IDOCK:   -8.24 KCAL/MOL
REMARK 922        TOTAL FREE ENERGY PREDICTED BY IDOCK:  -14.08 KCAL/MOL
REMARK 923 INTER-LIGAND FREE ENERGY PREDICTED BY IDOCK:  -12.86 KCAL/MOL
REMARK 924 INTRA-LIGAND FREE ENERGY PREDICTED BY IDOCK:   -1.22 KCAL/MOL
REMARK 927      BINDING AFFINITY PREDICTED BY RF-SCORE:    0.00 PKD
ROOT
HETATM    1  C   UNL     1      -9.625  11.415  65.327  1.00  0.00    -0.256 C  
HETATM    2  C   UNL     1      -9.496   9.990  65.928  1.00  0.00    -0.260 A  
HETATM    3  C   UNL     1     -10.384  11.481  63.987  1.00  0.00    -0.406 C  
HETATM    4  C   UNL     1     -10.101  12.513  66.331  1.00  0.00    -0.255 C  
HETATM    5  C   UNL     1      -9.761  10.700  62.841  1.00  0.00    -0.329 C  
HETATM    6  C   UNL     1     -10.402   9.469  66.870  1.00  0.00    -0.307 A  
HETATM    7  C   UNL     1      -9.264  13.295  67.048  1.00  0.00    -0.237 C  
HETATM    8  O   UNL     1      -7.887  13.168  66.956  1.00  0.00    -0.373 OA 
HETATM    9  C   UNL     1      -9.717  14.212  68.199  1.00  0.00    -0.225 C  
HETATM   10  C   UNL     1     -10.182   8.227  67.507  1.00  0.00    -0.243 A  
HETATM   11  C   UNL     1      -9.095   7.443  67.151  1.00  0.00    -0.146 A  
HETATM   12  C   UNL     1     -11.224  14.373  68.398  1.00  0.00    -0.273 C  
HETATM   13  C   UNL     1     -11.563  12.728  66.524  1.00  0.00    -0.376 C  
HETATM   14  H   UNL     1      -7.298  13.717  67.460  1.00  0.00     0.000 HD 
HETATM   15  O   UNL     1     -11.999  13.520  67.527  1.00  0.00    -0.361 OA 
HETATM   16  C   UNL     1      -8.417   9.153  65.565  1.00  0.00    -0.160 A  
HETATM   17  O   UNL     1     -12.390  12.181  65.807  1.00  0.00    -0.564 OA 
HETATM   18  C   UNL     1      -8.231   7.890  66.154  1.00  0.00    -0.117 A  
ENDROOT
BRANCH  10  19
HETATM   19  N   UNL     1     -11.016   7.826  68.601  1.00  0.00    -0.419 N  
HETATM   20  H   UNL     1     -11.835   7.238  68.439  1.00  0.00     0.000 HD 
BRANCH  19  21
HETATM   21  S   UNL     1     -10.618   8.348  70.192  1.00  0.00    -0.234 S  
HETATM   22  O   UNL     1      -9.277   8.903  70.124  1.00  0.00    -0.161 OA 
HETATM   23  O   UNL     1     -11.722   9.154  70.676  1.00  0.00    -0.271 OA 
BRANCH  21  24
HETATM   24  C   UNL     1     -10.562   6.885  71.213  1.00  0.00    -0.220 A  
HETATM   25  C   UNL     1     -11.185   5.409  73.024  1.00  0.00    -0.370 A  
HETATM   26  N   UNL     1      -9.906   5.904  70.620  1.00  0.00    -0.178 NA 
HETATM   27  F   UNL     1      -9.958   3.218  74.462  1.00  0.00    -0.135 F  
HETATM   28  C   UNL     1     -10.464   3.038  73.203  1.00  0.00    -0.165 C  
HETATM   29  F   UNL     1     -11.719   2.528  73.386  1.00  0.00    -0.299 F  
HETATM   30  C   UNL     1      -9.939   4.707  71.240  1.00  0.00    -0.198 A  
HETATM   31  F   UNL     1      -9.739   1.991  72.746  1.00  0.00    -0.110 F  
HETATM   32  C   UNL     1     -10.514   4.353  72.458  1.00  0.00    -0.235 A  
HETATM   33  C   UNL     1     -11.238   6.678  72.412  1.00  0.00    -0.302 A  
ENDBRANCH  21  24
ENDBRANCH  19  21
ENDBRANCH  10  19
BRANCH  12  34
HETATM   34  C   UNL     1     -11.467  15.834  67.992  1.00  0.00    -0.264 C  
BRANCH  34  35
HETATM   35  C   UNL     1     -10.360  16.329  67.034  1.00  0.00    -0.292 C  
BRANCH  35  36
HETATM   36  C   UNL     1     -10.133  17.786  67.194  1.00  0.00    -0.338 A  
HETATM   37  C   UNL     1      -9.607  19.703  68.532  1.00  0.00    -0.467 A  
HETATM   38  C   UNL     1      -9.750  18.318  68.421  1.00  0.00    -0.373 A  
HETATM   39  C   UNL     1     -10.191  19.971  66.205  1.00  0.00    -0.589 A  
HETATM   40  C   UNL     1      -9.819  20.520  67.433  1.00  0.00    -0.574 A  
HETATM   41  C   UNL     1     -10.344  18.598  66.086  1.00  0.00    -0.481 A  
ENDBRANCH  35  36
ENDBRANCH  34  35
ENDBRANCH  12  34
BRANCH  12  42
HETATM   42  C   UNL     1     -11.791  14.116  69.884  1.00  0.00    -0.387 C  
BRANCH  42  43
HETATM   43  C   UNL     1     -12.459  15.324  70.579  1.00  0.00    -0.454 C  
HETATM   44  C   UNL     1     -13.155  15.211  71.935  1.00  0.00    -0.456 C  
ENDBRANCH  42  43
ENDBRANCH  12  42
TORSDOF 8
ENDMDL
MODEL        8
REMARK 921   NORMALIZED FREE ENERGY PREDICTED BY IDOCK:   -8.18 KCAL/MOL
REMARK 922        TOTAL FREE ENERGY PREDICTED BY IDOCK:  -14.00 KCAL/MOL
REMARK 923 INTER-LIGAND FREE ENERGY PREDICTED BY IDOCK:  -12.66 KCAL/MOL
REMARK 924 INTRA-LIGAND FREE ENERGY PREDICTED BY IDOCK:   -1.34 KCAL/MOL
REMARK 927      BINDING AFFINITY PREDICTED BY RF-SCORE:    0.00 PKD
ROOT
HETATM    1  C   UNL     1      -9.429   9.707  66.021  1.00  0.00    -0.284 C  
HETATM    2  C   UNL     1     -10.396  10.847  65.606  1.00  0.00    -0.305 A  
HETATM    3  C   UNL     1      -7.936  10.013  65.785  1.00  0.00    -0.126 C  
HETATM    4  C   UNL     1      -9.692   9.103  67.438  1.00  0.00    -0.211 C  
HETATM    5  C   UNL     1      -7.539  10.266  64.340  1.00  0.00    -0.094 C  
HETATM    6  C   UNL     1     -10.862  11.825  66.505  1.00  0.00    -0.323 A  
HETATM    7  C   UNL     1     -10.469   8.021  67.664  1.00  0.00    -0.232 C  
HETATM    8  O   UNL     1     -11.120   7.360  66.635  1.00  0.00    -0.408 OA 
HETATM    9  C   UNL     1     -10.917   7.561  69.065  1.00  0.00     0.004 C  
HETATM   10  C   UNL     1     -11.852  12.764  66.137  1.00  0.00    -0.425 A  
HETATM   11  C   UNL     1     -12.332  12.798  64.837  1.00  0.00    -0.551 A  
HETATM   12  C   UNL     1     -10.279   8.271  70.258  1.00  0.00    -0.196 C  
HETATM   13  C   UNL     1      -9.055   9.742  68.624  1.00  0.00    -0.130 C  
HETATM   14  H   UNL     1     -11.667   6.600  66.794  1.00  0.00     0.000 HD 
HETATM   15  O   UNL     1      -9.426   9.370  69.868  1.00  0.00    -0.183 OA 
HETATM   16  C   UNL     1     -10.882  10.930  64.282  1.00  0.00    -0.121 A  
HETATM   17  O   UNL     1      -8.215  10.623  68.502  1.00  0.00    -0.114 OA 
HETATM   18  C   UNL     1     -11.822  11.903  63.898  1.00  0.00    -0.509 A  
ENDROOT
BRANCH  10  19
HETATM   19  N   UNL     1     -12.443  13.608  67.132  1.00  0.00    -0.346 N  
HETATM   20  H   UNL     1     -13.449  13.777  67.136  1.00  0.00     0.000 HD 
BRANCH  19  21
HETATM   21  S   UNL     1     -11.432  14.334  68.321  1.00  0.00    -0.323 S  
HETATM   22  O   UNL     1     -12.283  14.647  69.456  1.00  0.00    -0.306 OA 
HETATM   23  O   UNL     1     -10.271  13.480  68.487  1.00  0.00    -0.237 OA 
BRANCH  21  24
HETATM   24  C   UNL     1     -10.846  15.870  67.626  1.00  0.00    -0.312 A  
HETATM   25  C   UNL     1     -10.197  17.425  65.892  1.00  0.00    -0.266 A  
HETATM   26  N   UNL     1     -10.897  16.853  68.508  1.00  0.00    -0.354 NA 
HETATM   27  F   UNL     1      -8.568  19.809  65.713  1.00  0.00    -0.348 F  
HETATM   28  C   UNL     1      -9.820  19.853  66.263  1.00  0.00    -0.461 C  
HETATM   29  F   UNL     1     -10.644  20.273  65.256  1.00  0.00    -0.502 F  
HETATM   30  C   UNL     1     -10.622  18.087  68.038  1.00  0.00    -0.347 A  
HETATM   31  F   UNL     1      -9.736  20.916  67.095  1.00  0.00    -0.595 F  
HETATM   32  C   UNL     1     -10.228  18.485  66.764  1.00  0.00    -0.423 A  
HETATM   33  C   UNL     1     -10.520  16.112  66.295  1.00  0.00    -0.321 A  
ENDBRANCH  21  24
ENDBRANCH  19  21
ENDBRANCH  10  19
BRANCH  12  34
HETATM   34  C   UNL     1      -9.402   7.172  70.879  1.00  0.00    -0.160 C  
BRANCH  34  35
HETATM   35  C   UNL     1      -9.807   5.780  70.345  1.00  0.00    -0.241 C  
BRANCH  35  36
HETATM   36  C   UNL     1     -10.127   4.856  71.461  1.00  0.00    -0.266 A  
HETATM   37  C   UNL     1     -10.121   2.681  72.464  1.00  0.00    -0.232 A  
HETATM   38  C   UNL     1      -9.743   3.520  71.414  1.00  0.00    -0.236 A  
HETATM   39  C   UNL     1     -11.208   4.527  73.577  1.00  0.00    -0.388 A  
HETATM   40  C   UNL     1     -10.840   3.181  73.538  1.00  0.00    -0.316 A  
HETATM   41  C   UNL     1     -10.845   5.368  72.536  1.00  0.00    -0.304 A  
ENDBRANCH  35  36
ENDBRANCH  34  35
ENDBRANCH  12  34
BRANCH  12  42
HETATM   42  C   UNL     1     -11.280   8.865  71.370  1.00  0.00    -0.382 C  
BRANCH  42  43
HETATM   43  C   UNL     1     -11.703  10.341  71.192  1.00  0.00    -0.430 C  
HETATM   44  C   UNL     1     -12.393  10.851  69.928  1.00  0.00    -0.354 C  
ENDBRANCH  42  43
ENDBRANCH  12  42
TORSDOF 8
ENDMDL
MODEL        9
REMARK 921   NORMALIZED FREE ENERGY PREDICTED BY IDOCK:   -8.16 KCAL/MOL
REMARK 922        TOTAL FREE ENERGY PREDICTED BY IDOCK:  -13.97 KCAL/MOL
REMARK 923 INTER-LIGAND FREE ENERGY PREDICTED BY IDOCK:  -11.24 KCAL/MOL
REMARK 924 INTRA-LIGAND FREE ENERGY PREDICTED BY IDOCK:   -2.73 KCAL/MOL
REMARK 927      BINDING AFFINITY PREDICTED BY RF-SCORE:    0.00 PKD
ROOT
HETATM    1  C   UNL     1      -9.073   9.060  65.398  1.00  0.00    -0.250 C  
HETATM    2  C   UNL     1      -9.555  10.527  65.241  1.00  0.00    -0.303 A  
HETATM    3  C   UNL     1      -7.764   8.731  64.652  1.00  0.00    -0.119 C  
HETATM    4  C   UNL     1      -9.070   8.520  66.864  1.00  0.00    -0.177 C  
HETATM    5  C   UNL     1      -7.809   8.899  63.142  1.00  0.00    -0.138 C  
HETATM    6  C   UNL     1      -9.240  11.541  66.164  1.00  0.00    -0.230 A  
HETATM    7  C   UNL     1     -10.101   7.848  67.422  1.00  0.00    -0.226 C  
HETATM    8  O   UNL     1     -11.272   7.595  66.726  1.00  0.00    -0.313 OA 
HETATM    9  C   UNL     1     -10.200   7.517  68.923  1.00  0.00    -0.214 C  
HETATM   10  C   UNL     1      -9.809  12.832  66.075  1.00  0.00    -0.255 A  
HETATM   11  C   UNL     1     -10.638  13.156  65.012  1.00  0.00    -0.347 A  
HETATM   12  C   UNL     1      -8.964   7.807  69.774  1.00  0.00    -0.146 C  
HETATM   13  C   UNL     1      -7.868   8.747  67.714  1.00  0.00    -0.102 C  
HETATM   14  H   UNL     1     -11.997   7.123  67.119  1.00  0.00     0.000 HD 
HETATM   15  O   UNL     1      -7.917   8.475  69.035  1.00  0.00    -0.108 OA 
HETATM   16  C   UNL     1     -10.377  10.899  64.154  1.00  0.00    -0.432 A  
HETATM   17  O   UNL     1      -6.832   9.204  67.248  1.00  0.00    -0.075 OA 
HETATM   18  C   UNL     1     -10.895  12.201  64.031  1.00  0.00    -0.436 A  
ENDROOT
BRANCH  10  19
HETATM   19  N   UNL     1      -9.623  13.772  67.140  1.00  0.00    -0.236 N  
HETATM   20  H   UNL     1      -8.687  14.095  67.386  1.00  0.00     0.000 HD 
BRANCH  19  21
HETATM   21  S   UNL     1     -10.999  14.347  67.998  1.00  0.00    -0.266 S  
HETATM   22  O   UNL     1     -10.510  15.304  68.975  1.00  0.00    -0.229 OA 
HETATM   23  O   UNL     1     -11.992  14.740  67.017  1.00  0.00    -0.350 OA 
BRANCH  21  24
HETATM   24  C   UNL     1     -11.673  12.949  68.881  1.00  0.00    -0.327 A  
HETATM   25  C   UNL     1     -12.105  10.620  69.366  1.00  0.00    -0.250 A  
HETATM   26  N   UNL     1     -12.096  13.292  70.084  1.00  0.00    -0.348 NA 
HETATM   27  F   UNL     1     -14.085   9.116  70.846  1.00  0.00    -0.331 F  
HETATM   28  C   UNL     1     -13.089   9.795  71.493  1.00  0.00    -0.411 C  
HETATM   29  F   UNL     1     -12.117   8.866  71.740  1.00  0.00    -0.332 F  
HETATM   30  C   UNL     1     -12.481  12.282  70.890  1.00  0.00    -0.276 A  
HETATM   31  F   UNL     1     -13.641  10.037  72.705  1.00  0.00    -0.394 F  
HETATM   32  C   UNL     1     -12.561  10.917  70.627  1.00  0.00    -0.435 A  
HETATM   33  C   UNL     1     -11.639  11.616  68.482  1.00  0.00    -0.379 A  
ENDBRANCH  21  24
ENDBRANCH  19  21
ENDBRANCH  10  19
BRANCH  12  34
HETATM   34  C   UNL     1      -8.472   6.401  70.151  1.00  0.00    -0.135 C  
BRANCH  34  35
HETATM   35  C   UNL     1      -9.585   5.353  69.930  1.00  0.00    -0.226 C  
BRANCH  35  36
HETATM   36  C   UNL     1     -10.095   4.840  71.225  1.00  0.00    -0.258 A  
HETATM   37  C   UNL     1     -11.480   5.031  73.170  1.00  0.00    -0.362 A  
HETATM   38  C   UNL     1     -11.079   5.527  71.928  1.00  0.00    -0.233 A  
HETATM   39  C   UNL     1      -9.944   3.182  72.953  1.00  0.00    -0.206 A  
HETATM   40  C   UNL     1     -10.923   3.867  73.675  1.00  0.00    -0.337 A  
HETATM   41  C   UNL     1      -9.532   3.669  71.722  1.00  0.00    -0.210 A  
ENDBRANCH  35  36
ENDBRANCH  34  35
ENDBRANCH  12  34
BRANCH  12  42
HETATM   42  C   UNL     1      -9.189   8.683  71.107  1.00  0.00    -0.269 C  
BRANCH  42  43
HETATM   43  C   UNL     1      -8.390   8.247  72.356  1.00  0.00    -0.231 C  
HETATM   44  C   UNL     1      -9.067   7.849  73.667  1.00  0.00    -0.337 C  
ENDBRANCH  42  43
ENDBRANCH  12  42
TORSDOF 8
ENDMDL
MODEL       10
REMARK 921   NORMALIZED FREE ENERGY PREDICTED BY IDOCK:   -8.15 KCAL/MOL
REMARK 922        TOTAL FREE ENERGY PREDICTED BY IDOCK:  -13.95 KCAL/MOL
REMARK 923 INTER-LIGAND FREE ENERGY PREDICTED BY IDOCK:  -10.80 KCAL/MOL
REMARK 924 INTRA-LIGAND FREE ENERGY PREDICTED BY IDOCK:   -3.15 KCAL/MOL
REMARK 927      BINDING AFFINITY PREDICTED BY RF-SCORE:    0.00 PKD
ROOT
HETATM    1  C   UNL     1     -11.972  13.467  69.475  1.00  0.00    -0.390 C  
HETATM    2  C   UNL     1     -11.271  12.086  69.386  1.00  0.00    -0.263 A  
HETATM    3  C   UNL     1     -12.255  13.954  70.911  1.00  0.00    -0.436 C  
HETATM    4  C   UNL     1     -11.340  14.586  68.586  1.00  0.00    -0.300 C  
HETATM    5  C   UNL     1     -13.176  13.068  71.734  1.00  0.00    -0.486 C  
HETATM    6  C   UNL     1      -9.875  11.938  69.288  1.00  0.00     0.401 A  
HETATM    7  C   UNL     1     -11.750  14.874  67.331  1.00  0.00    -0.293 C  
HETATM    8  O   UNL     1     -12.776  14.173  66.718  1.00  0.00    -0.510 OA 
HETATM    9  C   UNL     1     -10.990  15.808  66.370  1.00  0.00    -0.159 C  
HETATM   10  C   UNL     1      -9.273  10.679  69.064  1.00  0.00    -0.167 A  
HETATM   11  C   UNL     1     -10.051   9.532  69.021  1.00  0.00    -0.201 A  
HETATM   12  C   UNL     1      -9.813  16.588  66.957  1.00  0.00    -0.257 C  
HETATM   13  C   UNL     1     -10.216  15.395  69.136  1.00  0.00    -0.239 C  
HETATM   14  H   UNL     1     -13.065  14.375  65.836  1.00  0.00     0.000 HD 
HETATM   15  O   UNL     1      -9.522  16.221  68.323  1.00  0.00    -0.207 OA 
HETATM   16  C   UNL     1     -12.031  10.895  69.370  1.00  0.00    -0.393 A  
HETATM   17  O   UNL     1      -9.884  15.313  70.310  1.00  0.00    -0.118 OA 
HETATM   18  C   UNL     1     -11.428   9.635  69.209  1.00  0.00     0.091 A  
ENDROOT
BRANCH  10  19
HETATM   19  N   UNL     1      -7.874  10.596  68.769  1.00  0.00    -0.116 N  
HETATM   20  H   UNL     1      -7.181  10.730  69.507  1.00  0.00     0.000 HD 
BRANCH  19  21
HETATM   21  S   UNL     1      -7.377  10.267  67.155  1.00  0.00    -0.092 S  
HETATM   22  O   UNL     1      -6.189  11.068  66.914  1.00  0.00    -0.072 OA 
HETATM   23  O   UNL     1      -7.337   8.827  66.995  1.00  0.00    -0.079 OA 
BRANCH  21  24
HETATM   24  C   UNL     1      -8.676  10.868  66.087  1.00  0.00    -0.184 A  
HETATM   25  C   UNL     1     -10.641  10.741  64.683  1.00  0.00    -0.269 A  
HETATM   26  N   UNL     1      -8.791  12.182  66.153  1.00  0.00    -0.049 NA 
HETATM   27  F   UNL     1     -11.829  12.341  62.587  1.00  0.00    -0.055 F  
HETATM   28  C   UNL     1     -11.926  12.717  63.899  1.00  0.00    -0.479 C  
HETATM   29  F   UNL     1     -13.145  12.261  64.317  1.00  0.00    -0.519 F  
HETATM   30  C   UNL     1      -9.842  12.720  65.503  1.00  0.00    -0.156 A  
HETATM   31  F   UNL     1     -12.081  14.058  63.807  1.00  0.00    -0.477 F  
HETATM   32  C   UNL     1     -10.807  12.104  64.711  1.00  0.00    -0.351 A  
HETATM   33  C   UNL     1      -9.594  10.099  65.378  1.00  0.00    -0.325 A  
ENDBRANCH  21  24
ENDBRANCH  19  21
ENDBRANCH  10  19
BRANCH  12  34
HETATM   34  C   UNL     1     -10.323  18.037  66.940  1.00  0.00    -0.377 C  
BRANCH  34  35
HETATM   35  C   UNL     1      -9.918  18.776  68.235  1.00  0.00    -0.432 C  
BRANCH  35  36
HETATM   36  C   UNL     1      -8.614  19.462  68.067  1.00  0.00    -0.362 A  
HETATM   37  C   UNL     1      -7.034  20.696  66.754  1.00  0.00    -0.343 A  
HETATM   38  C   UNL     1      -8.298  20.117  66.881  1.00  0.00    -0.370 A  
HETATM   39  C   UNL     1      -6.462  19.987  68.989  1.00  0.00    -0.358 A  
HETATM   40  C   UNL     1      -6.127  20.637  67.800  1.00  0.00    -0.320 A  
HETATM   41  C   UNL     1      -7.712  19.401  69.123  1.00  0.00    -0.287 A  
ENDBRANCH  35  36
ENDBRANCH  34  35
ENDBRANCH  12  34
BRANCH  12  42
HETATM   42  C   UNL     1      -8.413  16.491  66.167  1.00  0.00    -0.320 C  
BRANCH  42  43
HETATM   43  C   UNL     1      -7.150  16.291  67.036  1.00  0.00    -0.259 C  
HETATM   44  C   UNL     1      -5.834  17.013  66.751  1.00  0.00    -0.217 C  
ENDBRANCH  42  43
ENDBRANCH  12  42
TORSDOF 8
ENDMDL
MODEL       11
REMARK 921   NORMALIZED FREE ENERGY PREDICTED BY IDOCK:   -8.07 KCAL/MOL
REMARK 922        TOTAL FREE ENERGY PREDICTED BY IDOCK:  -13.84 KCAL/MOL
REMARK 923 INTER-LIGAND FREE ENERGY PREDICTED BY IDOCK:  -12.05 KCAL/MOL
REMARK 924 INTRA-LIGAND FREE ENERGY PREDICTED BY IDOCK:   -1.79 KCAL/MOL
REMARK 927      BINDING AFFINITY PREDICTED BY RF-SCORE:    0.00 PKD
ROOT
HETATM    1  C   UNL     1      -8.610   8.529  65.978  1.00  0.00    -0.162 C  
HETATM    2  C   UNL     1      -9.065   9.800  65.211  1.00  0.00    -0.259 A  
HETATM    3  C   UNL     1      -7.097   8.239  65.899  1.00  0.00    -0.071 C  
HETATM    4  C   UNL     1      -9.160   8.407  67.436  1.00  0.00    -0.152 C  
HETATM    5  C   UNL     1      -6.550   7.989  64.503  1.00  0.00    -0.060 C  
HETATM    6  C   UNL     1      -9.192  11.061  65.822  1.00  0.00    -0.226 A  
HETATM    7  C   UNL     1     -10.292   7.746  67.762  1.00  0.00    -0.221 C  
HETATM    8  O   UNL     1     -11.077   7.125  66.804  1.00  0.00    -0.557 OA 
HETATM    9  C   UNL     1     -10.960   7.814  69.148  1.00  0.00     0.029 C  
HETATM   10  C   UNL     1      -9.745  12.167  65.138  1.00  0.00    -0.114 A  
HETATM   11  C   UNL     1     -10.101  12.054  63.802  1.00  0.00    -0.419 A  
HETATM   12  C   UNL     1     -10.178   8.523  70.254  1.00  0.00    -0.193 C  
HETATM   13  C   UNL     1      -8.405   9.051  68.547  1.00  0.00    -0.124 C  
HETATM   14  H   UNL     1     -11.874   6.659  67.033  1.00  0.00     0.000 HD 
HETATM   15  O   UNL     1      -8.960   9.135  69.776  1.00  0.00    -0.143 OA 
HETATM   16  C   UNL     1      -9.407   9.727  63.842  1.00  0.00    -0.195 A  
HETATM   17  O   UNL     1      -7.295   9.534  68.372  1.00  0.00    -0.075 OA 
HETATM   18  C   UNL     1      -9.899  10.844  63.143  1.00  0.00    -0.392 A  
ENDROOT
BRANCH  10  19
HETATM   19  N   UNL     1     -10.043  13.374  65.850  1.00  0.00    -0.291 N  
HETATM   20  H   UNL     1      -9.291  13.949  66.231  1.00  0.00     0.000 HD 
BRANCH  19  21
HETATM   21  S   UNL     1     -11.687  13.840  66.054  1.00  0.00    -0.382 S  
HETATM   22  O   UNL     1     -11.876  15.052  65.276  1.00  0.00    -0.272 OA 
HETATM   23  O   UNL     1     -12.507  12.671  65.802  1.00  0.00    -0.607 OA 
BRANCH  21  24
HETATM   24  C   UNL     1     -11.893  14.251  67.779  1.00  0.00    -0.379 A  
HETATM   25  C   UNL     1     -12.158  13.845  70.148  1.00  0.00    -0.418 A  
HETATM   26  N   UNL     1     -11.607  15.519  68.014  1.00  0.00    -0.317 NA 
HETATM   27  F   UNL     1     -13.174  15.309  72.427  1.00  0.00    -0.353 F  
HETATM   28  C   UNL     1     -11.945  15.597  71.897  1.00  0.00    -0.447 C  
HETATM   29  F   UNL     1     -11.048  14.911  72.667  1.00  0.00    -0.366 F  
HETATM   30  C   UNL     1     -11.581  15.892  69.309  1.00  0.00    -0.369 A  
HETATM   31  F   UNL     1     -11.772  16.892  72.250  1.00  0.00    -0.533 F  
HETATM   32  C   UNL     1     -11.873  15.154  70.453  1.00  0.00    -0.349 A  
HETATM   33  C   UNL     1     -12.156  13.367  68.821  1.00  0.00    -0.281 A  
ENDBRANCH  21  24
ENDBRANCH  19  21
ENDBRANCH  10  19
BRANCH  12  34
HETATM   34  C   UNL     1      -9.804   7.370  71.199  1.00  0.00    -0.177 C  
BRANCH  34  35
HETATM   35  C   UNL     1     -10.983   6.384  71.354  1.00  0.00    -0.316 C  
BRANCH  35  36
HETATM   36  C   UNL     1     -10.529   5.106  71.954  1.00  0.00    -0.272 A  
HETATM   37  C   UNL     1      -9.377   3.009  71.826  1.00  0.00    -0.196 A  
HETATM   38  C   UNL     1      -9.727   4.224  71.236  1.00  0.00    -0.256 A  
HETATM   39  C   UNL     1     -10.596   3.603  73.823  1.00  0.00    -0.287 A  
HETATM   40  C   UNL     1      -9.802   2.704  73.110  1.00  0.00    -0.171 A  
HETATM   41  C   UNL     1     -10.957   4.810  73.243  1.00  0.00    -0.390 A  
ENDBRANCH  35  36
ENDBRANCH  34  35
ENDBRANCH  12  34
BRANCH  12  42
HETATM   42  C   UNL     1     -10.956   9.671  71.072  1.00  0.00    -0.431 C  
BRANCH  42  43
HETATM   43  C   UNL     1     -12.498   9.565  71.101  1.00  0.00    -0.399 C  
HETATM   44  C   UNL     1     -13.372  10.511  71.923  1.00  0.00    -0.461 C  
ENDBRANCH  42  43
ENDBRANCH  12  42
TORSDOF 8
ENDMDL
MODEL       12
REMARK 921   NORMALIZED FREE ENERGY PREDICTED BY IDOCK:   -8.02 KCAL/MOL
REMARK 922        TOTAL FREE ENERGY PREDICTED BY IDOCK:  -13.77 KCAL/MOL
REMARK 923 INTER-LIGAND FREE ENERGY PREDICTED BY IDOCK:  -10.88 KCAL/MOL
REMARK 924 INTRA-LIGAND FREE ENERGY PREDICTED BY IDOCK:   -2.89 KCAL/MOL
REMARK 927      BINDING AFFINITY PREDICTED BY RF-SCORE:    0.00 PKD
ROOT
HETATM    1  C   UNL     1      -9.936  10.372  65.617  1.00  0.00    -0.337 C  
HETATM    2  C   UNL     1     -10.603  11.733  65.949  1.00  0.00    -0.314 A  
HETATM    3  C   UNL     1      -8.913  10.422  64.464  1.00  0.00    -0.241 C  
HETATM    4  C   UNL     1      -9.395   9.584  66.853  1.00  0.00    -0.185 C  
HETATM    5  C   UNL     1      -9.466  10.851  63.115  1.00  0.00    -0.361 C  
HETATM    6  C   UNL     1     -10.120  12.603  66.944  1.00  0.00    -0.234 A  
HETATM    7  C   UNL     1     -10.106   8.649  67.522  1.00  0.00    -0.216 C  
HETATM    8  O   UNL     1     -11.404   8.323  67.163  1.00  0.00    -0.060 OA 
HETATM    9  C   UNL     1      -9.673   8.039  68.868  1.00  0.00    -0.159 C  
HETATM   10  C   UNL     1     -10.827  13.766  67.324  1.00  0.00    -0.285 A  
HETATM   11  C   UNL     1     -11.988  14.125  66.656  1.00  0.00    -0.470 A  
HETATM   12  C   UNL     1      -8.268   8.385  69.360  1.00  0.00    -0.116 C  
HETATM   13  C   UNL     1      -8.015   9.864  67.339  1.00  0.00    -0.106 C  
HETATM   14  H   UNL     1     -11.905   7.666  67.633  1.00  0.00     0.000 HD 
HETATM   15  O   UNL     1      -7.601   9.352  68.518  1.00  0.00    -0.080 OA 
HETATM   16  C   UNL     1     -11.770  12.145  65.267  1.00  0.00    -0.364 A  
HETATM   17  O   UNL     1      -7.245  10.574  66.706  1.00  0.00    -0.102 OA 
HETATM   18  C   UNL     1     -12.442  13.334  65.603  1.00  0.00    -0.510 A  
ENDROOT
BRANCH  10  19
HETATM   19  N   UNL     1     -10.410  14.515  68.472  1.00  0.00    -0.236 N  
HETATM   20  H   UNL     1      -9.474  14.918  68.514  1.00  0.00     0.000 HD 
BRANCH  19  21
HETATM   21  S   UNL     1     -11.510  14.724  69.779  1.00  0.00    -0.306 S  
HETATM   22  O   UNL     1     -10.735  15.231  70.898  1.00  0.00    -0.266 OA 
HETATM   23  O   UNL     1     -12.649  15.468  69.276  1.00  0.00    -0.054 OA 
BRANCH  21  24
HETATM   24  C   UNL     1     -12.108  13.098  70.210  1.00  0.00    -0.328 A  
HETATM   25  C   UNL     1     -12.254  10.685  70.129  1.00  0.00    -0.398 A  
HETATM   26  N   UNL     1     -12.790  13.115  71.341  1.00  0.00    -0.354 NA 
HETATM   27  F   UNL     1     -14.211   8.677  70.838  1.00  0.00    -0.281 F  
HETATM   28  C   UNL     1     -13.467   9.303  71.800  1.00  0.00    -0.415 C  
HETATM   29  F   UNL     1     -12.424   8.459  72.059  1.00  0.00    -0.313 F  
HETATM   30  C   UNL     1     -13.153  11.914  71.835  1.00  0.00    -0.369 A  
HETATM   31  F   UNL     1     -14.260   9.205  72.892  1.00  0.00    -0.444 F  
HETATM   32  C   UNL     1     -12.971  10.642  71.299  1.00  0.00    -0.513 A  
HETATM   33  C   UNL     1     -11.796  11.899  69.575  1.00  0.00    -0.395 A  
ENDBRANCH  21  24
ENDBRANCH  19  21
ENDBRANCH  10  19
BRANCH  12  34
HETATM   34  C   UNL     1      -7.527   7.044  69.243  1.00  0.00    -0.094 C  
BRANCH  34  35
HETATM   35  C   UNL     1      -8.526   5.869  69.172  1.00  0.00    -0.112 C  
BRANCH  35  36
HETATM   36  C   UNL     1      -8.745   5.277  70.515  1.00  0.00    -0.132 A  
HETATM   37  C   UNL     1     -10.181   4.464  72.252  1.00  0.00    -0.255 A  
HETATM   38  C   UNL     1     -10.026   4.964  70.957  1.00  0.00    -0.282 A  
HETATM   39  C   UNL     1      -7.794   4.572  72.601  1.00  0.00    -0.087 A  
HETATM   40  C   UNL     1      -9.075   4.264  73.064  1.00  0.00    -0.122 A  
HETATM   41  C   UNL     1      -7.630   5.076  71.320  1.00  0.00    -0.090 A  
ENDBRANCH  35  36
ENDBRANCH  34  35
ENDBRANCH  12  34
BRANCH  12  42
HETATM   42  C   UNL     1      -8.143   8.950  70.863  1.00  0.00    -0.196 C  
BRANCH  42  43
HETATM   43  C   UNL     1      -9.362   8.719  71.784  1.00  0.00    -0.350 C  
HETATM   44  C   UNL     1      -9.258   7.972  73.113  1.00  0.00    -0.347 C  
ENDBRANCH  42  43
ENDBRANCH  12  42
TORSDOF 8
ENDMDL
MODEL       13
REMARK 921   NORMALIZED FREE ENERGY PREDICTED BY IDOCK:   -7.99 KCAL/MOL
REMARK 922        TOTAL FREE ENERGY PREDICTED BY IDOCK:  -13.72 KCAL/MOL
REMARK 923 INTER-LIGAND FREE ENERGY PREDICTED BY IDOCK:  -11.68 KCAL/MOL
REMARK 924 INTRA-LIGAND FREE ENERGY PREDICTED BY IDOCK:   -2.04 KCAL/MOL
REMARK 927      BINDING AFFINITY PREDICTED BY RF-SCORE:    0.00 PKD
ROOT
HETATM    1  C   UNL     1      -9.599   9.101  69.372  1.00  0.00    -0.165 C  
HETATM    2  C   UNL     1      -9.077   8.168  68.248  1.00  0.00    -0.135 A  
HETATM    3  C   UNL     1      -8.868   8.952  70.722  1.00  0.00    -0.250 C  
HETATM    4  C   UNL     1      -9.776  10.597  68.958  1.00  0.00    -0.214 C  
HETATM    5  C   UNL     1      -8.960   7.580  71.369  1.00  0.00    -0.140 C  
HETATM    6  C   UNL     1      -8.102   8.563  67.312  1.00  0.00    -0.105 A  
HETATM    7  C   UNL     1     -10.934  11.120  68.498  1.00  0.00    -0.220 C  
HETATM    8  O   UNL     1     -12.073  10.348  68.340  1.00  0.00    -0.769 OA 
HETATM    9  C   UNL     1     -11.056  12.524  67.875  1.00  0.00    -0.286 C  
HETATM   10  C   UNL     1      -7.750   7.747  66.214  1.00  0.00    -0.089 A  
HETATM   11  C   UNL     1      -8.304   6.483  66.079  1.00  0.00    -0.133 A  
HETATM   12  C   UNL     1      -9.826  13.427  67.967  1.00  0.00    -0.229 C  
HETATM   13  C   UNL     1      -8.611  11.519  69.071  1.00  0.00     0.131 C  
HETATM   14  H   UNL     1     -12.888  10.716  68.017  1.00  0.00     0.000 HD 
HETATM   15  O   UNL     1      -8.678  12.756  68.532  1.00  0.00    -0.146 OA 
HETATM   16  C   UNL     1      -9.598   6.863  68.098  1.00  0.00    -0.124 A  
HETATM   17  O   UNL     1      -7.574  11.176  69.622  1.00  0.00    -0.018 OA 
HETATM   18  C   UNL     1      -9.202   6.026  67.040  1.00  0.00    -0.124 A  
ENDROOT
BRANCH  10  19
HETATM   19  N   UNL     1      -6.907   8.265  65.178  1.00  0.00    -0.068 N  
HETATM   20  H   UNL     1      -5.934   8.503  65.374  1.00  0.00     0.000 HD 
BRANCH  19  21
HETATM   21  S   UNL     1      -7.557   8.481  63.600  1.00  0.00    -0.134 S  
HETATM   22  O   UNL     1      -6.527   9.134  62.811  1.00  0.00    -0.095 OA 
HETATM   23  O   UNL     1      -8.110   7.208  63.177  1.00  0.00    -0.103 OA 
BRANCH  21  24
HETATM   24  C   UNL     1      -8.931   9.610  63.762  1.00  0.00    -0.217 A  
HETATM   25  C   UNL     1     -10.612  10.922  64.903  1.00  0.00    -0.304 A  
HETATM   26  N   UNL     1      -9.131  10.294  62.650  1.00  0.00    -0.256 NA 
HETATM   27  F   UNL     1     -13.145  12.138  64.219  1.00  0.00    -0.533 F  
HETATM   28  C   UNL     1     -11.964  12.703  63.821  1.00  0.00    -0.510 C  
HETATM   29  F   UNL     1     -11.691  13.665  64.752  1.00  0.00    -0.332 F  
HETATM   30  C   UNL     1     -10.045  11.283  62.718  1.00  0.00    -0.088 A  
HETATM   31  F   UNL     1     -12.330  13.395  62.717  1.00  0.00    -0.498 F  
HETATM   32  C   UNL     1     -10.867  11.663  63.775  1.00  0.00    -0.493 A  
HETATM   33  C   UNL     1      -9.635   9.904  64.926  1.00  0.00    -0.356 A  
ENDBRANCH  21  24
ENDBRANCH  19  21
ENDBRANCH  10  19
BRANCH  12  34
HETATM   34  C   UNL     1     -10.280  14.521  68.945  1.00  0.00    -0.229 C  
BRANCH  34  35
HETATM   35  C   UNL     1     -11.812  14.482  69.141  1.00  0.00    -0.354 C  
BRANCH  35  36
HETATM   36  C   UNL     1     -12.165  14.570  70.579  1.00  0.00    -0.399 A  
HETATM   37  C   UNL     1     -13.348  13.791  72.511  1.00  0.00    -0.656 A  
HETATM   38  C   UNL     1     -13.001  13.628  71.169  1.00  0.00    -0.353 A  
HETATM   39  C   UNL     1     -11.999  15.789  72.639  1.00  0.00    -0.597 A  
HETATM   40  C   UNL     1     -12.847  14.858  73.241  1.00  0.00    -0.646 A  
HETATM   41  C   UNL     1     -11.654  15.641  71.304  1.00  0.00    -0.485 A  
ENDBRANCH  35  36
ENDBRANCH  34  35
ENDBRANCH  12  34
BRANCH  12  42
HETATM   42  C   UNL     1      -9.314  14.097  66.595  1.00  0.00    -0.299 C  
BRANCH  42  43
HETATM   43  C   UNL     1      -9.484  15.629  66.477  1.00  0.00    -0.300 C  
HETATM   44  C   UNL     1      -8.300  16.575  66.281  1.00  0.00    -0.364 C  
ENDBRANCH  42  43
ENDBRANCH  12  42
TORSDOF 8
ENDMDL
MODEL       14
REMARK 921   NORMALIZED FREE ENERGY PREDICTED BY IDOCK:   -7.75 KCAL/MOL
REMARK 922        TOTAL FREE ENERGY PREDICTED BY IDOCK:  -13.37 KCAL/MOL
REMARK 923 INTER-LIGAND FREE ENERGY PREDICTED BY IDOCK:  -12.36 KCAL/MOL
REMARK 924 INTRA-LIGAND FREE ENERGY PREDICTED BY IDOCK:   -1.02 KCAL/MOL
REMARK 927      BINDING AFFINITY PREDICTED BY RF-SCORE:    0.00 PKD
ROOT
HETATM    1  C   UNL     1      -9.160   8.730  67.860  1.00  0.00    -0.145 C  
HETATM    2  C   UNL     1      -9.761   9.833  66.948  1.00  0.00    -0.243 A  
HETATM    3  C   UNL     1      -7.639   8.844  68.089  1.00  0.00    -0.093 C  
HETATM    4  C   UNL     1      -9.941   8.476  69.189  1.00  0.00    -0.194 C  
HETATM    5  C   UNL     1      -6.778   8.739  66.841  1.00  0.00    -0.069 C  
HETATM    6  C   UNL     1     -10.326  11.020  67.449  1.00  0.00    -0.242 A  
HETATM    7  C   UNL     1     -10.908   7.543  69.329  1.00  0.00    -0.117 C  
HETATM    8  O   UNL     1     -11.301   6.733  68.276  1.00  0.00    -0.543 OA 
HETATM    9  C   UNL     1     -11.835   7.442  70.556  1.00  0.00    -0.187 C  
HETATM   10  C   UNL     1     -10.994  11.939  66.609  1.00  0.00    -0.291 A  
HETATM   11  C   UNL     1     -11.033  11.730  65.239  1.00  0.00    -0.350 A  
HETATM   12  C   UNL     1     -11.498   8.337  71.748  1.00  0.00    -0.293 C  
HETATM   13  C   UNL     1      -9.614   9.301  70.386  1.00  0.00    -0.244 C  
HETATM   14  H   UNL     1     -11.981   6.077  68.374  1.00  0.00     0.000 HD 
HETATM   15  O   UNL     1     -10.407   9.244  71.478  1.00  0.00    -0.336 OA 
HETATM   16  C   UNL     1      -9.792   9.665  65.545  1.00  0.00    -0.352 A  
HETATM   17  O   UNL     1      -8.652  10.056  70.399  1.00  0.00    -0.070 OA 
HETATM   18  C   UNL     1     -10.402  10.610  64.701  1.00  0.00    -0.353 A  
ENDROOT
BRANCH  10  19
HETATM   19  N   UNL     1     -11.726  13.030  67.180  1.00  0.00    -0.367 N  
HETATM   20  H   UNL     1     -12.668  13.247  66.853  1.00  0.00     0.000 HD 
BRANCH  19  21
HETATM   21  S   UNL     1     -10.995  13.968  68.424  1.00  0.00    -0.262 S  
HETATM   22  O   UNL     1     -12.007  14.162  69.448  1.00  0.00    -0.300 OA 
HETATM   23  O   UNL     1      -9.727  13.346  68.752  1.00  0.00    -0.130 OA 
BRANCH  21  24
HETATM   24  C   UNL     1     -10.618  15.560  67.709  1.00  0.00    -0.281 A  
HETATM   25  C   UNL     1     -10.181  17.166  65.955  1.00  0.00    -0.332 A  
HETATM   26  N   UNL     1     -10.797  16.538  68.579  1.00  0.00    -0.334 NA 
HETATM   27  F   UNL     1      -8.881  19.742  65.744  1.00  0.00    -0.357 F  
HETATM   28  C   UNL     1     -10.128  19.627  66.297  1.00  0.00    -0.480 C  
HETATM   29  F   UNL     1     -11.001  19.923  65.288  1.00  0.00    -0.583 F  
HETATM   30  C   UNL     1     -10.688  17.791  68.095  1.00  0.00    -0.284 A  
HETATM   31  F   UNL     1     -10.183  20.702  67.117  1.00  0.00    -0.563 F  
HETATM   32  C   UNL     1     -10.351  18.223  66.815  1.00  0.00    -0.403 A  
HETATM   33  C   UNL     1     -10.328  15.827  66.375  1.00  0.00    -0.306 A  
ENDBRANCH  21  24
ENDBRANCH  19  21
ENDBRANCH  10  19
BRANCH  12  34
HETATM   34  C   UNL     1     -11.040   7.327  72.812  1.00  0.00    -0.362 C  
BRANCH  34  35
HETATM   35  C   UNL     1     -11.684   5.944  72.569  1.00  0.00    -0.288 C  
BRANCH  35  36
HETATM   36  C   UNL     1     -10.710   4.854  72.824  1.00  0.00    -0.289 A  
HETATM   37  C   UNL     1      -9.189   3.166  72.065  1.00  0.00    -0.174 A  
HETATM   38  C   UNL     1     -10.051   4.225  71.773  1.00  0.00    -0.227 A  
HETATM   39  C   UNL     1      -9.639   3.421  74.423  1.00  0.00    -0.131 A  
HETATM   40  C   UNL     1      -8.981   2.772  73.377  1.00  0.00    -0.085 A  
HETATM   41  C   UNL     1     -10.504   4.469  74.144  1.00  0.00    -0.321 A  
ENDBRANCH  35  36
ENDBRANCH  34  35
ENDBRANCH  12  34
BRANCH  12  42
HETATM   42  C   UNL     1     -12.691   9.246  72.334  1.00  0.00    -0.383 C  
BRANCH  42  43
HETATM   43  C   UNL     1     -13.100  10.470  71.483  1.00  0.00    -0.532 C  
HETATM   44  C   UNL     1     -13.172  11.884  72.059  1.00  0.00    -0.461 C  
ENDBRANCH  42  43
ENDBRANCH  12  42
TORSDOF 8
ENDMDL
MODEL       15
REMARK 921   NORMALIZED FREE ENERGY PREDICTED BY IDOCK:   -7.75 KCAL/MOL
REMARK 922        TOTAL FREE ENERGY PREDICTED BY IDOCK:  -13.36 KCAL/MOL
REMARK 923 INTER-LIGAND FREE ENERGY PREDICTED BY IDOCK:  -12.04 KCAL/MOL
REMARK 924 INTRA-LIGAND FREE ENERGY PREDICTED BY IDOCK:   -1.32 KCAL/MOL
REMARK 927      BINDING AFFINITY PREDICTED BY RF-SCORE:    0.00 PKD
ROOT
HETATM    1  C   UNL     1      -9.146  11.369  66.576  1.00  0.00    -0.193 C  
HETATM    2  C   UNL     1      -8.811  10.104  67.412  1.00  0.00    -0.135 A  
HETATM    3  C   UNL     1      -9.872  11.086  65.245  1.00  0.00    -0.309 C  
HETATM    4  C   UNL     1      -9.815  12.531  67.379  1.00  0.00    -0.201 C  
HETATM    5  C   UNL     1      -9.105  10.231  64.249  1.00  0.00    -0.278 C  
HETATM    6  C   UNL     1      -9.649   9.612  68.430  1.00  0.00    -0.154 A  
HETATM    7  C   UNL     1      -9.129  13.545  67.950  1.00  0.00    -0.204 C  
HETATM    8  O   UNL     1      -7.747  13.624  67.879  1.00  0.00    -0.126 OA 
HETATM    9  C   UNL     1      -9.749  14.560  68.929  1.00  0.00    -0.169 C  
HETATM   10  C   UNL     1      -9.254   8.547  69.270  1.00  0.00    -0.153 A  
HETATM   11  C   UNL     1      -8.049   7.897  69.051  1.00  0.00    -0.124 A  
HETATM   12  C   UNL     1     -11.267  14.510  69.100  1.00  0.00    -0.269 C  
HETATM   13  C   UNL     1     -11.296  12.541  67.534  1.00  0.00    -0.312 C  
HETATM   14  H   UNL     1      -7.264  14.337  68.281  1.00  0.00     0.000 HD 
HETATM   15  O   UNL     1     -11.877  13.411  68.387  1.00  0.00    -0.337 OA 
HETATM   16  C   UNL     1      -7.606   9.400  67.195  1.00  0.00    -0.091 A  
HETATM   17  O   UNL     1     -12.009  11.756  66.922  1.00  0.00    -0.605 OA 
HETATM   18  C   UNL     1      -7.239   8.300  67.991  1.00  0.00    -0.094 A  
ENDROOT
BRANCH  10  19
HETATM   19  N   UNL     1     -10.042   8.209  70.417  1.00  0.00    -0.192 N  
HETATM   20  H   UNL     1     -10.167   8.880  71.175  1.00  0.00     0.000 HD 
BRANCH  19  21
HETATM   21  S   UNL     1     -10.776   6.654  70.498  1.00  0.00    -0.263 S  
HETATM   22  O   UNL     1      -9.976   5.865  71.419  1.00  0.00    -0.178 OA 
HETATM   23  O   UNL     1     -12.192   6.851  70.739  1.00  0.00    -0.381 OA 
BRANCH  21  24
HETATM   24  C   UNL     1     -10.625   5.931  68.873  1.00  0.00    -0.288 A  
HETATM   25  C   UNL     1     -10.776   5.823  66.462  1.00  0.00    -0.274 A  
HETATM   26  N   UNL     1      -9.851   4.861  68.887  1.00  0.00    -0.173 NA 
HETATM   27  F   UNL     1     -10.905   3.739  64.459  1.00  0.00    -0.245 F  
HETATM   28  C   UNL     1      -9.724   4.049  65.076  1.00  0.00    -0.195 C  
HETATM   29  F   UNL     1      -9.084   4.905  64.224  1.00  0.00    -0.156 F  
HETATM   30  C   UNL     1      -9.549   4.331  67.685  1.00  0.00    -0.165 A  
HETATM   31  F   UNL     1      -9.030   2.892  64.975  1.00  0.00    -0.114 F  
HETATM   32  C   UNL     1      -9.980   4.705  66.415  1.00  0.00    -0.267 A  
HETATM   33  C   UNL     1     -11.097   6.464  67.677  1.00  0.00    -0.388 A  
ENDBRANCH  21  24
ENDBRANCH  19  21
ENDBRANCH  10  19
BRANCH  12  34
HETATM   34  C   UNL     1     -11.725  15.825  68.450  1.00  0.00    -0.279 C  
BRANCH  34  35
HETATM   35  C   UNL     1     -10.776  16.229  67.299  1.00  0.00    -0.265 C  
BRANCH  35  36
HETATM   36  C   UNL     1     -10.475  17.680  67.345  1.00  0.00    -0.356 A  
HETATM   37  C   UNL     1     -10.050  19.708  68.549  1.00  0.00    -0.557 A  
HETATM   38  C   UNL     1     -10.272  18.329  68.559  1.00  0.00    -0.402 A  
HETATM   39  C   UNL     1     -10.205  19.737  66.140  1.00  0.00    -0.618 A  
HETATM   40  C   UNL     1     -10.010  20.404  67.350  1.00  0.00    -0.556 A  
HETATM   41  C   UNL     1     -10.434  18.369  66.138  1.00  0.00    -0.422 A  
ENDBRANCH  35  36
ENDBRANCH  34  35
ENDBRANCH  12  34
BRANCH  12  42
HETATM   42  C   UNL     1     -11.826  14.421  70.607  1.00  0.00    -0.361 C  
BRANCH  42  43
HETATM   43  C   UNL     1     -12.853  15.499  71.021  1.00  0.00    -0.543 C  
HETATM   44  C   UNL     1     -14.254  15.150  71.522  1.00  0.00    -0.647 C  
ENDBRANCH  42  43
ENDBRANCH  12  42
TORSDOF 8
ENDMDL
MODEL       16
REMARK 921   NORMALIZED FREE ENERGY PREDICTED BY IDOCK:   -7.74 KCAL/MOL
REMARK 922        TOTAL FREE ENERGY PREDICTED BY IDOCK:  -13.35 KCAL/MOL
REMARK 923 INTER-LIGAND FREE ENERGY PREDICTED BY IDOCK:  -11.90 KCAL/MOL
REMARK 924 INTRA-LIGAND FREE ENERGY PREDICTED BY IDOCK:   -1.45 KCAL/MOL
REMARK 927      BINDING AFFINITY PREDICTED BY RF-SCORE:    0.00 PKD
ROOT
HETATM    1  C   UNL     1      -9.331  11.184  67.320  1.00  0.00    -0.170 C  
HETATM    2  C   UNL     1      -8.911  10.138  68.387  1.00  0.00    -0.123 A  
HETATM    3  C   UNL     1     -10.151  10.611  66.147  1.00  0.00    -0.306 C  
HETATM    4  C   UNL     1      -9.956  12.496  67.894  1.00  0.00    -0.212 C  
HETATM    5  C   UNL     1      -9.448   9.556  65.309  1.00  0.00    -0.326 C  
HETATM    6  C   UNL     1      -9.660   9.886  69.552  1.00  0.00    -0.242 A  
HETATM    7  C   UNL     1      -9.246  13.612  68.170  1.00  0.00    -0.204 C  
HETATM    8  O   UNL     1      -7.876  13.673  67.975  1.00  0.00    -0.123 OA 
HETATM    9  C   UNL     1      -9.808  14.820  68.944  1.00  0.00    -0.222 C  
HETATM   10  C   UNL     1      -9.183   9.035  70.574  1.00  0.00    -0.220 A  
HETATM   11  C   UNL     1      -7.987   8.352  70.412  1.00  0.00    -0.099 A  
HETATM   12  C   UNL     1     -11.307  14.810  69.240  1.00  0.00    -0.294 C  
HETATM   13  C   UNL     1     -11.422  12.540  68.159  1.00  0.00    -0.319 C  
HETATM   14  H   UNL     1      -7.376  14.458  68.169  1.00  0.00     0.000 HD 
HETATM   15  O   UNL     1     -11.950  13.579  68.840  1.00  0.00    -0.336 OA 
HETATM   16  C   UNL     1      -7.714   9.403  68.239  1.00  0.00    -0.083 A  
HETATM   17  O   UNL     1     -12.165  11.639  67.795  1.00  0.00    -0.560 OA 
HETATM   18  C   UNL     1      -7.268   8.508  69.229  1.00  0.00    -0.063 A  
ENDROOT
BRANCH  10  19
HETATM   19  N   UNL     1      -9.875   8.961  71.826  1.00  0.00    -0.319 N  
HETATM   20  H   UNL     1      -9.670   9.628  72.571  1.00  0.00     0.000 HD 
BRANCH  19  21
HETATM   21  S   UNL     1     -11.058   7.733  72.056  1.00  0.00    -0.289 S  
HETATM   22  O   UNL     1     -10.986   7.343  73.454  1.00  0.00    -0.378 OA 
HETATM   23  O   UNL     1     -12.304   8.214  71.492  1.00  0.00    -0.294 OA 
BRANCH  21  24
HETATM   24  C   UNL     1     -10.548   6.339  71.064  1.00  0.00    -0.238 A  
HETATM   25  C   UNL     1     -10.237   5.032  69.054  1.00  0.00    -0.207 A  
HETATM   26  N   UNL     1      -9.705   5.560  71.718  1.00  0.00    -0.161 NA 
HETATM   27  F   UNL     1      -9.819   2.244  68.407  1.00  0.00    -0.247 F  
HETATM   28  C   UNL     1      -8.803   3.009  68.912  1.00  0.00    -0.105 C  
HETATM   29  F   UNL     1      -8.088   3.426  67.824  1.00  0.00    -0.077 F  
HETATM   30  C   UNL     1      -9.140   4.565  71.004  1.00  0.00    -0.132 A  
HETATM   31  F   UNL     1      -8.009   2.086  69.503  1.00  0.00    -0.043 F  
HETATM   32  C   UNL     1      -9.357   4.186  69.682  1.00  0.00    -0.241 A  
HETATM   33  C   UNL     1     -10.831   6.126  69.719  1.00  0.00    -0.421 A  
ENDBRANCH  21  24
ENDBRANCH  19  21
ENDBRANCH  10  19
BRANCH  12  34
HETATM   34  C   UNL     1     -11.837  15.946  68.352  1.00  0.00    -0.129 C  
BRANCH  34  35
HETATM   35  C   UNL     1     -10.818  16.298  67.244  1.00  0.00    -0.216 C  
BRANCH  35  36
HETATM   36  C   UNL     1     -10.524  17.751  67.237  1.00  0.00    -0.356 A  
HETATM   37  C   UNL     1     -10.181  19.827  66.089  1.00  0.00    -0.618 A  
HETATM   38  C   UNL     1     -10.523  18.474  66.048  1.00  0.00    -0.433 A  
HETATM   39  C   UNL     1      -9.892  19.701  68.483  1.00  0.00    -0.519 A  
HETATM   40  C   UNL     1      -9.875  20.436  67.297  1.00  0.00    -0.597 A  
HETATM   41  C   UNL     1     -10.222  18.355  68.452  1.00  0.00    -0.407 A  
ENDBRANCH  35  36
ENDBRANCH  34  35
ENDBRANCH  12  34
BRANCH  12  42
HETATM   42  C   UNL     1     -11.747  15.060  70.769  1.00  0.00    -0.371 C  
BRANCH  42  43
HETATM   43  C   UNL     1     -13.248  15.342  71.011  1.00  0.00    -0.560 C  
HETATM   44  C   UNL     1     -13.874  15.315  72.405  1.00  0.00    -0.641 C  
ENDBRANCH  42  43
ENDBRANCH  12  42
TORSDOF 8
ENDMDL
MODEL       17
REMARK 921   NORMALIZED FREE ENERGY PREDICTED BY IDOCK:   -7.61 KCAL/MOL
REMARK 922        TOTAL FREE ENERGY PREDICTED BY IDOCK:  -13.16 KCAL/MOL
REMARK 923 INTER-LIGAND FREE ENERGY PREDICTED BY IDOCK:  -10.93 KCAL/MOL
REMARK 924 INTRA-LIGAND FREE ENERGY PREDICTED BY IDOCK:   -2.23 KCAL/MOL
REMARK 927      BINDING AFFINITY PREDICTED BY RF-SCORE:    0.00 PKD
ROOT
HETATM    1  C   UNL     1      -8.820  10.388  67.643  1.00  0.00    -0.124 C  
HETATM    2  C   UNL     1      -8.479   9.579  68.923  1.00  0.00    -0.123 A  
HETATM    3  C   UNL     1      -9.337   9.538  66.464  1.00  0.00    -0.220 C  
HETATM    4  C   UNL     1      -9.695  11.661  67.881  1.00  0.00    -0.181 C  
HETATM    5  C   UNL     1      -8.370   8.490  65.939  1.00  0.00    -0.142 C  
HETATM    6  C   UNL     1      -9.392   9.388  69.977  1.00  0.00    -0.253 A  
HETATM    7  C   UNL     1      -9.188  12.898  68.078  1.00  0.00    -0.212 C  
HETATM    8  O   UNL     1      -7.822  13.134  68.099  1.00  0.00    -0.124 OA 
HETATM    9  C   UNL     1     -10.023  14.107  68.538  1.00  0.00    -0.235 C  
HETATM   10  C   UNL     1      -9.009   8.773  71.190  1.00  0.00    -0.222 A  
HETATM   11  C   UNL     1      -7.730   8.259  71.338  1.00  0.00    -0.108 A  
HETATM   12  C   UNL     1     -11.539  13.917  68.586  1.00  0.00    -0.328 C  
HETATM   13  C   UNL     1     -11.178  11.525  67.895  1.00  0.00    -0.279 C  
HETATM   14  H   UNL     1      -7.466  14.004  68.237  1.00  0.00     0.000 HD 
HETATM   15  O   UNL     1     -11.945  12.560  68.299  1.00  0.00    -0.328 OA 
HETATM   16  C   UNL     1      -7.194   9.017  69.094  1.00  0.00    -0.067 A  
HETATM   17  O   UNL     1     -11.728  10.480  67.571  1.00  0.00    -0.356 OA 
HETATM   18  C   UNL     1      -6.832   8.349  70.278  1.00  0.00    -0.036 A  
ENDROOT
BRANCH  10  19
HETATM   19  N   UNL     1      -9.905   8.777  72.308  1.00  0.00    -0.287 N  
HETATM   20  H   UNL     1      -9.875   9.534  72.992  1.00  0.00     0.000 HD 
BRANCH  19  21
HETATM   21  S   UNL     1     -11.032   7.488  72.482  1.00  0.00    -0.342 S  
HETATM   22  O   UNL     1     -10.847   6.951  73.819  1.00  0.00    -0.289 OA 
HETATM   23  O   UNL     1     -12.329   7.983  72.062  1.00  0.00    -0.305 OA 
BRANCH  21  24
HETATM   24  C   UNL     1     -10.556   6.230  71.308  1.00  0.00    -0.236 A  
HETATM   25  C   UNL     1     -10.337   5.172  69.144  1.00  0.00    -0.226 A  
HETATM   26  N   UNL     1      -9.665   5.401  71.820  1.00  0.00    -0.159 NA 
HETATM   27  F   UNL     1      -9.911   2.488  68.155  1.00  0.00    -0.245 F  
HETATM   28  C   UNL     1      -8.880   3.212  68.690  1.00  0.00    -0.117 C  
HETATM   29  F   UNL     1      -8.234   3.768  67.622  1.00  0.00    -0.087 F  
HETATM   30  C   UNL     1      -9.126   4.508  70.966  1.00  0.00    -0.132 A  
HETATM   31  F   UNL     1      -8.040   2.245  69.126  1.00  0.00    -0.048 F  
HETATM   32  C   UNL     1      -9.410   4.279  69.622  1.00  0.00    -0.235 A  
HETATM   33  C   UNL     1     -10.911   6.168  69.963  1.00  0.00    -0.408 A  
ENDBRANCH  21  24
ENDBRANCH  19  21
ENDBRANCH  10  19
BRANCH  12  34
HETATM   34  C   UNL     1     -12.032  14.824  67.447  1.00  0.00    -0.236 C  
BRANCH  34  35
HETATM   35  C   UNL     1     -10.997  14.877  66.301  1.00  0.00    -0.338 C  
BRANCH  35  36
HETATM   36  C   UNL     1     -11.260  13.815  65.300  1.00  0.00    -0.311 A  
HETATM   37  C   UNL     1     -12.731  12.287  64.185  1.00  0.00    -0.431 A  
HETATM   38  C   UNL     1     -12.547  13.327  65.098  1.00  0.00    -0.512 A  
HETATM   39  C   UNL     1     -10.368  12.280  63.686  1.00  0.00    -0.463 A  
HETATM   40  C   UNL     1     -11.653  11.773  63.481  1.00  0.00    -0.487 A  
HETATM   41  C   UNL     1     -10.174  13.308  64.596  1.00  0.00    -0.334 A  
ENDBRANCH  35  36
ENDBRANCH  34  35
ENDBRANCH  12  34
BRANCH  12  42
HETATM   42  C   UNL     1     -12.278  14.315  69.961  1.00  0.00    -0.417 C  
BRANCH  42  43
HETATM   43  C   UNL     1     -12.307  13.230  71.061  1.00  0.00    -0.379 C  
HETATM   44  C   UNL     1     -13.204  13.333  72.294  1.00  0.00    -0.567 C  
ENDBRANCH  42  43
ENDBRANCH  12  42
TORSDOF 8
ENDMDL
MODEL       18
REMARK 921   NORMALIZED FREE ENERGY PREDICTED BY IDOCK:   -7.52 KCAL/MOL
REMARK 922        TOTAL FREE ENERGY PREDICTED BY IDOCK:  -13.03 KCAL/MOL
REMARK 923 INTER-LIGAND FREE ENERGY PREDICTED BY IDOCK:  -11.91 KCAL/MOL
REMARK 924 INTRA-LIGAND FREE ENERGY PREDICTED BY IDOCK:   -1.12 KCAL/MOL
REMARK 927      BINDING AFFINITY PREDICTED BY RF-SCORE:    0.00 PKD
ROOT
HETATM    1  C   UNL     1     -10.623  13.873  68.822  1.00  0.00    -0.258 C  
HETATM    2  C   UNL     1     -10.767  14.627  67.473  1.00  0.00    -0.268 A  
HETATM    3  C   UNL     1     -11.741  14.166  69.843  1.00  0.00    -0.372 C  
HETATM    4  C   UNL     1     -10.326  12.344  68.694  1.00  0.00    -0.198 C  
HETATM    5  C   UNL     1     -11.856  15.615  70.290  1.00  0.00    -0.386 C  
HETATM    6  C   UNL     1     -11.400  14.070  66.345  1.00  0.00    -0.338 A  
HETATM    7  C   UNL     1      -9.082  11.816  68.693  1.00  0.00    -0.071 C  
HETATM    8  O   UNL     1      -7.951  12.609  68.791  1.00  0.00    -0.296 OA 
HETATM    9  C   UNL     1      -8.771  10.349  68.340  1.00  0.00    -0.129 C  
HETATM   10  C   UNL     1     -11.390  14.719  65.090  1.00  0.00    -0.379 A  
HETATM   11  C   UNL     1     -10.821  15.977  64.960  1.00  0.00    -0.421 A  
HETATM   12  C   UNL     1      -9.968   9.414  68.169  1.00  0.00    -0.175 C  
HETATM   13  C   UNL     1     -11.467  11.395  68.566  1.00  0.00    -0.297 C  
HETATM   14  H   UNL     1      -7.076  12.237  68.791  1.00  0.00     0.000 HD 
HETATM   15  O   UNL     1     -11.235  10.103  68.251  1.00  0.00    -0.255 OA 
HETATM   16  C   UNL     1     -10.225  15.922  67.313  1.00  0.00    -0.278 A  
HETATM   17  O   UNL     1     -12.625  11.764  68.715  1.00  0.00    -0.035 OA 
HETATM   18  C   UNL     1     -10.269  16.595  66.079  1.00  0.00    -0.366 A  
ENDROOT
BRANCH  10  19
HETATM   19  N   UNL     1     -11.866  14.033  63.926  1.00  0.00    -0.673 N  
HETATM   20  H   UNL     1     -11.981  14.531  63.043  1.00  0.00     0.000 HD 
BRANCH  19  21
HETATM   21  S   UNL     1     -12.242  12.358  64.038  1.00  0.00    -0.502 S  
HETATM   22  O   UNL     1     -12.730  12.130  65.387  1.00  0.00    -0.384 OA 
HETATM   23  O   UNL     1     -13.064  12.017  62.893  1.00  0.00    -0.331 OA 
BRANCH  21  24
HETATM   24  C   UNL     1     -10.703  11.473  63.848  1.00  0.00    -0.395 A  
HETATM   25  C   UNL     1      -8.864  10.432  62.673  1.00  0.00    -0.260 A  
HETATM   26  N   UNL     1     -10.017  11.444  64.976  1.00  0.00    -0.254 NA 
HETATM   27  F   UNL     1      -6.859   8.432  63.265  1.00  0.00    -0.085 F  
HETATM   28  C   UNL     1      -6.749   9.705  63.755  1.00  0.00    -0.112 C  
HETATM   29  F   UNL     1      -5.920  10.358  62.886  1.00  0.00    -0.114 F  
HETATM   30  C   UNL     1      -8.771  10.934  64.901  1.00  0.00    -0.067 A  
HETATM   31  F   UNL     1      -5.997   9.525  64.866  1.00  0.00    -0.063 F  
HETATM   32  C   UNL     1      -8.106  10.370  63.816  1.00  0.00    -0.104 A  
HETATM   33  C   UNL     1     -10.157  10.996  62.660  1.00  0.00    -0.009 A  
ENDBRANCH  21  24
ENDBRANCH  19  21
ENDBRANCH  10  19
BRANCH  12  34
HETATM   34  C   UNL     1      -9.844   8.478  69.381  1.00  0.00    -0.185 C  
BRANCH  34  35
HETATM   35  C   UNL     1     -10.192   9.224  70.689  1.00  0.00    -0.335 C  
BRANCH  35  36
HETATM   36  C   UNL     1     -11.560   8.881  71.147  1.00  0.00    -0.360 A  
HETATM   37  C   UNL     1     -13.646   9.460  72.174  1.00  0.00    -0.528 A  
HETATM   38  C   UNL     1     -12.390   9.849  71.705  1.00  0.00    -0.496 A  
HETATM   39  C   UNL     1     -13.221   7.184  71.489  1.00  0.00    -0.419 A  
HETATM   40  C   UNL     1     -14.060   8.141  72.061  1.00  0.00    -0.446 A  
HETATM   41  C   UNL     1     -11.968   7.558  71.027  1.00  0.00    -0.317 A  
ENDBRANCH  35  36
ENDBRANCH  34  35
ENDBRANCH  12  34
BRANCH  12  42
HETATM   42  C   UNL     1     -10.025   8.548  66.813  1.00  0.00    -0.351 C  
BRANCH  42  43
HETATM   43  C   UNL     1     -10.773   7.197  66.895  1.00  0.00    -0.363 C  
HETATM   44  C   UNL     1     -10.074   5.856  66.674  1.00  0.00    -0.229 C  
ENDBRANCH  42  43
ENDBRANCH  12  42
TORSDOF 8
ENDMDL
MODEL       19
REMARK 921   NORMALIZED FREE ENERGY PREDICTED BY IDOCK:   -7.43 KCAL/MOL
REMARK 922        TOTAL FREE ENERGY PREDICTED BY IDOCK:  -12.90 KCAL/MOL
REMARK 923 INTER-LIGAND FREE ENERGY PREDICTED BY IDOCK:  -10.90 KCAL/MOL
REMARK 924 INTRA-LIGAND FREE ENERGY PREDICTED BY IDOCK:   -2.00 KCAL/MOL
REMARK 927      BINDING AFFINITY PREDICTED BY RF-SCORE:    0.00 PKD
ROOT
HETATM    1  C   UNL     1     -11.754   8.896  71.433  1.00  0.00    -0.385 C  
HETATM    2  C   UNL     1     -11.943  10.215  70.637  1.00  0.00    -0.423 A  
HETATM    3  C   UNL     1     -13.047   8.082  71.644  1.00  0.00    -0.354 C  
HETATM    4  C   UNL     1     -10.564   8.003  70.954  1.00  0.00    -0.233 C  
HETATM    5  C   UNL     1     -14.141   8.783  72.432  1.00  0.00    -0.485 C  
HETATM    6  C   UNL     1     -11.758  10.306  69.245  1.00  0.00    -0.141 A  
HETATM    7  C   UNL     1      -9.320   8.061  71.477  1.00  0.00    -0.153 C  
HETATM    8  O   UNL     1      -8.993   8.949  72.490  1.00  0.00    -0.367 OA 
HETATM    9  C   UNL     1      -8.095   7.357  70.864  1.00  0.00    -0.105 C  
HETATM   10  C   UNL     1     -11.795  11.546  68.569  1.00  0.00    -0.297 A  
HETATM   11  C   UNL     1     -12.106  12.708  69.259  1.00  0.00    -0.218 A  
HETATM   12  C   UNL     1      -8.363   6.392  69.709  1.00  0.00    -0.127 C  
HETATM   13  C   UNL     1     -10.795   7.021  69.858  1.00  0.00    -0.251 C  
HETATM   14  H   UNL     1      -8.118   8.990  72.858  1.00  0.00     0.000 HD 
HETATM   15  O   UNL     1      -9.746   6.389  69.290  1.00  0.00    -0.136 OA 
HETATM   16  C   UNL     1     -12.289  11.412  71.305  1.00  0.00    -0.344 A  
HETATM   17  O   UNL     1     -11.919   6.788  69.434  1.00  0.00     0.014 OA 
HETATM   18  C   UNL     1     -12.387  12.637  70.621  1.00  0.00    -0.375 A  
ENDROOT
BRANCH  10  19
HETATM   19  N   UNL     1     -11.404  11.623  67.192  1.00  0.00    -0.312 N  
HETATM   20  H   UNL     1     -12.028  11.286  66.458  1.00  0.00     0.000 HD 
BRANCH  19  21
HETATM   21  S   UNL     1      -9.869  12.291  66.796  1.00  0.00    -0.213 S  
HETATM   22  O   UNL     1      -8.965  11.926  67.873  1.00  0.00    -0.165 OA 
HETATM   23  O   UNL     1      -9.570  11.917  65.427  1.00  0.00    -0.232 OA 
BRANCH  21  24
HETATM   24  C   UNL     1     -10.063  14.066  66.813  1.00  0.00    -0.264 A  
HETATM   25  C   UNL     1      -9.741  16.333  67.590  1.00  0.00    -0.234 A  
HETATM   26  N   UNL     1     -10.557  14.512  65.672  1.00  0.00    -0.313 NA 
HETATM   27  F   UNL     1     -11.135  18.856  67.337  1.00  0.00    -0.499 F  
HETATM   28  C   UNL     1     -10.393  18.356  66.302  1.00  0.00    -0.415 C  
HETATM   29  F   UNL     1      -9.177  18.974  66.396  1.00  0.00    -0.304 F  
HETATM   30  C   UNL     1     -10.598  15.852  65.526  1.00  0.00    -0.401 A  
HETATM   31  F   UNL     1     -10.978  18.925  65.223  1.00  0.00    -0.479 F  
HETATM   32  C   UNL     1     -10.251  16.855  66.426  1.00  0.00    -0.326 A  
HETATM   33  C   UNL     1      -9.620  14.943  67.798  1.00  0.00    -0.208 A  
ENDBRANCH  21  24
ENDBRANCH  19  21
ENDBRANCH  10  19
BRANCH  12  34
HETATM   34  C   UNL     1      -8.039   5.023  70.327  1.00  0.00    -0.085 C  
BRANCH  34  35
HETATM   35  C   UNL     1      -9.177   4.015  70.056  1.00  0.00    -0.215 C  
BRANCH  35  36
HETATM   36  C   UNL     1      -9.800   3.565  71.324  1.00  0.00    -0.205 A  
HETATM   37  C   UNL     1     -10.572   1.840  72.797  1.00  0.00    -0.235 A  
HETATM   38  C   UNL     1      -9.925   2.210  71.617  1.00  0.00    -0.182 A  
HETATM   39  C   UNL     1     -10.912   4.163  73.364  1.00  0.00    -0.350 A  
HETATM   40  C   UNL     1     -11.056   2.807  73.665  1.00  0.00    -0.320 A  
HETATM   41  C   UNL     1     -10.278   4.541  72.190  1.00  0.00    -0.256 A  
ENDBRANCH  35  36
ENDBRANCH  34  35
ENDBRANCH  12  34
BRANCH  12  42
HETATM   42  C   UNL     1      -7.498   6.606  68.368  1.00  0.00    -0.095 C  
BRANCH  42  43
HETATM   43  C   UNL     1      -7.489   8.036  67.780  1.00  0.00    -0.094 C  
HETATM   44  C   UNL     1      -8.574   8.540  66.829  1.00  0.00    -0.119 C  
ENDBRANCH  42  43
ENDBRANCH  12  42
TORSDOF 8
ENDMDL
MODEL       20
REMARK 921   NORMALIZED FREE ENERGY PREDICTED BY IDOCK:   -7.42 KCAL/MOL
REMARK 922        TOTAL FREE ENERGY PREDICTED BY IDOCK:  -12.88 KCAL/MOL
REMARK 923 INTER-LIGAND FREE ENERGY PREDICTED BY IDOCK:  -10.09 KCAL/MOL
REMARK 924 INTRA-LIGAND FREE ENERGY PREDICTED BY IDOCK:   -2.79 KCAL/MOL
REMARK 927      BINDING AFFINITY PREDICTED BY RF-SCORE:    0.00 PKD
ROOT
HETATM    1  C   UNL     1      -6.530  13.306  68.322  1.00  0.00    -0.099 C  
HETATM    2  C   UNL     1      -6.462  14.768  67.806  1.00  0.00    -0.183 A  
HETATM    3  C   UNL     1      -6.856  13.170  69.824  1.00  0.00     0.243 C  
HETATM    4  C   UNL     1      -7.381  12.335  67.442  1.00  0.00    -0.151 C  
HETATM    5  C   UNL     1      -5.852  13.804  70.773  1.00  0.00    -0.188 C  
HETATM    6  C   UNL     1      -7.559  15.428  67.222  1.00  0.00    -0.246 A  
HETATM    7  C   UNL     1      -6.869  11.568  66.455  1.00  0.00     0.061 C  
HETATM    8  O   UNL     1      -5.522  11.598  66.129  1.00  0.00    -0.436 OA 
HETATM    9  C   UNL     1      -7.725  10.788  65.439  1.00  0.00     0.022 C  
HETATM   10  C   UNL     1      -7.431  16.705  66.631  1.00  0.00    -0.276 A  
HETATM   11  C   UNL     1      -6.223  17.382  66.689  1.00  0.00    -0.239 A  
HETATM   12  C   UNL     1      -9.230  10.744  65.700  1.00  0.00    -0.199 C  
HETATM   13  C   UNL     1      -8.846  12.232  67.692  1.00  0.00    -0.175 C  
HETATM   14  H   UNL     1      -5.162  11.059  65.435  1.00  0.00     0.000 HD 
HETATM   15  O   UNL     1      -9.631  11.563  66.821  1.00  0.00    -0.181 OA 
HETATM   16  C   UNL     1      -5.254  15.498  67.876  1.00  0.00    -0.131 A  
HETATM   17  O   UNL     1      -9.369  12.766  68.661  1.00  0.00    -0.116 OA 
HETATM   18  C   UNL     1      -5.142  16.794  67.342  1.00  0.00    -0.153 A  
ENDROOT
BRANCH  10  19
HETATM   19  N   UNL     1      -8.515  17.256  65.873  1.00  0.00    -0.082 N  
HETATM   20  H   UNL     1      -8.577  17.095  64.867  1.00  0.00     0.000 HD 
BRANCH  19  21
HETATM   21  S   UNL     1      -9.712  18.190  66.683  1.00  0.00    -0.349 S  
HETATM   22  O   UNL     1      -9.000  19.150  67.510  1.00  0.00    -0.289 OA 
HETATM   23  O   UNL     1     -10.663  18.642  65.686  1.00  0.00    -0.555 OA 
BRANCH  21  24
HETATM   24  C   UNL     1     -10.590  17.073  67.763  1.00  0.00    -0.350 A  
HETATM   25  C   UNL     1     -11.793  15.072  68.395  1.00  0.00    -0.298 A  
HETATM   26  N   UNL     1     -10.407  17.381  69.035  1.00  0.00    -0.349 NA 
HETATM   27  F   UNL     1     -13.622  14.300  70.499  1.00  0.00    -0.265 F  
HETATM   28  C   UNL     1     -12.281  14.419  70.742  1.00  0.00    -0.343 C  
HETATM   29  F   UNL     1     -11.780  13.152  70.637  1.00  0.00    -0.325 F  
HETATM   30  C   UNL     1     -10.901  16.507  69.935  1.00  0.00    -0.283 A  
HETATM   31  F   UNL     1     -12.248  14.686  72.068  1.00  0.00    -0.354 F  
HETATM   32  C   UNL     1     -11.639  15.344  69.732  1.00  0.00    -0.339 A  
HETATM   33  C   UNL     1     -11.262  15.912  67.393  1.00  0.00    -0.134 A  
ENDBRANCH  21  24
ENDBRANCH  19  21
ENDBRANCH  10  19
BRANCH  12  34
HETATM   34  C   UNL     1      -9.469   9.270  66.064  1.00  0.00    -0.311 C  
BRANCH  34  35
HETATM   35  C   UNL     1     -10.652   9.132  67.048  1.00  0.00    -0.266 C  
BRANCH  35  36
HETATM   36  C   UNL     1     -10.172   9.063  68.449  1.00  0.00    -0.232 A  
HETATM   37  C   UNL     1     -10.443   9.477  70.793  1.00  0.00    -0.384 A  
HETATM   38  C   UNL     1     -10.966   9.510  69.500  1.00  0.00    -0.217 A  
HETATM   39  C   UNL     1      -8.385   8.530  69.958  1.00  0.00    -0.123 A  
HETATM   40  C   UNL     1      -9.166   8.986  71.021  1.00  0.00    -0.331 A  
HETATM   41  C   UNL     1      -8.892   8.565  68.669  1.00  0.00    -0.136 A  
ENDBRANCH  35  36
ENDBRANCH  34  35
ENDBRANCH  12  34
BRANCH  12  42
HETATM   42  C   UNL     1     -10.192  11.168  64.479  1.00  0.00    -0.383 C  
BRANCH  42  43
HETATM   43  C   UNL     1     -11.330  12.158  64.817  1.00  0.00    -0.378 C  
HETATM   44  C   UNL     1     -12.192  12.817  63.741  1.00  0.00    -0.572 C  
ENDBRANCH  42  43
ENDBRANCH  12  42
TORSDOF 8
ENDMDL
MODEL       21
REMARK 921   NORMALIZED FREE ENERGY PREDICTED BY IDOCK:   -7.39 KCAL/MOL
REMARK 922        TOTAL FREE ENERGY PREDICTED BY IDOCK:  -12.84 KCAL/MOL
REMARK 923 INTER-LIGAND FREE ENERGY PREDICTED BY IDOCK:  -10.64 KCAL/MOL
REMARK 924 INTRA-LIGAND FREE ENERGY PREDICTED BY IDOCK:   -2.19 KCAL/MOL
REMARK 927      BINDING AFFINITY PREDICTED BY RF-SCORE:    0.00 PKD
ROOT
HETATM    1  C   UNL     1     -11.619  12.471  67.221  1.00  0.00    -0.434 C  
HETATM    2  C   UNL     1     -10.935  13.584  68.060  1.00  0.00    -0.271 A  
HETATM    3  C   UNL     1     -11.900  12.854  65.754  1.00  0.00    -0.469 C  
HETATM    4  C   UNL     1     -10.968  11.056  67.348  1.00  0.00    -0.349 C  
HETATM    5  C   UNL     1     -12.836  14.034  65.553  1.00  0.00    -0.453 C  
HETATM    6  C   UNL     1      -9.541  13.671  68.230  1.00  0.00    -0.215 A  
HETATM    7  C   UNL     1     -11.369  10.118  68.234  1.00  0.00    -0.114 C  
HETATM    8  O   UNL     1     -12.402  10.351  69.128  1.00  0.00    -0.702 OA 
HETATM    9  C   UNL     1     -10.593   8.819  68.523  1.00  0.00    -0.171 C  
HETATM   10  C   UNL     1      -8.956  14.606  69.114  1.00  0.00    -0.025 A  
HETATM   11  C   UNL     1      -9.749  15.528  69.778  1.00  0.00    -0.247 A  
HETATM   12  C   UNL     1      -9.408   8.508  67.609  1.00  0.00    -0.137 C  
HETATM   13  C   UNL     1      -9.836  10.700  66.448  1.00  0.00    -0.211 C  
HETATM   14  H   UNL     1     -12.685   9.691  69.751  1.00  0.00     0.000 HD 
HETATM   15  O   UNL     1      -9.127   9.572  66.673  1.00  0.00    -0.142 OA 
HETATM   16  C   UNL     1     -11.712  14.558  68.727  1.00  0.00    -0.362 A  
HETATM   17  O   UNL     1      -9.509  11.421  65.515  1.00  0.00    -0.223 OA 
HETATM   18  C   UNL     1     -11.125  15.528  69.559  1.00  0.00    -0.286 A  
ENDROOT
BRANCH  10  19
HETATM   19  N   UNL     1      -7.556  14.531  69.411  1.00  0.00    -0.326 N  
HETATM   20  H   UNL     1      -7.213  13.886  70.123  1.00  0.00     0.000 HD 
BRANCH  19  21
HETATM   21  S   UNL     1      -6.463  15.543  68.549  1.00  0.00    -0.108 S  
HETATM   22  O   UNL     1      -5.572  16.128  69.536  1.00  0.00    -0.121 OA 
HETATM   23  O   UNL     1      -5.929  14.769  67.445  1.00  0.00    -0.339 OA 
BRANCH  21  24
HETATM   24  C   UNL     1      -7.438  16.857  67.833  1.00  0.00    -0.169 A  
HETATM   25  C   UNL     1      -9.031  17.882  66.330  1.00  0.00    -0.247 A  
HETATM   26  N   UNL     1      -7.475  17.917  68.620  1.00  0.00    -0.273 NA 
HETATM   27  F   UNL     1      -9.592  20.553  65.373  1.00  0.00    -0.247 F  
HETATM   28  C   UNL     1      -9.964  20.165  66.631  1.00  0.00    -0.463 C  
HETATM   29  F   UNL     1     -11.274  19.791  66.524  1.00  0.00    -0.494 F  
HETATM   30  C   UNL     1      -8.310  18.907  68.243  1.00  0.00    -0.330 A  
HETATM   31  F   UNL     1     -10.002  21.341  67.299  1.00  0.00    -0.560 F  
HETATM   32  C   UNL     1      -9.106  19.013  67.106  1.00  0.00    -0.311 A  
HETATM   33  C   UNL     1      -8.218  16.784  66.683  1.00  0.00    -0.296 A  
ENDBRANCH  21  24
ENDBRANCH  19  21
ENDBRANCH  10  19
BRANCH  12  34
HETATM   34  C   UNL     1      -9.899   7.284  66.821  1.00  0.00    -0.281 C  
BRANCH  34  35
HETATM   35  C   UNL     1      -8.748   6.666  65.995  1.00  0.00    -0.155 C  
BRANCH  35  36
HETATM   36  C   UNL     1      -8.470   5.276  66.429  1.00  0.00    -0.113 A  
HETATM   37  C   UNL     1      -6.987   3.419  66.733  1.00  0.00    -0.054 A  
HETATM   38  C   UNL     1      -7.183   4.752  66.367  1.00  0.00    -0.077 A  
HETATM   39  C   UNL     1      -9.337   3.191  67.239  1.00  0.00    -0.217 A  
HETATM   40  C   UNL     1      -8.053   2.648  67.171  1.00  0.00    -0.075 A  
HETATM   41  C   UNL     1      -9.544   4.511  66.870  1.00  0.00    -0.208 A  
ENDBRANCH  35  36
ENDBRANCH  34  35
ENDBRANCH  12  34
BRANCH  12  42
HETATM   42  C   UNL     1      -8.006   8.172  68.326  1.00  0.00    -0.123 C  
BRANCH  42  43
HETATM   43  C   UNL     1      -8.093   7.516  69.724  1.00  0.00    -0.126 C  
HETATM   44  C   UNL     1      -8.065   6.001  69.923  1.00  0.00    -0.117 C  
ENDBRANCH  42  43
ENDBRANCH  12  42
TORSDOF 8
ENDMDL
MODEL       22
REMARK 921   NORMALIZED FREE ENERGY PREDICTED BY IDOCK:   -7.38 KCAL/MOL
REMARK 922        TOTAL FREE ENERGY PREDICTED BY IDOCK:  -12.83 KCAL/MOL
REMARK 923 INTER-LIGAND FREE ENERGY PREDICTED BY IDOCK:  -10.48 KCAL/MOL
REMARK 924 INTRA-LIGAND FREE ENERGY PREDICTED BY IDOCK:   -2.34 KCAL/MOL
REMARK 927      BINDING AFFINITY PREDICTED BY RF-SCORE:    0.00 PKD
ROOT
HETATM    1  C   UNL     1     -11.051  11.632  65.876  1.00  0.00    -0.320 C  
HETATM    2  C   UNL     1     -10.726  13.142  66.027  1.00  0.00    -0.288 A  
HETATM    3  C   UNL     1     -10.769  11.052  64.475  1.00  0.00    -0.335 C  
HETATM    4  C   UNL     1     -10.492  10.720  67.016  1.00  0.00    -0.297 C  
HETATM    5  C   UNL     1     -11.565  11.671  63.337  1.00  0.00    -0.340 C  
HETATM    6  C   UNL     1      -9.494  13.619  66.511  1.00  0.00    -0.270 A  
HETATM    7  C   UNL     1     -11.193  10.380  68.120  1.00  0.00    -0.268 C  
HETATM    8  O   UNL     1     -12.483  10.835  68.337  1.00  0.00    -0.647 OA 
HETATM    9  C   UNL     1     -10.578   9.679  69.347  1.00  0.00    -0.243 C  
HETATM   10  C   UNL     1      -9.277  14.990  66.774  1.00  0.00    -0.257 A  
HETATM   11  C   UNL     1     -10.260  15.921  66.476  1.00  0.00    -0.297 A  
HETATM   12  C   UNL     1      -9.139   9.184  69.206  1.00  0.00    -0.146 C  
HETATM   13  C   UNL     1      -9.107  10.184  66.898  1.00  0.00    -0.142 C  
HETATM   14  H   UNL     1     -12.976  10.596  69.113  1.00  0.00     0.000 HD 
HETATM   15  O   UNL     1      -8.532   9.570  67.953  1.00  0.00    -0.118 OA 
HETATM   16  C   UNL     1     -11.695  14.119  65.705  1.00  0.00    -0.357 A  
HETATM   17  O   UNL     1      -8.459  10.309  65.867  1.00  0.00    -0.139 OA 
HETATM   18  C   UNL     1     -11.457  15.490  65.909  1.00  0.00     0.082 A  
ENDROOT
BRANCH  10  19
HETATM   19  N   UNL     1      -8.087  15.410  67.452  1.00  0.00    -0.164 N  
HETATM   20  H   UNL     1      -7.176  15.325  66.999  1.00  0.00     0.000 HD 
BRANCH  19  21
HETATM   21  S   UNL     1      -8.214  16.058  69.041  1.00  0.00    -0.238 S  
HETATM   22  O   UNL     1      -7.183  15.414  69.837  1.00  0.00    -0.165 OA 
HETATM   23  O   UNL     1      -8.254  17.503  68.921  1.00  0.00    -0.253 OA 
BRANCH  21  24
HETATM   24  C   UNL     1      -9.803  15.550  69.676  1.00  0.00    -0.278 A  
HETATM   25  C   UNL     1     -11.542  14.011  70.351  1.00  0.00    -0.206 A  
HETATM   26  N   UNL     1     -10.414  16.538  70.304  1.00  0.00     0.027 NA 
HETATM   27  F   UNL     1     -14.407  14.121  70.737  1.00  0.00    -0.042 F  
HETATM   28  C   UNL     1     -13.552  14.663  71.658  1.00  0.00    -0.393 C  
HETATM   29  F   UNL     1     -13.404  13.705  72.622  1.00  0.00    -0.531 F  
HETATM   30  C   UNL     1     -11.551  16.217  70.953  1.00  0.00    -0.371 A  
HETATM   31  F   UNL     1     -14.318  15.613  72.242  1.00  0.00    -0.585 F  
HETATM   32  C   UNL     1     -12.225  15.000  71.016  1.00  0.00    -0.386 A  
HETATM   33  C   UNL     1     -10.321  14.258  69.690  1.00  0.00     0.184 A  
ENDBRANCH  21  24
ENDBRANCH  19  21
ENDBRANCH  10  19
BRANCH  12  34
HETATM   34  C   UNL     1      -9.303   7.656  69.217  1.00  0.00    -0.148 C  
BRANCH  34  35
HETATM   35  C   UNL     1     -10.732   7.260  69.651  1.00  0.00    -0.249 C  
BRANCH  35  36
HETATM   36  C   UNL     1     -10.695   6.247  70.733  1.00  0.00    -0.312 A  
HETATM   37  C   UNL     1      -9.836   4.234  71.709  1.00  0.00    -0.250 A  
HETATM   38  C   UNL     1      -9.788   5.193  70.695  1.00  0.00    -0.274 A  
HETATM   39  C   UNL     1     -11.651   5.419  72.773  1.00  0.00    -0.293 A  
HETATM   40  C   UNL     1     -10.754   4.350  72.741  1.00  0.00    -0.235 A  
HETATM   41  C   UNL     1     -11.617   6.373  71.766  1.00  0.00    -0.367 A  
ENDBRANCH  35  36
ENDBRANCH  34  35
ENDBRANCH  12  34
BRANCH  12  42
HETATM   42  C   UNL     1      -8.102   9.631  70.354  1.00  0.00    -0.198 C  
BRANCH  42  43
HETATM   43  C   UNL     1      -7.763   8.566  71.423  1.00  0.00    -0.131 C  
HETATM   44  C   UNL     1      -8.595   8.382  72.691  1.00  0.00    -0.241 C  
ENDBRANCH  42  43
ENDBRANCH  12  42
TORSDOF 8
ENDMDL
MODEL       23
REMARK 921   NORMALIZED FREE ENERGY PREDICTED BY IDOCK:   -7.38 KCAL/MOL
REMARK 922        TOTAL FREE ENERGY PREDICTED BY IDOCK:  -12.82 KCAL/MOL
REMARK 923 INTER-LIGAND FREE ENERGY PREDICTED BY IDOCK:  -10.55 KCAL/MOL
REMARK 924 INTRA-LIGAND FREE ENERGY PREDICTED BY IDOCK:   -2.27 KCAL/MOL
REMARK 927      BINDING AFFINITY PREDICTED BY RF-SCORE:    0.00 PKD
ROOT
HETATM    1  C   UNL     1     -11.135  12.897  64.521  1.00  0.00    -0.373 C  
HETATM    2  C   UNL     1     -10.077  11.793  64.258  1.00  0.00    -0.326 A  
HETATM    3  C   UNL     1     -12.595  12.399  64.528  1.00  0.00    -0.477 C  
HETATM    4  C   UNL     1     -10.825  13.833  65.734  1.00  0.00    -0.277 C  
HETATM    5  C   UNL     1     -13.083  11.784  63.226  1.00  0.00     0.095 C  
HETATM    6  C   UNL     1      -9.418  11.098  65.289  1.00  0.00    -0.257 A  
HETATM    7  C   UNL     1     -10.167  15.008  65.630  1.00  0.00    -0.360 C  
HETATM    8  O   UNL     1      -9.695  15.477  64.414  1.00  0.00     0.174 OA 
HETATM    9  C   UNL     1      -9.658  15.819  66.836  1.00  0.00    -0.243 C  
HETATM   10  C   UNL     1      -8.358  10.203  65.025  1.00  0.00    -0.155 A  
HETATM   11  C   UNL     1      -7.994   9.920  63.718  1.00  0.00    -0.148 A  
HETATM   12  C   UNL     1     -10.097  15.342  68.220  1.00  0.00    -0.225 C  
HETATM   13  C   UNL     1     -11.272  13.422  67.094  1.00  0.00    -0.302 C  
HETATM   14  H   UNL     1      -9.233  16.304  64.341  1.00  0.00     0.000 HD 
HETATM   15  O   UNL     1     -10.841  14.104  68.177  1.00  0.00    -0.239 OA 
HETATM   16  C   UNL     1      -9.703  11.458  62.937  1.00  0.00    -0.344 A  
HETATM   17  O   UNL     1     -12.006  12.458  67.262  1.00  0.00    -0.516 OA 
HETATM   18  C   UNL     1      -8.689  10.520  62.671  1.00  0.00    -0.254 A  
ENDROOT
BRANCH  10  19
HETATM   19  N   UNL     1      -7.583   9.671  66.107  1.00  0.00    -0.100 N  
HETATM   20  H   UNL     1      -6.783  10.188  66.473  1.00  0.00     0.000 HD 
BRANCH  19  21
HETATM   21  S   UNL     1      -8.020   8.148  66.779  1.00  0.00    -0.104 S  
HETATM   22  O   UNL     1      -8.773   7.443  65.756  1.00  0.00    -0.152 OA 
HETATM   23  O   UNL     1      -6.821   7.560  67.344  1.00  0.00    -0.067 OA 
BRANCH  21  24
HETATM   24  C   UNL     1      -9.121   8.487  68.143  1.00  0.00    -0.138 A  
HETATM   25  C   UNL     1     -10.480   9.828  69.627  1.00  0.00    -0.263 A  
HETATM   26  N   UNL     1      -9.698   7.385  68.586  1.00  0.00    -0.150 NA 
HETATM   27  F   UNL     1     -11.561   9.562  72.297  1.00  0.00    -0.364 F  
HETATM   28  C   UNL     1     -12.121   8.895  71.242  1.00  0.00    -0.306 C  
HETATM   29  F   UNL     1     -13.169   9.673  70.836  1.00  0.00    -0.369 F  
HETATM   30  C   UNL     1     -10.663   7.552  69.513  1.00  0.00    -0.217 A  
HETATM   31  F   UNL     1     -12.703   7.833  71.845  1.00  0.00    -0.304 F  
HETATM   32  C   UNL     1     -11.112   8.717  70.130  1.00  0.00    -0.214 A  
HETATM   33  C   UNL     1      -9.495   9.740  68.620  1.00  0.00    -0.151 A  
ENDBRANCH  21  24
ENDBRANCH  19  21
ENDBRANCH  10  19
BRANCH  12  34
HETATM   34  C   UNL     1     -11.043  16.462  68.682  1.00  0.00    -0.352 C  
BRANCH  34  35
HETATM   35  C   UNL     1     -10.255  17.591  69.383  1.00  0.00    -0.089 C  
BRANCH  35  36
HETATM   36  C   UNL     1      -9.729  18.563  68.393  1.00  0.00    -0.395 A  
HETATM   37  C   UNL     1     -10.020  20.041  66.530  1.00  0.00    -0.603 A  
HETATM   38  C   UNL     1     -10.576  19.179  67.478  1.00  0.00    -0.567 A  
HETATM   39  C   UNL     1      -7.820  19.673  67.456  1.00  0.00    -0.309 A  
HETATM   40  C   UNL     1      -8.656  20.290  66.524  1.00  0.00    -0.269 A  
HETATM   41  C   UNL     1      -8.361  18.810  68.397  1.00  0.00    -0.373 A  
ENDBRANCH  35  36
ENDBRANCH  34  35
ENDBRANCH  12  34
BRANCH  12  42
HETATM   42  C   UNL     1      -8.937  15.120  69.315  1.00  0.00    -0.202 C  
BRANCH  42  43
HETATM   43  C   UNL     1      -7.618  14.501  68.798  1.00  0.00    -0.131 C  
HETATM   44  C   UNL     1      -7.542  13.083  68.233  1.00  0.00    -0.135 C  
ENDBRANCH  42  43
ENDBRANCH  12  42
TORSDOF 8
ENDMDL
MODEL       24
REMARK 921   NORMALIZED FREE ENERGY PREDICTED BY IDOCK:   -7.34 KCAL/MOL
REMARK 922        TOTAL FREE ENERGY PREDICTED BY IDOCK:  -12.77 KCAL/MOL
REMARK 923 INTER-LIGAND FREE ENERGY PREDICTED BY IDOCK:  -11.49 KCAL/MOL
REMARK 924 INTRA-LIGAND FREE ENERGY PREDICTED BY IDOCK:   -1.28 KCAL/MOL
REMARK 927      BINDING AFFINITY PREDICTED BY RF-SCORE:    0.00 PKD
ROOT
HETATM    1  C   UNL     1      -9.079   8.491  66.399  1.00  0.00    -0.229 C  
HETATM    2  C   UNL     1      -9.801   9.781  65.926  1.00  0.00    -0.352 A  
HETATM    3  C   UNL     1      -7.541   8.600  66.456  1.00  0.00    -0.088 C  
HETATM    4  C   UNL     1      -9.673   7.837  67.688  1.00  0.00    -0.193 C  
HETATM    5  C   UNL     1      -6.855   8.890  65.131  1.00  0.00    -0.076 C  
HETATM    6  C   UNL     1     -10.298  10.753  66.815  1.00  0.00    -0.294 A  
HETATM    7  C   UNL     1     -10.609   6.863  67.676  1.00  0.00    -0.261 C  
HETATM    8  O   UNL     1     -11.136   6.370  66.493  1.00  0.00    -0.658 OA 
HETATM    9  C   UNL     1     -11.363   6.379  68.929  1.00  0.00    -0.292 C  
HETATM   10  C   UNL     1     -11.076  11.843  66.366  1.00  0.00    -0.309 A  
HETATM   11  C   UNL     1     -11.299  12.030  65.011  1.00  0.00    -0.365 A  
HETATM   12  C   UNL     1     -10.872   6.911  70.275  1.00  0.00    -0.257 C  
HETATM   13  C   UNL     1      -9.192   8.301  69.019  1.00  0.00    -0.147 C  
HETATM   14  H   UNL     1     -11.795   5.685  66.485  1.00  0.00     0.000 HD 
HETATM   15  O   UNL     1      -9.830   7.903  70.141  1.00  0.00    -0.183 OA 
HETATM   16  C   UNL     1     -10.019  10.018  64.551  1.00  0.00    -0.151 A  
HETATM   17  O   UNL     1      -8.239   9.062  69.126  1.00  0.00    -0.116 OA 
HETATM   18  C   UNL     1     -10.741  11.137  64.099  1.00  0.00    -0.415 A  
ENDROOT
BRANCH  10  19
HETATM   19  N   UNL     1     -11.730  12.695  67.315  1.00  0.00    -0.365 N  
HETATM   20  H   UNL     1     -12.747  12.784  67.315  1.00  0.00     0.000 HD 
BRANCH  19  21
HETATM   21  S   UNL     1     -10.777  13.565  68.454  1.00  0.00    -0.264 S  
HETATM   22  O   UNL     1     -11.597  13.731  69.642  1.00  0.00    -0.271 OA 
HETATM   23  O   UNL     1      -9.488  12.907  68.538  1.00  0.00    -0.190 OA 
BRANCH  21  24
HETATM   24  C   UNL     1     -10.486  15.180  67.751  1.00  0.00    -0.247 A  
HETATM   25  C   UNL     1     -10.248  16.839  66.008  1.00  0.00    -0.361 A  
HETATM   26  N   UNL     1     -10.576  16.130  68.663  1.00  0.00    -0.266 NA 
HETATM   27  F   UNL     1      -8.991  19.430  65.734  1.00  0.00    -0.285 F  
HETATM   28  C   UNL     1     -10.170  19.289  66.414  1.00  0.00    -0.449 C  
HETATM   29  F   UNL     1     -11.148  19.607  65.513  1.00  0.00    -0.501 F  
HETATM   30  C   UNL     1     -10.525  17.398  68.207  1.00  0.00    -0.385 A  
HETATM   31  F   UNL     1     -10.142  20.339  67.266  1.00  0.00    -0.504 F  
HETATM   32  C   UNL     1     -10.329  17.870  66.912  1.00  0.00    -0.358 A  
HETATM   33  C   UNL     1     -10.342  15.487  66.401  1.00  0.00    -0.303 A  
ENDBRANCH  21  24
ENDBRANCH  19  21
ENDBRANCH  10  19
BRANCH  12  34
HETATM   34  C   UNL     1     -10.272   5.662  70.937  1.00  0.00    -0.286 C  
BRANCH  34  35
HETATM   35  C   UNL     1      -8.775   5.516  70.579  1.00  0.00    -0.140 C  
BRANCH  35  36
HETATM   36  C   UNL     1      -8.549   4.328  69.721  1.00  0.00    -0.100 A  
HETATM   37  C   UNL     1      -7.475   3.230  67.882  1.00  0.00    -0.054 A  
HETATM   38  C   UNL     1      -7.607   4.355  68.698  1.00  0.00    -0.063 A  
HETATM   39  C   UNL     1      -9.185   2.087  69.147  1.00  0.00    -0.193 A  
HETATM   40  C   UNL     1      -8.253   2.104  68.109  1.00  0.00    -0.072 A  
HETATM   41  C   UNL     1      -9.330   3.203  69.958  1.00  0.00    -0.226 A  
ENDBRANCH  35  36
ENDBRANCH  34  35
ENDBRANCH  12  34
BRANCH  12  42
HETATM   42  C   UNL     1     -11.980   7.565  71.244  1.00  0.00    -0.333 C  
BRANCH  42  43
HETATM   43  C   UNL     1     -11.901   9.097  71.439  1.00  0.00    -0.415 C  
HETATM   44  C   UNL     1     -12.981   9.889  72.174  1.00  0.00    -0.471 C  
ENDBRANCH  42  43
ENDBRANCH  12  42
TORSDOF 8
ENDMDL
MODEL       25
REMARK 921   NORMALIZED FREE ENERGY PREDICTED BY IDOCK:   -7.34 KCAL/MOL
REMARK 922        TOTAL FREE ENERGY PREDICTED BY IDOCK:  -12.76 KCAL/MOL
REMARK 923 INTER-LIGAND FREE ENERGY PREDICTED BY IDOCK:  -10.88 KCAL/MOL
REMARK 924 INTRA-LIGAND FREE ENERGY PREDICTED BY IDOCK:   -1.89 KCAL/MOL
REMARK 927      BINDING AFFINITY PREDICTED BY RF-SCORE:    0.00 PKD
ROOT
HETATM    1  C   UNL     1     -10.128   8.973  69.888  1.00  0.00    -0.213 C  
HETATM    2  C   UNL     1      -9.988   7.867  68.808  1.00  0.00    -0.194 A  
HETATM    3  C   UNL     1      -9.170   8.825  71.088  1.00  0.00    -0.299 C  
HETATM    4  C   UNL     1     -10.160  10.434  69.335  1.00  0.00    -0.251 C  
HETATM    5  C   UNL     1      -9.333   7.552  71.903  1.00  0.00    -0.171 C  
HETATM    6  C   UNL     1      -9.174   8.004  67.669  1.00  0.00    -0.145 A  
HETATM    7  C   UNL     1     -11.296  11.102  69.035  1.00  0.00    -0.276 C  
HETATM    8  O   UNL     1     -12.546  10.523  69.185  1.00  0.00    -0.740 OA 
HETATM    9  C   UNL     1     -11.331  12.444  68.279  1.00  0.00    -0.332 C  
HETATM   10  C   UNL     1      -9.176   7.044  66.632  1.00  0.00    -0.158 A  
HETATM   11  C   UNL     1      -9.927   5.886  66.756  1.00  0.00    -0.212 A  
HETATM   12  C   UNL     1      -9.988  13.129  68.032  1.00  0.00    -0.233 C  
HETATM   13  C   UNL     1      -8.873  11.151  69.117  1.00  0.00     0.073 C  
HETATM   14  H   UNL     1     -13.345  10.993  68.975  1.00  0.00     0.000 HD 
HETATM   15  O   UNL     1      -8.862  12.327  68.453  1.00  0.00    -0.184 OA 
HETATM   16  C   UNL     1     -10.716   6.661  68.918  1.00  0.00    -0.304 A  
HETATM   17  O   UNL     1      -7.809  10.688  69.505  1.00  0.00    -0.144 OA 
HETATM   18  C   UNL     1     -10.671   5.676  67.915  1.00  0.00    -0.241 A  
ENDROOT
BRANCH  10  19
HETATM   19  N   UNL     1      -8.491   7.316  65.403  1.00  0.00    -0.260 N  
HETATM   20  H   UNL     1      -8.448   6.610  64.668  1.00  0.00     0.000 HD 
BRANCH  19  21
HETATM   21  S   UNL     1      -7.742   8.850  65.185  1.00  0.00    -0.106 S  
HETATM   22  O   UNL     1      -7.284   9.279  66.495  1.00  0.00    -0.084 OA 
HETATM   23  O   UNL     1      -6.806   8.726  64.084  1.00  0.00    -0.081 OA 
BRANCH  21  24
HETATM   24  C   UNL     1      -9.021   9.973  64.649  1.00  0.00    -0.214 A  
HETATM   25  C   UNL     1     -10.358  11.241  63.082  1.00  0.00    -0.338 A  
HETATM   26  N   UNL     1      -9.908  10.191  65.603  1.00  0.00    -0.262 NA 
HETATM   27  F   UNL     1     -12.043  13.590  63.182  1.00  0.00    -0.547 F  
HETATM   28  C   UNL     1     -12.482  12.389  63.668  1.00  0.00    -0.508 C  
HETATM   29  F   UNL     1     -13.218  11.836  62.659  1.00  0.00    -0.258 F  
HETATM   30  C   UNL     1     -10.997  10.903  65.251  1.00  0.00     0.037 A  
HETATM   31  F   UNL     1     -13.400  12.765  64.588  1.00  0.00    -0.305 F  
HETATM   32  C   UNL     1     -11.311  11.505  64.035  1.00  0.00    -0.380 A  
HETATM   33  C   UNL     1      -9.215  10.463  63.360  1.00  0.00    -0.311 A  
ENDBRANCH  21  24
ENDBRANCH  19  21
ENDBRANCH  10  19
BRANCH  12  34
HETATM   34  C   UNL     1     -10.067  14.369  68.936  1.00  0.00    -0.202 C  
BRANCH  34  35
HETATM   35  C   UNL     1      -8.697  15.079  69.015  1.00  0.00    -0.203 C  
BRANCH  35  36
HETATM   36  C   UNL     1      -8.833  16.526  68.720  1.00  0.00    -0.255 A  
HETATM   37  C   UNL     1      -7.892  18.684  68.276  1.00  0.00    -0.331 A  
HETATM   38  C   UNL     1      -7.711  17.317  68.490  1.00  0.00    -0.261 A  
HETATM   39  C   UNL     1     -10.282  18.424  68.491  1.00  0.00    -0.394 A  
HETATM   40  C   UNL     1      -9.165  19.232  68.270  1.00  0.00    -0.394 A  
HETATM   41  C   UNL     1     -10.114  17.066  68.713  1.00  0.00    -0.307 A  
ENDBRANCH  35  36
ENDBRANCH  34  35
ENDBRANCH  12  34
BRANCH  12  42
HETATM   42  C   UNL     1      -9.668  13.576  66.518  1.00  0.00    -0.287 C  
BRANCH  42  43
HETATM   43  C   UNL     1     -10.652  14.583  65.880  1.00  0.00    -0.315 C  
HETATM   44  C   UNL     1     -10.195  15.913  65.284  1.00  0.00    -0.284 C  
ENDBRANCH  42  43
ENDBRANCH  12  42
TORSDOF 8
ENDMDL
MODEL       26
REMARK 921   NORMALIZED FREE ENERGY PREDICTED BY IDOCK:   -7.26 KCAL/MOL
REMARK 922        TOTAL FREE ENERGY PREDICTED BY IDOCK:  -12.65 KCAL/MOL
REMARK 923 INTER-LIGAND FREE ENERGY PREDICTED BY IDOCK:   -9.80 KCAL/MOL
REMARK 924 INTRA-LIGAND FREE ENERGY PREDICTED BY IDOCK:   -2.84 KCAL/MOL
REMARK 927      BINDING AFFINITY PREDICTED BY RF-SCORE:    0.00 PKD
ROOT
HETATM    1  C   UNL     1      -8.820   5.603  66.107  1.00  0.00    -0.142 C  
HETATM    2  C   UNL     1      -8.111   4.882  67.285  1.00  0.00    -0.106 A  
HETATM    3  C   UNL     1     -10.026   4.842  65.521  1.00  0.00    -0.157 C  
HETATM    4  C   UNL     1      -9.137   7.113  66.354  1.00  0.00    -0.189 C  
HETATM    5  C   UNL     1      -9.715   3.478  64.927  1.00  0.00    -0.157 C  
HETATM    6  C   UNL     1      -8.420   5.129  68.635  1.00  0.00    -0.088 A  
HETATM    7  C   UNL     1      -8.318   8.124  65.992  1.00  0.00    -0.131 C  
HETATM    8  O   UNL     1      -7.099   7.893  65.374  1.00  0.00    -0.058 OA 
HETATM    9  C   UNL     1      -8.510   9.588  66.433  1.00  0.00    -0.131 C  
HETATM   10  C   UNL     1      -7.663   4.568  69.688  1.00  0.00    -0.054 A  
HETATM   11  C   UNL     1      -6.636   3.678  69.410  1.00  0.00    -0.034 A  
HETATM   12  C   UNL     1      -9.812   9.920  67.162  1.00  0.00    -0.186 C  
HETATM   13  C   UNL     1     -10.414   7.481  67.027  1.00  0.00    -0.338 C  
HETATM   14  H   UNL     1      -6.523   8.604  65.120  1.00  0.00     0.000 HD 
HETATM   15  O   UNL     1     -10.618   8.752  67.434  1.00  0.00    -0.279 OA 
HETATM   16  C   UNL     1      -7.080   3.947  67.038  1.00  0.00    -0.063 A  
HETATM   17  O   UNL     1     -11.284   6.649  67.247  1.00  0.00    -0.366 OA 
HETATM   18  C   UNL     1      -6.366   3.340  68.086  1.00  0.00    -0.033 A  
ENDROOT
BRANCH  10  19
HETATM   19  N   UNL     1      -7.880   5.000  71.036  1.00  0.00    -0.090 N  
HETATM   20  H   UNL     1      -7.234   5.654  71.480  1.00  0.00     0.000 HD 
BRANCH  19  21
HETATM   21  S   UNL     1      -9.245   4.401  71.897  1.00  0.00    -0.134 S  
HETATM   22  O   UNL     1      -9.867   3.401  71.047  1.00  0.00    -0.169 OA 
HETATM   23  O   UNL     1      -8.801   4.056  73.234  1.00  0.00    -0.097 OA 
BRANCH  21  24
HETATM   24  C   UNL     1     -10.382   5.767  72.069  1.00  0.00    -0.208 A  
HETATM   25  C   UNL     1     -11.258   7.835  72.966  1.00  0.00    -0.380 A  
HETATM   26  N   UNL     1     -11.197   5.854  71.033  1.00  0.00    -0.254 NA 
HETATM   27  F   UNL     1     -13.832   9.151  73.074  1.00  0.00    -0.444 F  
HETATM   28  C   UNL     1     -13.094   9.142  71.921  1.00  0.00    -0.411 C  
HETATM   29  F   UNL     1     -12.424  10.333  71.910  1.00  0.00    -0.455 F  
HETATM   30  C   UNL     1     -11.991   6.943  70.993  1.00  0.00    -0.374 A  
HETATM   31  F   UNL     1     -14.044   9.281  70.967  1.00  0.00    -0.384 F  
HETATM   32  C   UNL     1     -12.132   7.976  71.916  1.00  0.00    -0.359 A  
HETATM   33  C   UNL     1     -10.361   6.749  73.055  1.00  0.00    -0.252 A  
ENDBRANCH  21  24
ENDBRANCH  19  21
ENDBRANCH  10  19
BRANCH  12  34
HETATM   34  C   UNL     1     -10.556  10.800  66.146  1.00  0.00    -0.241 C  
BRANCH  34  35
HETATM   35  C   UNL     1     -11.545  11.748  66.861  1.00  0.00    -0.310 C  
BRANCH  35  36
HETATM   36  C   UNL     1     -11.207  13.167  66.590  1.00  0.00    -0.335 A  
HETATM   37  C   UNL     1     -10.991  15.451  67.281  1.00  0.00    -0.317 A  
HETATM   38  C   UNL     1     -11.262  14.119  67.603  1.00  0.00    -0.315 A  
HETATM   39  C   UNL     1     -10.591  14.836  64.981  1.00  0.00    -0.452 A  
HETATM   40  C   UNL     1     -10.653  15.805  65.984  1.00  0.00    -0.334 A  
HETATM   41  C   UNL     1     -10.866  13.512  65.288  1.00  0.00    -0.316 A  
ENDBRANCH  35  36
ENDBRANCH  34  35
ENDBRANCH  12  34
BRANCH  12  42
HETATM   42  C   UNL     1      -9.679  10.699  68.566  1.00  0.00    -0.177 C  
BRANCH  42  43
HETATM   43  C   UNL     1      -9.856   9.845  69.842  1.00  0.00    -0.285 C  
HETATM   44  C   UNL     1      -8.761   8.919  70.370  1.00  0.00    -0.200 C  
ENDBRANCH  42  43
ENDBRANCH  12  42
TORSDOF 8
ENDMDL
MODEL       27
REMARK 921   NORMALIZED FREE ENERGY PREDICTED BY IDOCK:   -7.24 KCAL/MOL
REMARK 922        TOTAL FREE ENERGY PREDICTED BY IDOCK:  -12.62 KCAL/MOL
REMARK 923 INTER-LIGAND FREE ENERGY PREDICTED BY IDOCK:   -9.89 KCAL/MOL
REMARK 924 INTRA-LIGAND FREE ENERGY PREDICTED BY IDOCK:   -2.72 KCAL/MOL
REMARK 927      BINDING AFFINITY PREDICTED BY RF-SCORE:    0.00 PKD
ROOT
HETATM    1  C   UNL     1     -11.282  12.087  65.421  1.00  0.00    -0.374 C  
HETATM    2  C   UNL     1     -11.024  13.617  65.388  1.00  0.00    -0.302 A  
HETATM    3  C   UNL     1     -11.203  11.393  64.046  1.00  0.00    -0.350 C  
HETATM    4  C   UNL     1     -10.492  11.309  66.522  1.00  0.00    -0.299 C  
HETATM    5  C   UNL     1     -12.210  11.870  63.012  1.00  0.00    -0.116 C  
HETATM    6  C   UNL     1      -9.758  14.188  65.614  1.00  0.00    -0.210 A  
HETATM    7  C   UNL     1     -10.979  11.041  67.753  1.00  0.00    -0.269 C  
HETATM    8  O   UNL     1     -12.240  11.460  68.147  1.00  0.00    -0.602 OA 
HETATM    9  C   UNL     1     -10.132  10.484  68.912  1.00  0.00    -0.215 C  
HETATM   10  C   UNL     1      -9.580  15.586  65.722  1.00  0.00    -0.332 A  
HETATM   11  C   UNL     1     -10.651  16.443  65.518  1.00  0.00    -0.346 A  
HETATM   12  C   UNL     1      -8.710  10.039  68.572  1.00  0.00    -0.123 C  
HETATM   13  C   UNL     1      -9.117  10.824  66.216  1.00  0.00    -0.175 C  
HETATM   14  H   UNL     1     -12.584  11.272  69.013  1.00  0.00     0.000 HD 
HETATM   15  O   UNL     1      -8.341  10.334  67.206  1.00  0.00    -0.121 OA 
HETATM   16  C   UNL     1     -12.087  14.518  65.154  1.00  0.00    -0.363 A  
HETATM   17  O   UNL     1      -8.655  10.881  65.083  1.00  0.00    -0.165 OA 
HETATM   18  C   UNL     1     -11.899  15.911  65.199  1.00  0.00     0.419 A  
ENDROOT
BRANCH  10  19
HETATM   19  N   UNL     1      -8.321  16.116  66.150  1.00  0.00    -0.283 N  
HETATM   20  H   UNL     1      -7.581  16.303  65.473  1.00  0.00     0.000 HD 
BRANCH  19  21
HETATM   21  S   UNL     1      -8.073  16.434  67.823  1.00  0.00    -0.159 S  
HETATM   22  O   UNL     1      -6.933  15.632  68.235  1.00  0.00    -0.108 OA 
HETATM   23  O   UNL     1      -8.059  17.874  67.997  1.00  0.00    -0.238 OA 
BRANCH  21  24
HETATM   24  C   UNL     1      -9.517  15.826  68.679  1.00  0.00    -0.208 A  
HETATM   25  C   UNL     1     -10.947  14.200  69.756  1.00  0.00    -0.068 A  
HETATM   26  N   UNL     1     -10.229  16.813  69.193  1.00  0.00    -0.301 NA 
HETATM   27  F   UNL     1     -13.761  13.971  70.387  1.00  0.00    -0.003 F  
HETATM   28  C   UNL     1     -12.938  14.780  71.123  1.00  0.00    -0.359 C  
HETATM   29  F   UNL     1     -12.577  14.036  72.211  1.00  0.00    -0.383 F  
HETATM   30  C   UNL     1     -11.255  16.453  69.990  1.00  0.00    -0.258 A  
HETATM   31  F   UNL     1     -13.800  15.700  71.615  1.00  0.00    -0.523 F  
HETATM   32  C   UNL     1     -11.727  15.183  70.313  1.00  0.00    -0.338 A  
HETATM   33  C   UNL     1      -9.827  14.497  68.951  1.00  0.00    -0.191 A  
ENDBRANCH  21  24
ENDBRANCH  19  21
ENDBRANCH  10  19
BRANCH  12  34
HETATM   34  C   UNL     1      -8.781   8.513  68.737  1.00  0.00    -0.139 C  
BRANCH  34  35
HETATM   35  C   UNL     1      -8.665   8.117  70.226  1.00  0.00    -0.133 C  
BRANCH  35  36
HETATM   36  C   UNL     1      -9.993   7.764  70.786  1.00  0.00    -0.184 A  
HETATM   37  C   UNL     1     -11.651   7.877  72.512  1.00  0.00    -0.443 A  
HETATM   38  C   UNL     1     -10.418   8.288  72.002  1.00  0.00    -0.350 A  
HETATM   39  C   UNL     1     -12.006   6.476  70.577  1.00  0.00    -0.322 A  
HETATM   40  C   UNL     1     -12.440   6.985  71.803  1.00  0.00    -0.393 A  
HETATM   41  C   UNL     1     -10.779   6.872  70.066  1.00  0.00    -0.276 A  
ENDBRANCH  35  36
ENDBRANCH  34  35
ENDBRANCH  12  34
BRANCH  12  42
HETATM   42  C   UNL     1      -7.524  10.634  69.486  1.00  0.00    -0.132 C  
BRANCH  42  43
HETATM   43  C   UNL     1      -6.871  11.945  68.991  1.00  0.00    -0.105 C  
HETATM   44  C   UNL     1      -5.413  12.016  68.539  1.00  0.00    -0.052 C  
ENDBRANCH  42  43
ENDBRANCH  12  42
TORSDOF 8
ENDMDL
MODEL       28
REMARK 921   NORMALIZED FREE ENERGY PREDICTED BY IDOCK:   -7.21 KCAL/MOL
REMARK 922        TOTAL FREE ENERGY PREDICTED BY IDOCK:  -12.58 KCAL/MOL
REMARK 923 INTER-LIGAND FREE ENERGY PREDICTED BY IDOCK:  -10.46 KCAL/MOL
REMARK 924 INTRA-LIGAND FREE ENERGY PREDICTED BY IDOCK:   -2.12 KCAL/MOL
REMARK 927      BINDING AFFINITY PREDICTED BY RF-SCORE:    0.00 PKD
ROOT
HETATM    1  C   UNL     1     -11.431  12.102  67.256  1.00  0.00    -0.413 C  
HETATM    2  C   UNL     1     -10.836  13.418  67.824  1.00  0.00    -0.267 A  
HETATM    3  C   UNL     1     -11.387  11.989  65.718  1.00  0.00    -0.384 C  
HETATM    4  C   UNL     1     -10.935  10.797  67.958  1.00  0.00    -0.336 C  
HETATM    5  C   UNL     1     -12.166  13.052  64.961  1.00  0.00    -0.501 C  
HETATM    6  C   UNL     1      -9.500  13.537  68.249  1.00  0.00    -0.212 A  
HETATM    7  C   UNL     1     -11.577  10.205  68.989  1.00  0.00    -0.011 C  
HETATM    8  O   UNL     1     -12.743  10.731  69.523  1.00  0.00    -0.572 OA 
HETATM    9  C   UNL     1     -10.982   9.061  69.831  1.00  0.00    -0.204 C  
HETATM   10  C   UNL     1      -9.024  14.701  68.894  1.00  0.00    -0.136 A  
HETATM   11  C   UNL     1      -9.854  15.800  69.050  1.00  0.00    -0.240 A  
HETATM   12  C   UNL     1      -9.670   8.453  69.335  1.00  0.00    -0.177 C  
HETATM   13  C   UNL     1      -9.681  10.151  67.478  1.00  0.00    -0.162 C  
HETATM   14  H   UNL     1     -13.195  10.315  70.248  1.00  0.00     0.000 HD 
HETATM   15  O   UNL     1      -9.125   9.149  68.192  1.00  0.00    -0.132 OA 
HETATM   16  C   UNL     1     -11.646  14.567  67.969  1.00  0.00    -0.364 A  
HETATM   17  O   UNL     1      -9.120  10.524  66.456  1.00  0.00    -0.153 OA 
HETATM   18  C   UNL     1     -11.156  15.747  68.556  1.00  0.00    -0.335 A  
ENDROOT
BRANCH  10  19
HETATM   19  N   UNL     1      -7.721  14.708  69.489  1.00  0.00    -0.367 N  
HETATM   20  H   UNL     1      -7.611  14.578  70.495  1.00  0.00     0.000 HD 
BRANCH  19  21
HETATM   21  S   UNL     1      -6.344  14.939  68.483  1.00  0.00    -0.100 S  
HETATM   22  O   UNL     1      -5.178  14.829  69.342  1.00  0.00    -0.088 OA 
HETATM   23  O   UNL     1      -6.493  14.069  67.333  1.00  0.00    -0.304 OA 
BRANCH  21  24
HETATM   24  C   UNL     1      -6.430  16.615  67.875  1.00  0.00    -0.136 A  
HETATM   25  C   UNL     1      -6.630  19.022  68.002  1.00  0.00    -0.244 A  
HETATM   26  N   UNL     1      -6.005  16.702  66.628  1.00  0.00    -0.318 NA 
HETATM   27  F   UNL     1      -7.387  21.162  66.209  1.00  0.00    -0.116 F  
HETATM   28  C   UNL     1      -6.160  20.563  66.111  1.00  0.00    -0.207 C  
HETATM   29  F   UNL     1      -5.305  21.373  66.804  1.00  0.00    -0.226 F  
HETATM   30  C   UNL     1      -5.884  17.948  66.127  1.00  0.00    -0.203 A  
HETATM   31  F   UNL     1      -5.839  20.768  64.812  1.00  0.00    -0.232 F  
HETATM   32  C   UNL     1      -6.198  19.174  66.707  1.00  0.00    -0.185 A  
HETATM   33  C   UNL     1      -6.735  17.755  68.613  1.00  0.00    -0.230 A  
ENDBRANCH  21  24
ENDBRANCH  19  21
ENDBRANCH  10  19
BRANCH  12  34
HETATM   34  C   UNL     1     -10.095   7.045  68.889  1.00  0.00    -0.174 C  
BRANCH  34  35
HETATM   35  C   UNL     1     -11.335   6.570  69.680  1.00  0.00    -0.443 C  
BRANCH  35  36
HETATM   36  C   UNL     1     -10.938   5.721  70.829  1.00  0.00    -0.312 A  
HETATM   37  C   UNL     1      -9.692   3.908  71.779  1.00  0.00    -0.243 A  
HETATM   38  C   UNL     1      -9.986   4.717  70.680  1.00  0.00    -0.300 A  
HETATM   39  C   UNL     1     -11.266   5.140  73.133  1.00  0.00    -0.398 A  
HETATM   40  C   UNL     1     -10.321   4.122  72.995  1.00  0.00    -0.239 A  
HETATM   41  C   UNL     1     -11.571   5.944  72.046  1.00  0.00    -0.289 A  
ENDBRANCH  35  36
ENDBRANCH  34  35
ENDBRANCH  12  34
BRANCH  12  42
HETATM   42  C   UNL     1      -8.468   8.350  70.402  1.00  0.00    -0.130 C  
BRANCH  42  43
HETATM   43  C   UNL     1      -8.878   8.277  71.890  1.00  0.00    -0.238 C  
HETATM   44  C   UNL     1      -8.179   7.358  72.891  1.00  0.00    -0.136 C  
ENDBRANCH  42  43
ENDBRANCH  12  42
TORSDOF 8
ENDMDL
MODEL       29
REMARK 921   NORMALIZED FREE ENERGY PREDICTED BY IDOCK:   -7.21 KCAL/MOL
REMARK 922        TOTAL FREE ENERGY PREDICTED BY IDOCK:  -12.57 KCAL/MOL
REMARK 923 INTER-LIGAND FREE ENERGY PREDICTED BY IDOCK:  -10.07 KCAL/MOL
REMARK 924 INTRA-LIGAND FREE ENERGY PREDICTED BY IDOCK:   -2.51 KCAL/MOL
REMARK 927      BINDING AFFINITY PREDICTED BY RF-SCORE:    0.00 PKD
ROOT
HETATM    1  C   UNL     1      -6.349  12.947  68.325  1.00  0.00    -0.085 C  
HETATM    2  C   UNL     1      -7.024  14.275  67.889  1.00  0.00    -0.174 A  
HETATM    3  C   UNL     1      -6.147  12.798  69.847  1.00  0.00    -0.122 C  
HETATM    4  C   UNL     1      -6.953  11.658  67.681  1.00  0.00    -0.095 C  
HETATM    5  C   UNL     1      -5.255  13.845  70.495  1.00  0.00    -0.108 C  
HETATM    6  C   UNL     1      -8.411  14.401  67.686  1.00  0.00    -0.186 A  
HETATM    7  C   UNL     1      -6.485  11.091  66.548  1.00  0.00    -0.132 C  
HETATM    8  O   UNL     1      -5.418  11.631  65.847  1.00  0.00    -0.501 OA 
HETATM    9  C   UNL     1      -7.209   9.965  65.785  1.00  0.00    -0.110 C  
HETATM   10  C   UNL     1      -8.980  15.579  67.151  1.00  0.00    -0.214 A  
HETATM   11  C   UNL     1      -8.183  16.683  66.891  1.00  0.00    -0.247 A  
HETATM   12  C   UNL     1      -8.426   9.344  66.470  1.00  0.00    -0.133 C  
HETATM   13  C   UNL     1      -8.115  10.999  68.340  1.00  0.00    -0.134 C  
HETATM   14  H   UNL     1      -5.088  11.232  65.050  1.00  0.00     0.000 HD 
HETATM   15  O   UNL     1      -8.781  10.013  67.700  1.00  0.00    -0.122 OA 
HETATM   16  C   UNL     1      -6.245  15.428  67.644  1.00  0.00    -0.167 A  
HETATM   17  O   UNL     1      -8.506  11.347  69.446  1.00  0.00     0.182 OA 
HETATM   18  C   UNL     1      -6.820  16.621  67.170  1.00  0.00    -0.223 A  
ENDROOT
BRANCH  10  19
HETATM   19  N   UNL     1     -10.362  15.597  66.772  1.00  0.00    -0.281 N  
HETATM   20  H   UNL     1     -10.923  16.440  66.903  1.00  0.00     0.000 HD 
BRANCH  19  21
HETATM   21  S   UNL     1     -11.062  14.179  66.093  1.00  0.00    -0.318 S  
HETATM   22  O   UNL     1     -12.250  14.605  65.374  1.00  0.00    -0.318 OA 
HETATM   23  O   UNL     1     -10.008  13.457  65.408  1.00  0.00    -0.269 OA 
BRANCH  21  24
HETATM   24  C   UNL     1     -11.579  13.158  67.463  1.00  0.00    -0.352 A  
HETATM   25  C   UNL     1     -11.930  11.115  68.709  1.00  0.00    -0.337 A  
HETATM   26  N   UNL     1     -11.787  13.875  68.553  1.00  0.00    -0.351 NA 
HETATM   27  F   UNL     1     -13.631  10.249  70.883  1.00  0.00    -0.407 F  
HETATM   28  C   UNL     1     -12.536  11.035  71.117  1.00  0.00    -0.418 C  
HETATM   29  F   UNL     1     -11.540  10.172  71.479  1.00  0.00    -0.427 F  
HETATM   30  C   UNL     1     -12.032  13.181  69.682  1.00  0.00    -0.306 A  
HETATM   31  F   UNL     1     -12.871  11.665  72.267  1.00  0.00    -0.443 F  
HETATM   32  C   UNL     1     -12.161  11.808  69.872  1.00  0.00    -0.359 A  
HETATM   33  C   UNL     1     -11.619  11.767  67.497  1.00  0.00    -0.361 A  
ENDBRANCH  21  24
ENDBRANCH  19  21
ENDBRANCH  10  19
BRANCH  12  34
HETATM   34  C   UNL     1      -7.938   7.927  66.809  1.00  0.00    -0.107 C  
BRANCH  34  35
HETATM   35  C   UNL     1      -9.093   6.907  66.693  1.00  0.00    -0.172 C  
BRANCH  35  36
HETATM   36  C   UNL     1      -9.630   6.559  68.031  1.00  0.00    -0.119 A  
HETATM   37  C   UNL     1      -9.711   5.153  69.970  1.00  0.00    -0.275 A  
HETATM   38  C   UNL     1      -9.130   5.471  68.740  1.00  0.00    -0.131 A  
HETATM   39  C   UNL     1     -11.230   7.017  69.759  1.00  0.00    -0.257 A  
HETATM   40  C   UNL     1     -10.746   5.922  70.477  1.00  0.00    -0.363 A  
HETATM   41  C   UNL     1     -10.665   7.338  68.534  1.00  0.00    -0.165 A  
ENDBRANCH  35  36
ENDBRANCH  34  35
ENDBRANCH  12  34
BRANCH  12  42
HETATM   42  C   UNL     1      -9.783   9.263  65.606  1.00  0.00    -0.302 C  
BRANCH  42  43
HETATM   43  C   UNL     1      -9.886  10.228  64.403  1.00  0.00    -0.374 C  
HETATM   44  C   UNL     1      -9.217   9.942  63.059  1.00  0.00    -0.284 C  
ENDBRANCH  42  43
ENDBRANCH  12  42
TORSDOF 8
ENDMDL
MODEL       30
REMARK 921   NORMALIZED FREE ENERGY PREDICTED BY IDOCK:   -7.21 KCAL/MOL
REMARK 922        TOTAL FREE ENERGY PREDICTED BY IDOCK:  -12.57 KCAL/MOL
REMARK 923 INTER-LIGAND FREE ENERGY PREDICTED BY IDOCK:  -10.12 KCAL/MOL
REMARK 924 INTRA-LIGAND FREE ENERGY PREDICTED BY IDOCK:   -2.45 KCAL/MOL
REMARK 927      BINDING AFFINITY PREDICTED BY RF-SCORE:    0.00 PKD
ROOT
HETATM    1  C   UNL     1      -8.194   9.145  68.387  1.00  0.00    -0.115 C  
HETATM    2  C   UNL     1      -7.212  10.292  68.027  1.00  0.00    -0.085 A  
HETATM    3  C   UNL     1      -7.570   7.999  69.208  1.00  0.00    -0.096 C  
HETATM    4  C   UNL     1      -9.566   9.612  68.972  1.00  0.00    -0.168 C  
HETATM    5  C   UNL     1      -6.433   7.252  68.530  1.00  0.00    -0.040 C  
HETATM    6  C   UNL     1      -7.071  11.456  68.805  1.00  0.00    -0.102 A  
HETATM    7  C   UNL     1     -10.672   9.823  68.225  1.00  0.00    -0.233 C  
HETATM    8  O   UNL     1     -10.669   9.653  66.850  1.00  0.00    -0.203 OA 
HETATM    9  C   UNL     1     -11.952  10.498  68.754  1.00  0.00     0.031 C  
HETATM   10  C   UNL     1      -6.278  12.545  68.379  1.00  0.00    -0.058 A  
HETATM   11  C   UNL     1      -5.542  12.455  67.207  1.00  0.00    -0.099 A  
HETATM   12  C   UNL     1     -12.018  10.764  70.258  1.00  0.00    -0.351 C  
HETATM   13  C   UNL     1      -9.683   9.843  70.439  1.00  0.00    -0.090 C  
HETATM   14  H   UNL     1     -11.447   9.801  66.325  1.00  0.00     0.000 HD 
HETATM   15  O   UNL     1     -10.786  10.439  70.940  1.00  0.00    -0.111 OA 
HETATM   16  C   UNL     1      -6.425  10.220  66.855  1.00  0.00    -0.071 A  
HETATM   17  O   UNL     1      -8.786   9.529  71.210  1.00  0.00    -0.241 OA 
HETATM   18  C   UNL     1      -5.587  11.279  66.462  1.00  0.00    -0.137 A  
ENDROOT
BRANCH  10  19
HETATM   19  N   UNL     1      -6.319  13.784  69.096  1.00  0.00    -0.099 N  
HETATM   20  H   UNL     1      -5.907  13.858  70.026  1.00  0.00     0.000 HD 
BRANCH  19  21
HETATM   21  S   UNL     1      -7.074  15.148  68.366  1.00  0.00    -0.114 S  
HETATM   22  O   UNL     1      -7.502  16.016  69.450  1.00  0.00    -0.226 OA 
HETATM   23  O   UNL     1      -6.181  15.644  67.337  1.00  0.00    -0.228 OA 
BRANCH  21  24
HETATM   24  C   UNL     1      -8.533  14.541  67.533  1.00  0.00    -0.190 A  
HETATM   25  C   UNL     1     -10.716  13.524  67.325  1.00  0.00    -0.272 A  
HETATM   26  N   UNL     1      -8.614  15.002  66.298  1.00  0.00    -0.051 NA 
HETATM   27  F   UNL     1     -12.232  12.217  65.236  1.00  0.00    -0.456 F  
HETATM   28  C   UNL     1     -12.090  13.578  65.256  1.00  0.00    -0.411 C  
HETATM   29  F   UNL     1     -13.222  14.052  65.857  1.00  0.00    -0.500 F  
HETATM   30  C   UNL     1      -9.756  14.728  65.636  1.00  0.00    -0.278 A  
HETATM   31  F   UNL     1     -12.239  13.905  63.951  1.00  0.00    -0.478 F  
HETATM   32  C   UNL     1     -10.855  13.972  66.034  1.00  0.00    -0.295 A  
HETATM   33  C   UNL     1      -9.573  13.811  68.100  1.00  0.00    -0.216 A  
ENDBRANCH  21  24
ENDBRANCH  19  21
ENDBRANCH  10  19
BRANCH  12  34
HETATM   34  C   UNL     1     -13.107   9.787  70.728  1.00  0.00    -0.196 C  
BRANCH  34  35
HETATM   35  C   UNL     1     -12.726   9.151  72.083  1.00  0.00    -0.467 C  
BRANCH  35  36
HETATM   36  C   UNL     1     -11.940   7.909  71.883  1.00  0.00    -0.347 A  
HETATM   37  C   UNL     1     -10.269   6.337  72.574  1.00  0.00    -0.203 A  
HETATM   38  C   UNL     1     -11.025   7.481  72.839  1.00  0.00    -0.434 A  
HETATM   39  C   UNL     1     -11.379   6.071  70.446  1.00  0.00    -0.322 A  
HETATM   40  C   UNL     1     -10.448   5.636  71.392  1.00  0.00    -0.300 A  
HETATM   41  C   UNL     1     -12.129   7.210  70.696  1.00  0.00    -0.281 A  
ENDBRANCH  35  36
ENDBRANCH  34  35
ENDBRANCH  12  34
BRANCH  12  42
HETATM   42  C   UNL     1     -12.392  12.262  70.715  1.00  0.00    -0.383 C  
BRANCH  42  43
HETATM   43  C   UNL     1     -13.259  12.392  71.988  1.00  0.00    -0.514 C  
HETATM   44  C   UNL     1     -13.881  13.718  72.427  1.00  0.00    -0.681 C  
ENDBRANCH  42  43
ENDBRANCH  12  42
TORSDOF 8
ENDMDL
MODEL       31
REMARK 921   NORMALIZED FREE ENERGY PREDICTED BY IDOCK:   -7.19 KCAL/MOL
REMARK 922        TOTAL FREE ENERGY PREDICTED BY IDOCK:  -12.55 KCAL/MOL
REMARK 923 INTER-LIGAND FREE ENERGY PREDICTED BY IDOCK:   -9.27 KCAL/MOL
REMARK 924 INTRA-LIGAND FREE ENERGY PREDICTED BY IDOCK:   -3.28 KCAL/MOL
REMARK 927      BINDING AFFINITY PREDICTED BY RF-SCORE:    0.00 PKD
ROOT
HETATM    1  C   UNL     1      -9.220   6.832  66.441  1.00  0.00    -0.185 C  
HETATM    2  C   UNL     1      -8.233   6.177  67.444  1.00  0.00    -0.109 A  
HETATM    3  C   UNL     1     -10.616   6.178  66.395  1.00  0.00    -0.107 C  
HETATM    4  C   UNL     1      -9.300   8.390  66.516  1.00  0.00    -0.259 C  
HETATM    5  C   UNL     1     -10.643   4.718  65.972  1.00  0.00    -0.300 C  
HETATM    6  C   UNL     1      -8.057   6.639  68.761  1.00  0.00    -0.119 A  
HETATM    7  C   UNL     1      -8.556   9.221  65.753  1.00  0.00    -0.152 C  
HETATM    8  O   UNL     1      -7.635   8.742  64.835  1.00  0.00    -0.092 OA 
HETATM    9  C   UNL     1      -8.459  10.742  65.978  1.00  0.00    -0.169 C  
HETATM   10  C   UNL     1      -7.051   6.118  69.605  1.00  0.00    -0.073 A  
HETATM   11  C   UNL     1      -6.258   5.065  69.177  1.00  0.00    -0.030 A  
HETATM   12  C   UNL     1      -9.413  11.346  67.009  1.00  0.00    -0.173 C  
HETATM   13  C   UNL     1     -10.246   9.018  67.480  1.00  0.00    -0.241 C  
HETATM   14  H   UNL     1      -7.112   9.326  64.298  1.00  0.00     0.000 HD 
HETATM   15  O   UNL     1     -10.188  10.348  67.710  1.00  0.00    -0.176 OA 
HETATM   16  C   UNL     1      -7.430   5.083  67.050  1.00  0.00    -0.087 A  
HETATM   17  O   UNL     1     -11.067   8.353  68.096  1.00  0.00     0.125 OA 
HETATM   18  C   UNL     1      -6.470   4.523  67.911  1.00  0.00    -0.042 A  
ENDROOT
BRANCH  10  19
HETATM   19  N   UNL     1      -6.772   6.749  70.862  1.00  0.00    -0.053 N  
HETATM   20  H   UNL     1      -5.961   7.359  70.965  1.00  0.00     0.000 HD 
BRANCH  19  21
HETATM   21  S   UNL     1      -7.825   6.461  72.192  1.00  0.00    -0.099 S  
HETATM   22  O   UNL     1      -8.327   5.106  72.040  1.00  0.00    -0.121 OA 
HETATM   23  O   UNL     1      -7.121   6.852  73.398  1.00  0.00    -0.075 OA 
BRANCH  21  24
HETATM   24  C   UNL     1      -9.199   7.586  72.011  1.00  0.00    -0.132 A  
HETATM   25  C   UNL     1     -10.406   9.512  71.186  1.00  0.00    -0.330 A  
HETATM   26  N   UNL     1     -10.324   7.054  72.456  1.00  0.00    -0.197 NA 
HETATM   27  F   UNL     1     -12.681  11.084  72.033  1.00  0.00    -0.477 F  
HETATM   28  C   UNL     1     -12.851   9.852  71.463  1.00  0.00    -0.421 C  
HETATM   29  F   UNL     1     -13.105  10.095  70.143  1.00  0.00    -0.258 F  
HETATM   30  C   UNL     1     -11.448   7.762  72.224  1.00  0.00    -0.332 A  
HETATM   31  F   UNL     1     -14.043   9.459  71.969  1.00  0.00    -0.382 F  
HETATM   32  C   UNL     1     -11.605   9.012  71.632  1.00  0.00    -0.426 A  
HETATM   33  C   UNL     1      -9.193   8.809  71.347  1.00  0.00    -0.325 A  
ENDBRANCH  21  24
ENDBRANCH  19  21
ENDBRANCH  10  19
BRANCH  12  34
HETATM   34  C   UNL     1     -10.367  12.181  66.141  1.00  0.00    -0.264 C  
BRANCH  34  35
HETATM   35  C   UNL     1     -11.760  12.285  66.801  1.00  0.00    -0.411 C  
BRANCH  35  36
HETATM   36  C   UNL     1     -11.775  13.336  67.847  1.00  0.00    -0.395 A  
HETATM   37  C   UNL     1     -12.067  14.048  70.116  1.00  0.00    -0.419 A  
HETATM   38  C   UNL     1     -12.006  13.014  69.180  1.00  0.00    -0.320 A  
HETATM   39  C   UNL     1     -11.635  15.671  68.381  1.00  0.00    -0.358 A  
HETATM   40  C   UNL     1     -11.877  15.364  69.721  1.00  0.00    -0.367 A  
HETATM   41  C   UNL     1     -11.579  14.652  67.442  1.00  0.00    -0.408 A  
ENDBRANCH  35  36
ENDBRANCH  34  35
ENDBRANCH  12  34
BRANCH  12  42
HETATM   42  C   UNL     1      -8.756  12.274  68.150  1.00  0.00    -0.186 C  
BRANCH  42  43
HETATM   43  C   UNL     1      -8.095  13.585  67.668  1.00  0.00    -0.180 C  
HETATM   44  C   UNL     1      -8.044  14.845  68.532  1.00  0.00    -0.147 C  
ENDBRANCH  42  43
ENDBRANCH  12  42
TORSDOF 8
ENDMDL
MODEL       32
REMARK 921   NORMALIZED FREE ENERGY PREDICTED BY IDOCK:   -7.17 KCAL/MOL
REMARK 922        TOTAL FREE ENERGY PREDICTED BY IDOCK:  -12.52 KCAL/MOL
REMARK 923 INTER-LIGAND FREE ENERGY PREDICTED BY IDOCK:  -10.70 KCAL/MOL
REMARK 924 INTRA-LIGAND FREE ENERGY PREDICTED BY IDOCK:   -1.82 KCAL/MOL
REMARK 927      BINDING AFFINITY PREDICTED BY RF-SCORE:    0.00 PKD
ROOT
HETATM    1  C   UNL     1     -11.896   7.908  71.730  1.00  0.00    -0.333 C  
HETATM    2  C   UNL     1     -12.000   9.395  71.297  1.00  0.00    -0.430 A  
HETATM    3  C   UNL     1     -12.922   6.971  71.060  1.00  0.00    -0.213 C  
HETATM    4  C   UNL     1     -10.451   7.314  71.708  1.00  0.00    -0.218 C  
HETATM    5  C   UNL     1     -14.381   7.290  71.339  1.00  0.00    -0.484 C  
HETATM    6  C   UNL     1     -11.231   9.947  70.256  1.00  0.00    -0.364 A  
HETATM    7  C   UNL     1      -9.627   7.296  72.778  1.00  0.00    -0.158 C  
HETATM    8  O   UNL     1     -10.004   7.829  74.001  1.00  0.00    -0.313 OA 
HETATM    9  C   UNL     1      -8.133   6.927  72.708  1.00  0.00    -0.114 C  
HETATM   10  C   UNL     1     -11.240  11.333  69.979  1.00  0.00    -0.132 A  
HETATM   11  C   UNL     1     -12.083  12.179  70.682  1.00  0.00    -0.344 A  
HETATM   12  C   UNL     1      -7.623   6.372  71.378  1.00  0.00    -0.094 C  
HETATM   13  C   UNL     1      -9.931   6.727  70.441  1.00  0.00    -0.179 C  
HETATM   14  H   UNL     1      -9.424   7.816  74.754  1.00  0.00     0.000 HD 
HETATM   15  O   UNL     1      -8.626   6.397  70.338  1.00  0.00    -0.138 OA 
HETATM   16  C   UNL     1     -12.871  10.279  71.973  1.00  0.00    -0.457 A  
HETATM   17  O   UNL     1     -10.657   6.558  69.470  1.00  0.00    -0.206 OA 
HETATM   18  C   UNL     1     -12.925  11.648  71.656  1.00  0.00    -0.483 A  
ENDROOT
BRANCH  10  19
HETATM   19  N   UNL     1     -10.298  11.883  69.050  1.00  0.00    -0.404 N  
HETATM   20  H   UNL     1      -9.319  12.001  69.314  1.00  0.00     0.000 HD 
BRANCH  19  21
HETATM   21  S   UNL     1     -10.841  12.342  67.482  1.00  0.00    -0.244 S  
HETATM   22  O   UNL     1      -9.855  11.843  66.538  1.00  0.00    -0.198 OA 
HETATM   23  O   UNL     1     -12.231  11.947  67.368  1.00  0.00    -0.502 OA 
BRANCH  21  24
HETATM   24  C   UNL     1     -10.805  14.126  67.430  1.00  0.00    -0.287 A  
HETATM   25  C   UNL     1     -10.506  16.373  68.273  1.00  0.00    -0.302 A  
HETATM   26  N   UNL     1     -10.796  14.576  66.188  1.00  0.00    -0.310 NA 
HETATM   27  F   UNL     1     -11.390  19.026  67.535  1.00  0.00    -0.434 F  
HETATM   28  C   UNL     1     -10.393  18.398  66.839  1.00  0.00    -0.390 C  
HETATM   29  F   UNL     1      -9.226  18.874  67.368  1.00  0.00    -0.283 F  
HETATM   30  C   UNL     1     -10.614  15.903  66.038  1.00  0.00    -0.323 A  
HETATM   31  F   UNL     1     -10.474  18.984  65.622  1.00  0.00    -0.462 F  
HETATM   32  C   UNL     1     -10.493  16.898  67.004  1.00  0.00    -0.281 A  
HETATM   33  C   UNL     1     -10.642  14.988  68.510  1.00  0.00    -0.235 A  
ENDBRANCH  21  24
ENDBRANCH  19  21
ENDBRANCH  10  19
BRANCH  12  34
HETATM   34  C   UNL     1      -7.312   4.907  71.718  1.00  0.00    -0.071 C  
BRANCH  34  35
HETATM   35  C   UNL     1      -7.694   4.589  73.181  1.00  0.00    -0.087 C  
BRANCH  35  36
HETATM   36  C   UNL     1      -8.821   3.626  73.237  1.00  0.00    -0.091 A  
HETATM   37  C   UNL     1     -10.454   2.361  74.450  1.00  0.00    -0.198 A  
HETATM   38  C   UNL     1      -9.437   3.318  74.445  1.00  0.00    -0.120 A  
HETATM   39  C   UNL     1     -10.232   2.082  72.062  1.00  0.00    -0.185 A  
HETATM   40  C   UNL     1     -10.852   1.753  73.269  1.00  0.00    -0.247 A  
HETATM   41  C   UNL     1      -9.216   3.025  72.047  1.00  0.00    -0.167 A  
ENDBRANCH  35  36
ENDBRANCH  34  35
ENDBRANCH  12  34
BRANCH  12  42
HETATM   42  C   UNL     1      -6.319   7.077  70.749  1.00  0.00    -0.043 C  
BRANCH  42  43
HETATM   43  C   UNL     1      -6.575   8.299  69.837  1.00  0.00    -0.039 C  
HETATM   44  C   UNL     1      -7.346   9.531  70.311  1.00  0.00    -0.135 C  
ENDBRANCH  42  43
ENDBRANCH  12  42
TORSDOF 8
ENDMDL
MODEL       33
REMARK 921   NORMALIZED FREE ENERGY PREDICTED BY IDOCK:   -7.17 KCAL/MOL
REMARK 922        TOTAL FREE ENERGY PREDICTED BY IDOCK:  -12.52 KCAL/MOL
REMARK 923 INTER-LIGAND FREE ENERGY PREDICTED BY IDOCK:   -9.87 KCAL/MOL
REMARK 924 INTRA-LIGAND FREE ENERGY PREDICTED BY IDOCK:   -2.64 KCAL/MOL
REMARK 927      BINDING AFFINITY PREDICTED BY RF-SCORE:    0.00 PKD
ROOT
HETATM    1  C   UNL     1      -7.405  14.434  68.832  1.00  0.00    -0.127 C  
HETATM    2  C   UNL     1      -7.178  12.942  68.470  1.00  0.00    -0.107 A  
HETATM    3  C   UNL     1      -6.112  15.265  68.970  1.00  0.00    -0.099 C  
HETATM    4  C   UNL     1      -8.487  15.164  67.972  1.00  0.00    -0.148 C  
HETATM    5  C   UNL     1      -5.154  14.809  70.058  1.00  0.00    -0.094 C  
HETATM    6  C   UNL     1      -7.197  12.461  67.148  1.00  0.00    -0.081 A  
HETATM    7  C   UNL     1      -9.787  15.266  68.325  1.00  0.00    -0.218 C  
HETATM    8  O   UNL     1     -10.273  14.706  69.496  1.00  0.00    -0.388 OA 
HETATM    9  C   UNL     1     -10.896  15.777  67.386  1.00  0.00    -0.306 C  
HETATM   10  C   UNL     1      -7.132  11.079  66.857  1.00  0.00    -0.125 A  
HETATM   11  C   UNL     1      -6.959  10.159  67.880  1.00  0.00    -0.083 A  
HETATM   12  C   UNL     1     -10.447  16.371  66.051  1.00  0.00    -0.323 C  
HETATM   13  C   UNL     1      -8.081  15.791  66.683  1.00  0.00    -0.247 C  
HETATM   14  H   UNL     1     -11.188  14.778  69.744  1.00  0.00     0.000 HD 
HETATM   15  O   UNL     1      -9.025  16.245  65.830  1.00  0.00    -0.398 OA 
HETATM   16  C   UNL     1      -6.970  11.982  69.485  1.00  0.00     0.085 A  
HETATM   17  O   UNL     1      -6.905  15.886  66.360  1.00  0.00     0.038 OA 
HETATM   18  C   UNL     1      -6.843  10.612  69.192  1.00  0.00    -0.079 A  
ENDROOT
BRANCH  10  19
HETATM   19  N   UNL     1      -7.356  10.617  65.520  1.00  0.00    -0.305 N  
HETATM   20  H   UNL     1      -6.585  10.575  64.852  1.00  0.00     0.000 HD 
BRANCH  19  21
HETATM   21  S   UNL     1      -8.941  10.136  65.056  1.00  0.00    -0.214 S  
HETATM   22  O   UNL     1      -9.375  11.068  64.029  1.00  0.00    -0.215 OA 
HETATM   23  O   UNL     1      -8.904   8.712  64.786  1.00  0.00    -0.123 OA 
BRANCH  21  24
HETATM   24  C   UNL     1      -9.984  10.362  66.487  1.00  0.00    -0.217 A  
HETATM   25  C   UNL     1     -11.056   9.779  68.575  1.00  0.00    -0.138 A  
HETATM   26  N   UNL     1     -10.296  11.633  66.665  1.00  0.00    -0.215 NA 
HETATM   27  F   UNL     1     -13.383  10.653  70.054  1.00  0.00    -0.219 F  
HETATM   28  C   UNL     1     -12.238  11.402  70.038  1.00  0.00    -0.301 C  
HETATM   29  F   UNL     1     -11.569  11.066  71.181  1.00  0.00    -0.338 F  
HETATM   30  C   UNL     1     -10.953  11.929  67.805  1.00  0.00    -0.228 A  
HETATM   31  F   UNL     1     -12.704  12.650  70.274  1.00  0.00    -0.213 F  
HETATM   32  C   UNL     1     -11.413  11.084  68.811  1.00  0.00    -0.372 A  
HETATM   33  C   UNL     1     -10.326   9.396  67.430  1.00  0.00    -0.325 A  
ENDBRANCH  21  24
ENDBRANCH  19  21
ENDBRANCH  10  19
BRANCH  12  34
HETATM   34  C   UNL     1     -10.784  17.862  66.212  1.00  0.00    -0.120 C  
BRANCH  34  35
HETATM   35  C   UNL     1     -10.549  18.323  67.668  1.00  0.00    -0.427 C  
BRANCH  35  36
HETATM   36  C   UNL     1      -9.254  19.034  67.797  1.00  0.00    -0.339 A  
HETATM   37  C   UNL     1      -7.228  19.526  68.976  1.00  0.00    -0.397 A  
HETATM   38  C   UNL     1      -8.407  18.787  68.872  1.00  0.00    -0.244 A  
HETATM   39  C   UNL     1      -7.757  20.697  66.932  1.00  0.00    -0.274 A  
HETATM   40  C   UNL     1      -6.903  20.468  68.012  1.00  0.00    -0.316 A  
HETATM   41  C   UNL     1      -8.935  19.974  66.824  1.00  0.00    -0.445 A  
ENDBRANCH  35  36
ENDBRANCH  34  35
ENDBRANCH  12  34
BRANCH  12  42
HETATM   42  C   UNL     1     -11.152  15.792  64.724  1.00  0.00    -0.413 C  
BRANCH  42  43
HETATM   43  C   UNL     1     -11.499  14.285  64.736  1.00  0.00    -0.394 C  
HETATM   44  C   UNL     1     -12.244  13.604  63.589  1.00  0.00    -0.376 C  
ENDBRANCH  42  43
ENDBRANCH  12  42
TORSDOF 8
ENDMDL
MODEL       34
REMARK 921   NORMALIZED FREE ENERGY PREDICTED BY IDOCK:   -7.15 KCAL/MOL
REMARK 922        TOTAL FREE ENERGY PREDICTED BY IDOCK:  -12.48 KCAL/MOL
REMARK 923 INTER-LIGAND FREE ENERGY PREDICTED BY IDOCK:  -11.25 KCAL/MOL
REMARK 924 INTRA-LIGAND FREE ENERGY PREDICTED BY IDOCK:   -1.23 KCAL/MOL
REMARK 927      BINDING AFFINITY PREDICTED BY RF-SCORE:    0.00 PKD
ROOT
HETATM    1  C   UNL     1     -10.147  12.720  65.498  1.00  0.00    -0.278 C  
HETATM    2  C   UNL     1     -10.282  11.298  66.105  1.00  0.00    -0.291 A  
HETATM    3  C   UNL     1     -11.119  13.019  64.339  1.00  0.00    -0.400 C  
HETATM    4  C   UNL     1     -10.100  13.881  66.543  1.00  0.00    -0.286 C  
HETATM    5  C   UNL     1     -10.974  12.128  63.116  1.00  0.00    -0.247 C  
HETATM    6  C   UNL     1     -11.082  11.014  67.227  1.00  0.00    -0.359 A  
HETATM    7  C   UNL     1      -8.957  14.393  67.050  1.00  0.00    -0.240 C  
HETATM    8  O   UNL     1      -7.712  13.906  66.684  1.00  0.00    -0.145 OA 
HETATM    9  C   UNL     1      -8.905  15.370  68.241  1.00  0.00    -0.176 C  
HETATM   10  C   UNL     1     -11.074   9.743  67.845  1.00  0.00    -0.096 A  
HETATM   11  C   UNL     1     -10.331   8.708  67.300  1.00  0.00    -0.366 A  
HETATM   12  C   UNL     1     -10.241  15.921  68.736  1.00  0.00    -0.220 C  
HETATM   13  C   UNL     1     -11.380  14.473  67.022  1.00  0.00    -0.349 C  
HETATM   14  H   UNL     1      -6.908  14.267  67.041  1.00  0.00     0.000 HD 
HETATM   15  O   UNL     1     -11.377  15.327  68.068  1.00  0.00    -0.318 OA 
HETATM   16  C   UNL     1      -9.562  10.213  65.556  1.00  0.00    -0.310 A  
HETATM   17  O   UNL     1     -12.452  14.183  66.506  1.00  0.00    -0.447 OA 
HETATM   18  C   UNL     1      -9.602   8.932  66.135  1.00  0.00    -0.335 A  
ENDROOT
BRANCH  10  19
HETATM   19  N   UNL     1     -11.744   9.552  69.098  1.00  0.00    -0.204 N  
HETATM   20  H   UNL     1     -12.729   9.287  69.122  1.00  0.00     0.000 HD 
BRANCH  19  21
HETATM   21  S   UNL     1     -10.863   9.775  70.559  1.00  0.00    -0.342 S  
HETATM   22  O   UNL     1      -9.597  10.386  70.192  1.00  0.00     0.025 OA 
HETATM   23  O   UNL     1     -11.746  10.428  71.506  1.00  0.00    -0.261 OA 
BRANCH  21  24
HETATM   24  C   UNL     1     -10.525   8.146  71.207  1.00  0.00    -0.209 A  
HETATM   25  C   UNL     1     -11.014   6.021  72.252  1.00  0.00    -0.310 A  
HETATM   26  N   UNL     1      -9.359   7.689  70.789  1.00  0.00    -0.161 NA 
HETATM   27  F   UNL     1      -9.516   3.973  73.643  1.00  0.00    -0.103 F  
HETATM   28  C   UNL     1      -9.452   4.088  72.281  1.00  0.00    -0.130 C  
HETATM   29  F   UNL     1     -10.352   3.180  71.797  1.00  0.00    -0.218 F  
HETATM   30  C   UNL     1      -9.079   6.407  71.097  1.00  0.00    -0.150 A  
HETATM   31  F   UNL     1      -8.244   3.548  72.000  1.00  0.00    -0.066 F  
HETATM   32  C   UNL     1      -9.811   5.493  71.849  1.00  0.00    -0.210 A  
HETATM   33  C   UNL     1     -11.400   7.338  71.927  1.00  0.00    -0.288 A  
ENDBRANCH  21  24
ENDBRANCH  19  21
ENDBRANCH  10  19
BRANCH  12  34
HETATM   34  C   UNL     1     -10.165  17.404  68.342  1.00  0.00    -0.362 C  
BRANCH  34  35
HETATM   35  C   UNL     1      -9.291  17.593  67.082  1.00  0.00    -0.245 C  
BRANCH  35  36
HETATM   36  C   UNL     1      -8.325  18.702  67.269  1.00  0.00    -0.270 A  
HETATM   37  C   UNL     1      -7.080  20.201  68.664  1.00  0.00    -0.239 A  
HETATM   38  C   UNL     1      -7.948  19.114  68.543  1.00  0.00    -0.386 A  
HETATM   39  C   UNL     1      -6.968  20.404  66.260  1.00  0.00    -0.291 A  
HETATM   40  C   UNL     1      -6.591  20.836  67.533  1.00  0.00    -0.390 A  
HETATM   41  C   UNL     1      -7.836  19.330  66.129  1.00  0.00    -0.313 A  
ENDBRANCH  35  36
ENDBRANCH  34  35
ENDBRANCH  12  34
BRANCH  12  42
HETATM   42  C   UNL     1     -10.542  15.788  70.313  1.00  0.00    -0.297 C  
BRANCH  42  43
HETATM   43  C   UNL     1     -12.030  15.713  70.722  1.00  0.00    -0.438 C  
HETATM   44  C   UNL     1     -12.518  16.084  72.122  1.00  0.00    -0.524 C  
ENDBRANCH  42  43
ENDBRANCH  12  42
TORSDOF 8
ENDMDL
MODEL       35
REMARK 921   NORMALIZED FREE ENERGY PREDICTED BY IDOCK:   -7.09 KCAL/MOL
REMARK 922        TOTAL FREE ENERGY PREDICTED BY IDOCK:  -12.40 KCAL/MOL
REMARK 923 INTER-LIGAND FREE ENERGY PREDICTED BY IDOCK:  -11.16 KCAL/MOL
REMARK 924 INTRA-LIGAND FREE ENERGY PREDICTED BY IDOCK:   -1.24 KCAL/MOL
REMARK 927      BINDING AFFINITY PREDICTED BY RF-SCORE:    0.00 PKD
ROOT
HETATM    1  C   UNL     1      -9.552  11.491  65.967  1.00  0.00    -0.251 C  
HETATM    2  C   UNL     1      -9.353  10.150  66.722  1.00  0.00    -0.190 A  
HETATM    3  C   UNL     1     -10.432  11.392  64.704  1.00  0.00    -0.373 C  
HETATM    4  C   UNL     1      -9.948  12.703  66.870  1.00  0.00    -0.232 C  
HETATM    5  C   UNL     1      -9.907  10.478  63.609  1.00  0.00    -0.354 C  
HETATM    6  C   UNL     1     -10.164   9.747  67.799  1.00  0.00    -0.254 A  
HETATM    7  C   UNL     1      -9.058  13.566  67.406  1.00  0.00    -0.219 C  
HETATM    8  O   UNL     1      -7.694  13.429  67.204  1.00  0.00    -0.333 OA 
HETATM    9  C   UNL     1      -9.414  14.617  68.475  1.00  0.00    -0.216 C  
HETATM   10  C   UNL     1      -9.872   8.592  68.560  1.00  0.00    -0.169 A  
HETATM   11  C   UNL     1      -8.813   7.771  68.203  1.00  0.00    -0.125 A  
HETATM   12  C   UNL     1     -10.899  14.800  68.790  1.00  0.00    -0.255 C  
HETATM   13  C   UNL     1     -11.389  12.940  67.168  1.00  0.00    -0.306 C  
HETATM   14  H   UNL     1      -7.068  14.037  67.581  1.00  0.00     0.000 HD 
HETATM   15  O   UNL     1     -11.741  13.848  68.104  1.00  0.00    -0.313 OA 
HETATM   16  C   UNL     1      -8.302   9.275  66.365  1.00  0.00    -0.120 A  
HETATM   17  O   UNL     1     -12.271  12.309  66.603  1.00  0.00    -0.574 OA 
HETATM   18  C   UNL     1      -8.049   8.093  67.084  1.00  0.00    -0.116 A  
ENDROOT
BRANCH  10  19
HETATM   19  N   UNL     1     -10.598   8.327  69.766  1.00  0.00    -0.228 N  
HETATM   20  H   UNL     1     -10.733   9.062  70.461  1.00  0.00     0.000 HD 
BRANCH  19  21
HETATM   21  S   UNL     1     -11.239   6.751  70.027  1.00  0.00    -0.331 S  
HETATM   22  O   UNL     1     -12.431   6.916  70.841  1.00  0.00    -0.378 OA 
HETATM   23  O   UNL     1     -11.317   6.092  68.737  1.00  0.00    -0.344 OA 
BRANCH  21  24
HETATM   24  C   UNL     1     -10.029   5.858  70.989  1.00  0.00    -0.190 A  
HETATM   25  C   UNL     1      -8.568   4.024  71.581  1.00  0.00    -0.122 A  
HETATM   26  N   UNL     1      -9.395   6.654  71.831  1.00  0.00    -0.148 NA 
HETATM   27  F   UNL     1      -7.252   3.080  73.977  1.00  0.00    -0.037 F  
HETATM   28  C   UNL     1      -6.775   4.165  73.294  1.00  0.00    -0.052 C  
HETATM   29  F   UNL     1      -5.781   3.681  72.491  1.00  0.00    -0.006 F  
HETATM   30  C   UNL     1      -8.355   6.109  72.494  1.00  0.00    -0.115 A  
HETATM   31  F   UNL     1      -6.123   4.853  74.260  1.00  0.00    -0.042 F  
HETATM   32  C   UNL     1      -7.875   4.803  72.475  1.00  0.00    -0.092 A  
HETATM   33  C   UNL     1      -9.636   4.535  70.813  1.00  0.00    -0.253 A  
ENDBRANCH  21  24
ENDBRANCH  19  21
ENDBRANCH  10  19
BRANCH  12  34
HETATM   34  C   UNL     1     -11.195  16.201  68.234  1.00  0.00    -0.343 C  
BRANCH  34  35
HETATM   35  C   UNL     1     -10.520  17.289  69.099  1.00  0.00    -0.263 C  
BRANCH  35  36
HETATM   36  C   UNL     1      -9.949  18.363  68.249  1.00  0.00    -0.394 A  
HETATM   37  C   UNL     1      -8.210  19.917  67.701  1.00  0.00    -0.349 A  
HETATM   38  C   UNL     1      -8.675  18.866  68.494  1.00  0.00    -0.382 A  
HETATM   39  C   UNL     1     -10.267  19.904  66.438  1.00  0.00    -0.617 A  
HETATM   40  C   UNL     1      -8.996  20.427  66.679  1.00  0.00    -0.296 A  
HETATM   41  C   UNL     1     -10.743  18.866  67.225  1.00  0.00    -0.523 A  
ENDBRANCH  35  36
ENDBRANCH  34  35
ENDBRANCH  12  34
BRANCH  12  42
HETATM   42  C   UNL     1     -11.326  14.726  70.341  1.00  0.00    -0.265 C  
BRANCH  42  43
HETATM   43  C   UNL     1     -12.802  14.369  70.629  1.00  0.00    -0.390 C  
HETATM   44  C   UNL     1     -13.741  15.305  71.388  1.00  0.00    -0.602 C  
ENDBRANCH  42  43
ENDBRANCH  12  42
TORSDOF 8
ENDMDL
MODEL       36
REMARK 921   NORMALIZED FREE ENERGY PREDICTED BY IDOCK:   -7.05 KCAL/MOL
REMARK 922        TOTAL FREE ENERGY PREDICTED BY IDOCK:  -12.34 KCAL/MOL
REMARK 923 INTER-LIGAND FREE ENERGY PREDICTED BY IDOCK:  -10.11 KCAL/MOL
REMARK 924 INTRA-LIGAND FREE ENERGY PREDICTED BY IDOCK:   -2.22 KCAL/MOL
REMARK 927      BINDING AFFINITY PREDICTED BY RF-SCORE:    0.00 PKD
ROOT
HETATM    1  C   UNL     1      -8.867   5.541  69.761  1.00  0.00    -0.129 C  
HETATM    2  C   UNL     1      -9.572   5.636  71.141  1.00  0.00    -0.208 A  
HETATM    3  C   UNL     1      -9.538   4.576  68.762  1.00  0.00    -0.227 C  
HETATM    4  C   UNL     1      -8.511   6.915  69.107  1.00  0.00    -0.129 C  
HETATM    5  C   UNL     1      -9.598   3.121  69.197  1.00  0.00    -0.081 C  
HETATM    6  C   UNL     1     -10.533   6.617  71.447  1.00  0.00    -0.241 A  
HETATM    7  C   UNL     1      -7.320   7.535  69.256  1.00  0.00    -0.089 C  
HETATM    8  O   UNL     1      -6.306   6.995  70.030  1.00  0.00    -0.034 OA 
HETATM    9  C   UNL     1      -7.042   8.983  68.811  1.00  0.00    -0.070 C  
HETATM   10  C   UNL     1     -11.052   6.769  72.753  1.00  0.00    -0.257 A  
HETATM   11  C   UNL     1     -10.683   5.887  73.757  1.00  0.00    -0.219 A  
HETATM   12  C   UNL     1      -8.132   9.671  67.988  1.00  0.00    -0.105 C  
HETATM   13  C   UNL     1      -9.532   7.599  68.265  1.00  0.00    -0.145 C  
HETATM   14  H   UNL     1      -5.468   7.431  70.135  1.00  0.00     0.000 HD 
HETATM   15  O   UNL     1      -9.328   8.871  67.860  1.00  0.00    -0.140 OA 
HETATM   16  C   UNL     1      -9.241   4.735  72.178  1.00  0.00    -0.155 A  
HETATM   17  O   UNL     1     -10.575   7.043  67.946  1.00  0.00    -0.197 OA 
HETATM   18  C   UNL     1      -9.804   4.848  73.462  1.00  0.00    -0.167 A  
ENDROOT
BRANCH  10  19
HETATM   19  N   UNL     1     -11.872   7.900  73.070  1.00  0.00    -0.572 N  
HETATM   20  H   UNL     1     -11.718   8.425  73.931  1.00  0.00     0.000 HD 
BRANCH  19  21
HETATM   21  S   UNL     1     -13.120   8.361  71.978  1.00  0.00    -0.342 S  
HETATM   22  O   UNL     1     -13.130   7.369  70.916  1.00  0.00    -0.186 OA 
HETATM   23  O   UNL     1     -14.315   8.610  72.760  1.00  0.00    -0.520 OA 
BRANCH  21  24
HETATM   24  C   UNL     1     -12.631   9.925  71.271  1.00  0.00    -0.381 A  
HETATM   25  C   UNL     1     -11.740  11.434  69.604  1.00  0.00    -0.415 A  
HETATM   26  N   UNL     1     -13.154  10.942  71.932  1.00  0.00    -0.487 NA 
HETATM   27  F   UNL     1     -10.616  14.100  69.573  1.00  0.00    -0.216 F  
HETATM   28  C   UNL     1     -11.965  13.907  69.697  1.00  0.00    -0.342 C  
HETATM   29  F   UNL     1     -12.468  14.045  68.434  1.00  0.00    -0.342 F  
HETATM   30  C   UNL     1     -12.971  12.162  71.388  1.00  0.00    -0.257 A  
HETATM   31  F   UNL     1     -12.361  15.028  70.342  1.00  0.00    -0.303 F  
HETATM   32  C   UNL     1     -12.256  12.530  70.252  1.00  0.00    -0.345 A  
HETATM   33  C   UNL     1     -11.930  10.121  70.084  1.00  0.00    -0.262 A  
ENDBRANCH  21  24
ENDBRANCH  19  21
ENDBRANCH  10  19
BRANCH  12  34
HETATM   34  C   UNL     1      -7.481   9.798  66.602  1.00  0.00    -0.095 C  
BRANCH  34  35
HETATM   35  C   UNL     1      -8.324   9.070  65.531  1.00  0.00    -0.138 C  
BRANCH  35  36
HETATM   36  C   UNL     1      -9.057  10.041  64.683  1.00  0.00    -0.280 A  
HETATM   37  C   UNL     1     -10.914  11.498  64.269  1.00  0.00    -0.406 A  
HETATM   38  C   UNL     1     -10.232  10.636  65.131  1.00  0.00    -0.368 A  
HETATM   39  C   UNL     1      -9.226  11.172  62.574  1.00  0.00    -0.317 A  
HETATM   40  C   UNL     1     -10.412  11.768  63.005  1.00  0.00    -0.223 A  
HETATM   41  C   UNL     1      -8.545  10.309  63.418  1.00  0.00    -0.194 A  
ENDBRANCH  35  36
ENDBRANCH  34  35
ENDBRANCH  12  34
BRANCH  12  42
HETATM   42  C   UNL     1      -8.622  11.118  68.497  1.00  0.00    -0.157 C  
BRANCH  42  43
HETATM   43  C   UNL     1      -8.057  12.339  67.737  1.00  0.00    -0.155 C  
HETATM   44  C   UNL     1      -8.928  13.235  66.857  1.00  0.00    -0.212 C  
ENDBRANCH  42  43
ENDBRANCH  12  42
TORSDOF 8
ENDMDL
MODEL       37
REMARK 921   NORMALIZED FREE ENERGY PREDICTED BY IDOCK:   -7.05 KCAL/MOL
REMARK 922        TOTAL FREE ENERGY PREDICTED BY IDOCK:  -12.33 KCAL/MOL
REMARK 923 INTER-LIGAND FREE ENERGY PREDICTED BY IDOCK:  -10.88 KCAL/MOL
REMARK 924 INTRA-LIGAND FREE ENERGY PREDICTED BY IDOCK:   -1.46 KCAL/MOL
REMARK 927      BINDING AFFINITY PREDICTED BY RF-SCORE:    0.00 PKD
ROOT
HETATM    1  C   UNL     1      -6.433  13.029  68.110  1.00  0.00    -0.100 C  
HETATM    2  C   UNL     1      -7.100  14.311  67.544  1.00  0.00    -0.189 A  
HETATM    3  C   UNL     1      -6.403  12.946  69.650  1.00  0.00    -0.089 C  
HETATM    4  C   UNL     1      -6.913  11.693  67.456  1.00  0.00    -0.104 C  
HETATM    5  C   UNL     1      -5.629  14.051  70.350  1.00  0.00    -0.134 C  
HETATM    6  C   UNL     1      -8.458  14.375  67.180  1.00  0.00    -0.229 A  
HETATM    7  C   UNL     1      -6.297  11.103  66.408  1.00  0.00    -0.116 C  
HETATM    8  O   UNL     1      -5.177  11.658  65.811  1.00  0.00    -0.477 OA 
HETATM    9  C   UNL     1      -6.889   9.921  65.617  1.00  0.00    -0.106 C  
HETATM   10  C   UNL     1      -9.003  15.507  66.535  1.00  0.00    -0.312 A  
HETATM   11  C   UNL     1      -8.222  16.632  66.320  1.00  0.00    -0.365 A  
HETATM   12  C   UNL     1      -8.153   9.278  66.184  1.00  0.00    -0.110 C  
HETATM   13  C   UNL     1      -8.119  11.014  68.006  1.00  0.00    -0.121 C  
HETATM   14  H   UNL     1      -4.743  11.243  65.074  1.00  0.00     0.000 HD 
HETATM   15  O   UNL     1      -8.671   9.978  67.338  1.00  0.00    -0.125 OA 
HETATM   16  C   UNL     1      -6.339  15.485  67.341  1.00  0.00    -0.106 A  
HETATM   17  O   UNL     1      -8.646  11.388  69.045  1.00  0.00    -0.066 OA 
HETATM   18  C   UNL     1      -6.898  16.635  66.754  1.00  0.00    -0.252 A  
ENDROOT
BRANCH  10  19
HETATM   19  N   UNL     1     -10.332  15.456  66.001  1.00  0.00    -0.304 N  
HETATM   20  H   UNL     1     -10.636  16.137  65.304  1.00  0.00     0.000 HD 
BRANCH  19  21
HETATM   21  S   UNL     1     -11.408  14.231  66.552  1.00  0.00    -0.358 S  
HETATM   22  O   UNL     1     -12.655  14.417  65.829  1.00  0.00    -0.397 OA 
HETATM   23  O   UNL     1     -10.702  12.967  66.485  1.00  0.00    -0.265 OA 
BRANCH  21  24
HETATM   24  C   UNL     1     -11.715  14.559  68.280  1.00  0.00    -0.335 A  
HETATM   25  C   UNL     1     -12.124  15.893  70.254  1.00  0.00    -0.294 A  
HETATM   26  N   UNL     1     -12.094  13.468  68.921  1.00  0.00    -0.327 NA 
HETATM   27  F   UNL     1     -11.844  15.551  73.113  1.00  0.00    -0.482 F  
HETATM   28  C   UNL     1     -12.879  14.968  72.433  1.00  0.00    -0.349 C  
HETATM   29  F   UNL     1     -13.937  15.820  72.583  1.00  0.00    -0.579 F  
HETATM   30  C   UNL     1     -12.499  13.639  70.196  1.00  0.00    -0.239 A  
HETATM   31  F   UNL     1     -13.184  13.909  73.219  1.00  0.00    -0.555 F  
HETATM   32  C   UNL     1     -12.523  14.793  70.973  1.00  0.00    -0.400 A  
HETATM   33  C   UNL     1     -11.733  15.804  68.902  1.00  0.00    -0.404 A  
ENDBRANCH  21  24
ENDBRANCH  19  21
ENDBRANCH  10  19
BRANCH  12  34
HETATM   34  C   UNL     1      -7.658   7.896  66.637  1.00  0.00    -0.093 C  
BRANCH  34  35
HETATM   35  C   UNL     1      -8.774   6.837  66.488  1.00  0.00    -0.139 C  
BRANCH  35  36
HETATM   36  C   UNL     1      -9.331   6.464  67.811  1.00  0.00    -0.117 A  
HETATM   37  C   UNL     1     -11.176   5.972  69.259  1.00  0.00    -0.367 A  
HETATM   38  C   UNL     1     -10.697   6.264  67.980  1.00  0.00    -0.369 A  
HETATM   39  C   UNL     1      -8.929   6.056  70.140  1.00  0.00    -0.150 A  
HETATM   40  C   UNL     1     -10.299   5.863  70.327  1.00  0.00    -0.298 A  
HETATM   41  C   UNL     1      -8.445   6.354  68.876  1.00  0.00    -0.121 A  
ENDBRANCH  35  36
ENDBRANCH  34  35
ENDBRANCH  12  34
BRANCH  12  42
HETATM   42  C   UNL     1      -9.398   9.111  65.176  1.00  0.00    -0.180 C  
BRANCH  42  43
HETATM   43  C   UNL     1      -9.819  10.375  64.393  1.00  0.00    -0.395 C  
HETATM   44  C   UNL     1      -9.454  10.592  62.925  1.00  0.00    -0.360 C  
ENDBRANCH  42  43
ENDBRANCH  12  42
TORSDOF 8
ENDMDL
MODEL       38
REMARK 921   NORMALIZED FREE ENERGY PREDICTED BY IDOCK:   -7.03 KCAL/MOL
REMARK 922        TOTAL FREE ENERGY PREDICTED BY IDOCK:  -12.31 KCAL/MOL
REMARK 923 INTER-LIGAND FREE ENERGY PREDICTED BY IDOCK:  -10.53 KCAL/MOL
REMARK 924 INTRA-LIGAND FREE ENERGY PREDICTED BY IDOCK:   -1.78 KCAL/MOL
REMARK 927      BINDING AFFINITY PREDICTED BY RF-SCORE:    0.00 PKD
ROOT
HETATM    1  C   UNL     1      -9.989  10.426  65.427  1.00  0.00    -0.362 C  
HETATM    2  C   UNL     1     -10.653  11.795  65.731  1.00  0.00    -0.312 A  
HETATM    3  C   UNL     1      -9.066  10.419  64.191  1.00  0.00    -0.272 C  
HETATM    4  C   UNL     1      -9.331   9.724  66.659  1.00  0.00    -0.200 C  
HETATM    5  C   UNL     1      -9.738  10.756  62.870  1.00  0.00    -0.337 C  
HETATM    6  C   UNL     1     -10.105  12.732  66.627  1.00  0.00    -0.248 A  
HETATM    7  C   UNL     1      -9.966   8.823  67.440  1.00  0.00    -0.208 C  
HETATM    8  O   UNL     1     -11.282   8.456  67.213  1.00  0.00    -0.302 OA 
HETATM    9  C   UNL     1      -9.410   8.303  68.780  1.00  0.00    -0.143 C  
HETATM   10  C   UNL     1     -10.802  13.906  66.994  1.00  0.00    -0.285 A  
HETATM   11  C   UNL     1     -12.020  14.206  66.406  1.00  0.00    -0.457 A  
HETATM   12  C   UNL     1      -7.976   8.700  69.129  1.00  0.00    -0.110 C  
HETATM   13  C   UNL     1      -7.921  10.053  67.009  1.00  0.00    -0.106 C  
HETATM   14  H   UNL     1     -11.729   7.822  67.763  1.00  0.00     0.000 HD 
HETATM   15  O   UNL     1      -7.400   9.622  68.177  1.00  0.00    -0.080 OA 
HETATM   16  C   UNL     1     -11.880  12.147  65.126  1.00  0.00    -0.356 A  
HETATM   17  O   UNL     1      -7.221  10.734  66.271  1.00  0.00    -0.131 OA 
HETATM   18  C   UNL     1     -12.545  13.345  65.445  1.00  0.00    -0.528 A  
ENDROOT
BRANCH  10  19
HETATM   19  N   UNL     1     -10.305  14.730  68.055  1.00  0.00    -0.235 N  
HETATM   20  H   UNL     1      -9.381  15.159  67.988  1.00  0.00     0.000 HD 
BRANCH  19  21
HETATM   21  S   UNL     1     -11.288  14.988  69.444  1.00  0.00    -0.317 S  
HETATM   22  O   UNL     1     -10.420  15.536  70.473  1.00  0.00    -0.302 OA 
HETATM   23  O   UNL     1     -12.468  15.714  69.016  1.00  0.00    -0.088 OA 
BRANCH  21  24
HETATM   24  C   UNL     1     -11.841  13.379  69.985  1.00  0.00    -0.294 A  
HETATM   25  C   UNL     1     -11.864  10.965  70.131  1.00  0.00    -0.438 A  
HETATM   26  N   UNL     1     -12.616  13.464  71.051  1.00  0.00    -0.361 NA 
HETATM   27  F   UNL     1     -13.775   8.926  70.877  1.00  0.00    -0.217 F  
HETATM   28  C   UNL     1     -13.145   9.681  71.828  1.00  0.00    -0.421 C  
HETATM   29  F   UNL     1     -12.089   8.924  72.252  1.00  0.00    -0.395 F  
HETATM   30  C   UNL     1     -12.961  12.297  71.630  1.00  0.00    -0.311 A  
HETATM   31  F   UNL     1     -14.022   9.642  72.858  1.00  0.00    -0.303 F  
HETATM   32  C   UNL     1     -12.674  10.992  71.239  1.00  0.00    -0.537 A  
HETATM   33  C   UNL     1     -11.419  12.145  69.498  1.00  0.00    -0.334 A  
ENDBRANCH  21  24
ENDBRANCH  19  21
ENDBRANCH  10  19
BRANCH  12  34
HETATM   34  C   UNL     1      -7.221   7.365  69.032  1.00  0.00    -0.085 C  
BRANCH  34  35
HETATM   35  C   UNL     1      -7.138   6.887  67.565  1.00  0.00    -0.085 C  
BRANCH  35  36
HETATM   36  C   UNL     1      -7.844   5.594  67.389  1.00  0.00    -0.101 A  
HETATM   37  C   UNL     1      -8.769   3.562  68.259  1.00  0.00    -0.136 A  
HETATM   38  C   UNL     1      -8.157   4.797  68.485  1.00  0.00    -0.084 A  
HETATM   39  C   UNL     1      -8.766   3.974  65.879  1.00  0.00    -0.116 A  
HETATM   40  C   UNL     1      -9.076   3.157  66.968  1.00  0.00    -0.198 A  
HETATM   41  C   UNL     1      -8.151   5.198  66.093  1.00  0.00    -0.108 A  
ENDBRANCH  35  36
ENDBRANCH  34  35
ENDBRANCH  12  34
BRANCH  12  42
HETATM   42  C   UNL     1      -7.738   9.359  70.579  1.00  0.00    -0.177 C  
BRANCH  42  43
HETATM   43  C   UNL     1      -7.783   8.394  71.786  1.00  0.00    -0.147 C  
HETATM   44  C   UNL     1      -9.068   8.107  72.562  1.00  0.00    -0.302 C  
ENDBRANCH  42  43
ENDBRANCH  12  42
TORSDOF 8
ENDMDL
MODEL       39
REMARK 921   NORMALIZED FREE ENERGY PREDICTED BY IDOCK:   -7.00 KCAL/MOL
REMARK 922        TOTAL FREE ENERGY PREDICTED BY IDOCK:  -12.27 KCAL/MOL
REMARK 923 INTER-LIGAND FREE ENERGY PREDICTED BY IDOCK:  -10.01 KCAL/MOL
REMARK 924 INTRA-LIGAND FREE ENERGY PREDICTED BY IDOCK:   -2.26 KCAL/MOL
REMARK 927      BINDING AFFINITY PREDICTED BY RF-SCORE:    0.00 PKD
ROOT
HETATM    1  C   UNL     1     -10.547  13.977  68.735  1.00  0.00    -0.260 C  
HETATM    2  C   UNL     1     -10.777  14.692  67.377  1.00  0.00    -0.280 A  
HETATM    3  C   UNL     1     -11.612  14.279  69.808  1.00  0.00    -0.350 C  
HETATM    4  C   UNL     1     -10.229  12.450  68.631  1.00  0.00    -0.169 C  
HETATM    5  C   UNL     1     -11.729  15.736  70.224  1.00  0.00    -0.373 C  
HETATM    6  C   UNL     1     -11.459  14.095  66.300  1.00  0.00    -0.358 A  
HETATM    7  C   UNL     1      -8.978  11.943  68.575  1.00  0.00    -0.115 C  
HETATM    8  O   UNL     1      -7.857  12.757  68.591  1.00  0.00    -0.225 OA 
HETATM    9  C   UNL     1      -8.659  10.473  68.243  1.00  0.00    -0.127 C  
HETATM   10  C   UNL     1     -11.529  14.711  65.030  1.00  0.00    -0.386 A  
HETATM   11  C   UNL     1     -10.991  15.974  64.837  1.00  0.00    -0.399 A  
HETATM   12  C   UNL     1      -9.847   9.514  68.162  1.00  0.00    -0.155 C  
HETATM   13  C   UNL     1     -11.358  11.480  68.589  1.00  0.00    -0.269 C  
HETATM   14  H   UNL     1      -6.977  12.400  68.552  1.00  0.00     0.000 HD 
HETATM   15  O   UNL     1     -11.120  10.184  68.295  1.00  0.00    -0.260 OA 
HETATM   16  C   UNL     1     -10.268  15.991  67.155  1.00  0.00    -0.278 A  
HETATM   17  O   UNL     1     -12.512  11.832  68.791  1.00  0.00    -0.209 OA 
HETATM   18  C   UNL     1     -10.391  16.631  65.908  1.00  0.00    -0.355 A  
ENDROOT
BRANCH  10  19
HETATM   19  N   UNL     1     -12.055  13.986  63.911  1.00  0.00    -0.776 N  
HETATM   20  H   UNL     1     -12.317  14.476  63.055  1.00  0.00     0.000 HD 
BRANCH  19  21
HETATM   21  S   UNL     1     -12.239  12.280  64.032  1.00  0.00    -0.480 S  
HETATM   22  O   UNL     1     -12.755  12.010  65.363  1.00  0.00    -0.225 OA 
HETATM   23  O   UNL     1     -12.965  11.834  62.859  1.00  0.00    -0.367 OA 
BRANCH  21  24
HETATM   24  C   UNL     1     -10.601  11.579  63.920  1.00  0.00    -0.391 A  
HETATM   25  C   UNL     1      -8.392  10.949  64.678  1.00  0.00     0.119 A  
HETATM   26  N   UNL     1     -10.481  10.788  62.869  1.00  0.00     0.125 NA 
HETATM   27  F   UNL     1      -5.853  10.315  63.445  1.00  0.00    -0.110 F  
HETATM   28  C   UNL     1      -6.880   9.410  63.445  1.00  0.00    -0.097 C  
HETATM   29  F   UNL     1      -6.635   8.583  64.506  1.00  0.00    -0.064 F  
HETATM   30  C   UNL     1      -9.332  10.089  62.779  1.00  0.00    -0.260 A  
HETATM   31  F   UNL     1      -6.603   8.655  62.358  1.00  0.00    -0.094 F  
HETATM   32  C   UNL     1      -8.209  10.116  63.601  1.00  0.00    -0.166 A  
HETATM   33  C   UNL     1      -9.586  11.676  64.868  1.00  0.00    -0.173 A  
ENDBRANCH  21  24
ENDBRANCH  19  21
ENDBRANCH  10  19
BRANCH  12  34
HETATM   34  C   UNL     1      -9.640   8.612  69.389  1.00  0.00    -0.166 C  
BRANCH  34  35
HETATM   35  C   UNL     1     -10.882   7.727  69.635  1.00  0.00    -0.185 C  
BRANCH  35  36
HETATM   36  C   UNL     1     -10.503   6.453  70.293  1.00  0.00    -0.270 A  
HETATM   37  C   UNL     1      -9.898   4.136  70.212  1.00  0.00    -0.239 A  
HETATM   38  C   UNL     1     -10.191   5.325  69.541  1.00  0.00    -0.338 A  
HETATM   39  C   UNL     1     -10.200   5.237  72.339  1.00  0.00    -0.243 A  
HETATM   40  C   UNL     1      -9.897   4.094  71.597  1.00  0.00    -0.254 A  
HETATM   41  C   UNL     1     -10.500   6.422  71.683  1.00  0.00    -0.251 A  
ENDBRANCH  35  36
ENDBRANCH  34  35
ENDBRANCH  12  34
BRANCH  12  42
HETATM   42  C   UNL     1      -9.962   8.611  66.833  1.00  0.00    -0.330 C  
BRANCH  42  43
HETATM   43  C   UNL     1      -8.853   7.553  66.627  1.00  0.00    -0.162 C  
HETATM   44  C   UNL     1      -9.046   6.323  65.741  1.00  0.00    -0.039 C  
ENDBRANCH  42  43
ENDBRANCH  12  42
TORSDOF 8
ENDMDL
MODEL       40
REMARK 921   NORMALIZED FREE ENERGY PREDICTED BY IDOCK:   -6.98 KCAL/MOL
REMARK 922        TOTAL FREE ENERGY PREDICTED BY IDOCK:  -12.24 KCAL/MOL
REMARK 923 INTER-LIGAND FREE ENERGY PREDICTED BY IDOCK:  -10.64 KCAL/MOL
REMARK 924 INTRA-LIGAND FREE ENERGY PREDICTED BY IDOCK:   -1.60 KCAL/MOL
REMARK 927      BINDING AFFINITY PREDICTED BY RF-SCORE:    0.00 PKD
ROOT
HETATM    1  C   UNL     1      -7.849   9.755  66.457  1.00  0.00    -0.109 C  
HETATM    2  C   UNL     1      -8.839  10.304  65.395  1.00  0.00    -0.192 A  
HETATM    3  C   UNL     1      -6.607  10.638  66.695  1.00  0.00    -0.101 C  
HETATM    4  C   UNL     1      -8.509   9.290  67.795  1.00  0.00    -0.116 C  
HETATM    5  C   UNL     1      -5.708  10.842  65.487  1.00  0.00    -0.079 C  
HETATM    6  C   UNL     1      -9.955  11.097  65.722  1.00  0.00    -0.292 A  
HETATM    7  C   UNL     1      -8.898   8.021  68.043  1.00  0.00    -0.128 C  
HETATM    8  O   UNL     1      -8.753   7.014  67.102  1.00  0.00    -0.119 OA 
HETATM    9  C   UNL     1      -9.751   7.603  69.256  1.00  0.00    -0.164 C  
HETATM   10  C   UNL     1     -10.918  11.462  64.755  1.00  0.00    -0.234 A  
HETATM   11  C   UNL     1     -10.737  11.114  63.425  1.00  0.00    -0.286 A  
HETATM   12  C   UNL     1      -9.998   8.670  70.323  1.00  0.00    -0.186 C  
HETATM   13  C   UNL     1      -8.730  10.292  68.876  1.00  0.00    -0.152 C  
HETATM   14  H   UNL     1      -9.026   6.121  67.276  1.00  0.00     0.000 HD 
HETATM   15  O   UNL     1      -9.478   9.966  69.952  1.00  0.00    -0.220 OA 
HETATM   16  C   UNL     1      -8.668   9.993  64.027  1.00  0.00    -0.222 A  
HETATM   17  O   UNL     1      -8.270  11.424  68.803  1.00  0.00    -0.151 OA 
HETATM   18  C   UNL     1      -9.594  10.409  63.054  1.00  0.00    -0.341 A  
ENDROOT
BRANCH  10  19
HETATM   19  N   UNL     1     -12.137  12.095  65.161  1.00  0.00    -0.305 N  
HETATM   20  H   UNL     1     -12.878  11.553  65.605  1.00  0.00     0.000 HD 
BRANCH  19  21
HETATM   21  S   UNL     1     -12.333  13.783  64.891  1.00  0.00    -0.393 S  
HETATM   22  O   UNL     1     -12.164  13.998  63.464  1.00  0.00    -0.626 OA 
HETATM   23  O   UNL     1     -13.555  14.193  65.555  1.00  0.00    -0.568 OA 
BRANCH  21  24
HETATM   24  C   UNL     1     -10.988  14.598  65.737  1.00  0.00    -0.330 A  
HETATM   25  C   UNL     1      -9.248  16.239  66.090  1.00  0.00    -0.376 A  
HETATM   26  N   UNL     1     -10.920  14.232  67.005  1.00  0.00    -0.298 NA 
HETATM   27  F   UNL     1      -6.835  16.432  67.673  1.00  0.00    -0.116 F  
HETATM   28  C   UNL     1      -8.067  16.580  68.249  1.00  0.00    -0.179 C  
HETATM   29  F   UNL     1      -8.280  17.929  68.308  1.00  0.00    -0.250 F  
HETATM   30  C   UNL     1     -10.037  14.904  67.770  1.00  0.00    -0.234 A  
HETATM   31  F   UNL     1      -7.834  16.218  69.532  1.00  0.00    -0.235 F  
HETATM   32  C   UNL     1      -9.128  15.898  67.415  1.00  0.00    -0.205 A  
HETATM   33  C   UNL     1     -10.183  15.616  65.236  1.00  0.00    -0.358 A  
ENDBRANCH  21  24
ENDBRANCH  19  21
ENDBRANCH  10  19
BRANCH  12  34
HETATM   34  C   UNL     1      -9.191   8.146  71.520  1.00  0.00    -0.209 C  
BRANCH  34  35
HETATM   35  C   UNL     1     -10.107   7.920  72.743  1.00  0.00    -0.365 C  
BRANCH  35  36
HETATM   36  C   UNL     1     -10.183   6.479  73.090  1.00  0.00    -0.231 A  
HETATM   37  C   UNL     1     -11.368   4.401  73.215  1.00  0.00    -0.334 A  
HETATM   38  C   UNL     1     -11.327   5.738  72.815  1.00  0.00    -0.328 A  
HETATM   39  C   UNL     1      -9.132   4.579  74.109  1.00  0.00    -0.108 A  
HETATM   40  C   UNL     1     -10.278   3.825  73.850  1.00  0.00    -0.214 A  
HETATM   41  C   UNL     1      -9.084   5.910  73.723  1.00  0.00    -0.127 A  
ENDBRANCH  35  36
ENDBRANCH  34  35
ENDBRANCH  12  34
BRANCH  12  42
HETATM   42  C   UNL     1     -11.528   8.918  70.761  1.00  0.00    -0.319 C  
BRANCH  42  43
HETATM   43  C   UNL     1     -11.872  10.337  71.270  1.00  0.00    -0.425 C  
HETATM   44  C   UNL     1     -12.226  11.485  70.327  1.00  0.00    -0.415 C  
ENDBRANCH  42  43
ENDBRANCH  12  42
TORSDOF 8
ENDMDL
MODEL       41
REMARK 921   NORMALIZED FREE ENERGY PREDICTED BY IDOCK:   -6.96 KCAL/MOL
REMARK 922        TOTAL FREE ENERGY PREDICTED BY IDOCK:  -12.21 KCAL/MOL
REMARK 923 INTER-LIGAND FREE ENERGY PREDICTED BY IDOCK:  -10.64 KCAL/MOL
REMARK 924 INTRA-LIGAND FREE ENERGY PREDICTED BY IDOCK:   -1.56 KCAL/MOL
REMARK 927      BINDING AFFINITY PREDICTED BY RF-SCORE:    0.00 PKD
ROOT
HETATM    1  C   UNL     1      -8.913   7.611  67.508  1.00  0.00    -0.128 C  
HETATM    2  C   UNL     1      -9.161   9.075  67.054  1.00  0.00    -0.169 A  
HETATM    3  C   UNL     1      -7.438   7.164  67.457  1.00  0.00    -0.101 C  
HETATM    4  C   UNL     1      -9.606   7.211  68.850  1.00  0.00    -0.142 C  
HETATM    5  C   UNL     1      -6.792   7.192  66.081  1.00  0.00    -0.057 C  
HETATM    6  C   UNL     1      -9.214  10.158  67.950  1.00  0.00    -0.144 A  
HETATM    7  C   UNL     1     -10.826   6.635  68.927  1.00  0.00    -0.277 C  
HETATM    8  O   UNL     1     -11.579   6.364  67.796  1.00  0.00    -0.622 OA 
HETATM    9  C   UNL     1     -11.609   6.450  70.241  1.00  0.00    -0.451 C  
HETATM   10  C   UNL     1      -9.583  11.456  67.529  1.00  0.00    -0.167 A  
HETATM   11  C   UNL     1      -9.823  11.711  66.188  1.00  0.00    -0.250 A  
HETATM   12  C   UNL     1     -10.864   6.771  71.536  1.00  0.00    -0.234 C  
HETATM   13  C   UNL     1      -8.895   7.471  70.134  1.00  0.00    -0.147 C  
HETATM   14  H   UNL     1     -12.437   5.959  67.850  1.00  0.00     0.000 HD 
HETATM   15  O   UNL     1      -9.550   7.326  71.306  1.00  0.00    -0.163 OA 
HETATM   16  C   UNL     1      -9.380   9.375  65.691  1.00  0.00    -0.309 A  
HETATM   17  O   UNL     1      -7.729   7.841  70.156  1.00  0.00    -0.086 OA 
HETATM   18  C   UNL     1      -9.687  10.679  65.262  1.00  0.00    -0.315 A  
ENDROOT
BRANCH  10  19
HETATM   19  N   UNL     1      -9.820  12.483  68.499  1.00  0.00    -0.351 N  
HETATM   20  H   UNL     1      -9.072  12.787  69.124  1.00  0.00     0.000 HD 
BRANCH  19  21
HETATM   21  S   UNL     1     -11.382  13.197  68.596  1.00  0.00    -0.311 S  
HETATM   22  O   UNL     1     -12.186  12.584  67.552  1.00  0.00    -0.418 OA 
HETATM   23  O   UNL     1     -11.807  13.134  69.982  1.00  0.00    -0.321 OA 
BRANCH  21  24
HETATM   24  C   UNL     1     -11.182  14.926  68.198  1.00  0.00    -0.299 A  
HETATM   25  C   UNL     1     -10.702  17.262  68.599  1.00  0.00    -0.280 A  
HETATM   26  N   UNL     1     -11.093  15.117  66.894  1.00  0.00    -0.325 NA 
HETATM   27  F   UNL     1     -11.315  19.780  67.315  1.00  0.00    -0.489 F  
HETATM   28  C   UNL     1     -10.359  18.945  66.804  1.00  0.00    -0.414 C  
HETATM   29  F   UNL     1      -9.170  19.416  67.286  1.00  0.00    -0.317 F  
HETATM   30  C   UNL     1     -10.785  16.368  66.497  1.00  0.00    -0.163 A  
HETATM   31  F   UNL     1     -10.349  19.281  65.494  1.00  0.00    -0.410 F  
HETATM   32  C   UNL     1     -10.603  17.522  67.255  1.00  0.00    -0.287 A  
HETATM   33  C   UNL     1     -10.972  15.969  69.095  1.00  0.00    -0.297 A  
ENDBRANCH  21  24
ENDBRANCH  19  21
ENDBRANCH  10  19
BRANCH  12  34
HETATM   34  C   UNL     1     -10.701   5.388  72.186  1.00  0.00    -0.286 C  
BRANCH  34  35
HETATM   35  C   UNL     1      -9.273   5.212  72.751  1.00  0.00    -0.146 C  
BRANCH  35  36
HETATM   36  C   UNL     1      -8.605   4.036  72.143  1.00  0.00    -0.114 A  
HETATM   37  C   UNL     1      -7.967   2.722  70.243  1.00  0.00    -0.051 A  
HETATM   38  C   UNL     1      -8.557   3.876  70.762  1.00  0.00    -0.108 A  
HETATM   39  C   UNL     1      -7.467   1.950  72.476  1.00  0.00    -0.039 A  
HETATM   40  C   UNL     1      -7.422   1.770  71.092  1.00  0.00    -0.033 A  
HETATM   41  C   UNL     1      -8.058   3.089  73.001  1.00  0.00    -0.071 A  
ENDBRANCH  35  36
ENDBRANCH  34  35
ENDBRANCH  12  34
BRANCH  12  42
HETATM   42  C   UNL     1     -11.592   7.775  72.563  1.00  0.00    -0.422 C  
BRANCH  42  43
HETATM   43  C   UNL     1     -12.346   8.969  71.933  1.00  0.00    -0.455 C  
HETATM   44  C   UNL     1     -11.656   9.995  71.035  1.00  0.00    -0.476 C  
ENDBRANCH  42  43
ENDBRANCH  12  42
TORSDOF 8
ENDMDL
MODEL       42
REMARK 921   NORMALIZED FREE ENERGY PREDICTED BY IDOCK:   -6.92 KCAL/MOL
REMARK 922        TOTAL FREE ENERGY PREDICTED BY IDOCK:  -12.15 KCAL/MOL
REMARK 923 INTER-LIGAND FREE ENERGY PREDICTED BY IDOCK:   -9.16 KCAL/MOL
REMARK 924 INTRA-LIGAND FREE ENERGY PREDICTED BY IDOCK:   -2.99 KCAL/MOL
REMARK 927      BINDING AFFINITY PREDICTED BY RF-SCORE:    0.00 PKD
ROOT
HETATM    1  C   UNL     1      -6.450  13.113  68.255  1.00  0.00    -0.096 C  
HETATM    2  C   UNL     1      -7.327  14.259  67.683  1.00  0.00    -0.192 A  
HETATM    3  C   UNL     1      -6.239  13.167  69.782  1.00  0.00    -0.108 C  
HETATM    4  C   UNL     1      -6.834  11.681  67.762  1.00  0.00    -0.079 C  
HETATM    5  C   UNL     1      -5.532  14.408  70.302  1.00  0.00    -0.112 C  
HETATM    6  C   UNL     1      -8.715  14.138  67.481  1.00  0.00    -0.208 A  
HETATM    7  C   UNL     1      -6.271  11.076  66.693  1.00  0.00    -0.124 C  
HETATM    8  O   UNL     1      -5.300  11.701  65.926  1.00  0.00    -0.490 OA 
HETATM    9  C   UNL     1      -6.799   9.772  66.065  1.00  0.00    -0.094 C  
HETATM   10  C   UNL     1      -9.463  15.142  66.827  1.00  0.00    -0.242 A  
HETATM   11  C   UNL     1      -8.852  16.325  66.439  1.00  0.00    -0.346 A  
HETATM   12  C   UNL     1      -7.905   9.042  66.826  1.00  0.00    -0.104 C  
HETATM   13  C   UNL     1      -7.879  10.920  68.501  1.00  0.00    -0.126 C  
HETATM   14  H   UNL     1      -4.904  11.275  65.174  1.00  0.00     0.000 HD 
HETATM   15  O   UNL     1      -8.372   9.776  67.980  1.00  0.00    -0.110 OA 
HETATM   16  C   UNL     1      -6.743  15.489  67.305  1.00  0.00    -0.128 A  
HETATM   17  O   UNL     1      -8.329  11.320  69.566  1.00  0.00     0.202 OA 
HETATM   18  C   UNL     1      -7.499  16.514  66.709  1.00  0.00    -0.281 A  
ENDROOT
BRANCH  10  19
HETATM   19  N   UNL     1     -10.826  14.896  66.462  1.00  0.00    -0.317 N  
HETATM   20  H   UNL     1     -11.516  15.648  66.501  1.00  0.00     0.000 HD 
BRANCH  19  21
HETATM   21  S   UNL     1     -11.285  13.316  65.957  1.00  0.00    -0.303 S  
HETATM   22  O   UNL     1     -12.492  13.467  65.163  1.00  0.00    -0.424 OA 
HETATM   23  O   UNL     1     -10.110  12.679  65.394  1.00  0.00    -0.280 OA 
BRANCH  21  24
HETATM   24  C   UNL     1     -11.703  12.408  67.436  1.00  0.00    -0.347 A  
HETATM   25  C   UNL     1     -11.845  10.495  68.908  1.00  0.00    -0.136 A  
HETATM   26  N   UNL     1     -11.999  13.218  68.437  1.00  0.00    -0.338 NA 
HETATM   27  F   UNL     1     -13.466   9.703  71.171  1.00  0.00    -0.396 F  
HETATM   28  C   UNL     1     -12.464  10.625  71.311  1.00  0.00    -0.410 C  
HETATM   29  F   UNL     1     -11.385   9.922  71.767  1.00  0.00    -0.416 F  
HETATM   30  C   UNL     1     -12.179  12.635  69.639  1.00  0.00    -0.114 A  
HETATM   31  F   UNL     1     -12.877  11.342  72.382  1.00  0.00    -0.393 F  
HETATM   32  C   UNL     1     -12.161  11.287  69.985  1.00  0.00    -0.389 A  
HETATM   33  C   UNL     1     -11.594  11.034  67.629  1.00  0.00    -0.228 A  
ENDBRANCH  21  24
ENDBRANCH  19  21
ENDBRANCH  10  19
BRANCH  12  34
HETATM   34  C   UNL     1      -7.198   7.767  67.314  1.00  0.00    -0.090 C  
BRANCH  34  35
HETATM   35  C   UNL     1      -7.214   7.687  68.857  1.00  0.00    -0.081 C  
BRANCH  35  36
HETATM   36  C   UNL     1      -8.196   6.679  69.325  1.00  0.00    -0.124 A  
HETATM   37  C   UNL     1     -10.069   6.026  70.668  1.00  0.00    -0.246 A  
HETATM   38  C   UNL     1      -9.207   7.027  70.214  1.00  0.00    -0.156 A  
HETATM   39  C   UNL     1      -8.915   4.390  69.319  1.00  0.00    -0.148 A  
HETATM   40  C   UNL     1      -9.928   4.722  70.220  1.00  0.00    -0.320 A  
HETATM   41  C   UNL     1      -8.049   5.374  68.867  1.00  0.00    -0.094 A  
ENDBRANCH  35  36
ENDBRANCH  34  35
ENDBRANCH  12  34
BRANCH  12  42
HETATM   42  C   UNL     1      -9.224   8.649  65.991  1.00  0.00    -0.276 C  
BRANCH  42  43
HETATM   43  C   UNL     1      -9.784   7.227  66.224  1.00  0.00    -0.068 C  
HETATM   44  C   UNL     1     -11.018   6.961  67.085  1.00  0.00    -0.427 C  
ENDBRANCH  42  43
ENDBRANCH  12  42
TORSDOF 8
ENDMDL
MODEL       43
REMARK 921   NORMALIZED FREE ENERGY PREDICTED BY IDOCK:   -6.90 KCAL/MOL
REMARK 922        TOTAL FREE ENERGY PREDICTED BY IDOCK:  -12.12 KCAL/MOL
REMARK 923 INTER-LIGAND FREE ENERGY PREDICTED BY IDOCK:  -10.21 KCAL/MOL
REMARK 924 INTRA-LIGAND FREE ENERGY PREDICTED BY IDOCK:   -1.91 KCAL/MOL
REMARK 927      BINDING AFFINITY PREDICTED BY RF-SCORE:    0.00 PKD
ROOT
HETATM    1  C   UNL     1     -10.682   9.972  70.355  1.00  0.00    -0.369 C  
HETATM    2  C   UNL     1     -11.240  11.160  69.526  1.00  0.00    -0.341 A  
HETATM    3  C   UNL     1     -11.759   9.046  70.956  1.00  0.00    -0.353 C  
HETATM    4  C   UNL     1      -9.530   9.171  69.667  1.00  0.00    -0.178 C  
HETATM    5  C   UNL     1     -12.718   9.704  71.934  1.00  0.00    -0.499 C  
HETATM    6  C   UNL     1     -11.409  11.109  68.130  1.00  0.00    -0.377 A  
HETATM    7  C   UNL     1      -8.217   9.431  69.850  1.00  0.00    -0.149 C  
HETATM    8  O   UNL     1      -7.783  10.461  70.668  1.00  0.00    -0.370 OA 
HETATM    9  C   UNL     1      -7.090   8.804  69.007  1.00  0.00    -0.065 C  
HETATM   10  C   UNL     1     -11.782  12.250  67.384  1.00  0.00    -0.335 A  
HETATM   11  C   UNL     1     -12.075  13.441  68.030  1.00  0.00    -0.283 A  
HETATM   12  C   UNL     1      -7.492   7.688  68.043  1.00  0.00    -0.104 C  
HETATM   13  C   UNL     1      -9.880   8.049  68.752  1.00  0.00    -0.172 C  
HETATM   14  H   UNL     1      -6.859  10.644  70.797  1.00  0.00     0.000 HD 
HETATM   15  O   UNL     1      -8.921   7.478  67.991  1.00  0.00    -0.130 OA 
HETATM   16  C   UNL     1     -11.577  12.378  70.157  1.00  0.00    -0.159 A  
HETATM   17  O   UNL     1     -11.029   7.642  68.648  1.00  0.00    -0.040 OA 
HETATM   18  C   UNL     1     -12.007  13.497  69.420  1.00  0.00    -0.383 A  
ENDROOT
BRANCH  10  19
HETATM   19  N   UNL     1     -11.749  12.211  65.952  1.00  0.00    -0.378 N  
HETATM   20  H   UNL     1     -12.532  11.821  65.427  1.00  0.00     0.000 HD 
BRANCH  19  21
HETATM   21  S   UNL     1     -10.369  12.830  65.130  1.00  0.00    -0.286 S  
HETATM   22  O   UNL     1      -9.219  12.109  65.647  1.00  0.00    -0.108 OA 
HETATM   23  O   UNL     1     -10.665  12.820  63.711  1.00  0.00    -0.413 OA 
BRANCH  21  24
HETATM   24  C   UNL     1     -10.213  14.542  65.611  1.00  0.00    -0.357 A  
HETATM   25  C   UNL     1      -9.229  16.472  66.687  1.00  0.00    -0.275 A  
HETATM   26  N   UNL     1     -10.977  15.326  64.872  1.00  0.00    -0.428 NA 
HETATM   27  F   UNL     1     -10.132  19.083  67.546  1.00  0.00    -0.338 F  
HETATM   28  C   UNL     1      -9.897  18.820  66.224  1.00  0.00    -0.353 C  
HETATM   29  F   UNL     1      -8.631  19.275  65.983  1.00  0.00    -0.320 F  
HETATM   30  C   UNL     1     -10.816  16.653  65.052  1.00  0.00    -0.176 A  
HETATM   31  F   UNL     1     -10.700  19.713  65.603  1.00  0.00    -0.563 F  
HETATM   32  C   UNL     1     -10.002  17.336  65.951  1.00  0.00    -0.191 A  
HETATM   33  C   UNL     1      -9.304  15.073  66.522  1.00  0.00    -0.309 A  
ENDBRANCH  21  24
ENDBRANCH  19  21
ENDBRANCH  10  19
BRANCH  12  34
HETATM   34  C   UNL     1      -6.841   6.446  68.671  1.00  0.00    -0.074 C  
BRANCH  34  35
HETATM   35  C   UNL     1      -6.670   6.627  70.196  1.00  0.00    -0.052 C  
BRANCH  35  36
HETATM   36  C   UNL     1      -7.794   5.999  70.933  1.00  0.00    -0.107 A  
HETATM   37  C   UNL     1      -9.288   5.887  72.803  1.00  0.00    -0.147 A  
HETATM   38  C   UNL     1      -8.268   6.551  72.119  1.00  0.00    -0.107 A  
HETATM   39  C   UNL     1      -9.351   4.181  71.095  1.00  0.00    -0.219 A  
HETATM   40  C   UNL     1      -9.829   4.716  72.292  1.00  0.00    -0.222 A  
HETATM   41  C   UNL     1      -8.333   4.828  70.412  1.00  0.00    -0.090 A  
ENDBRANCH  35  36
ENDBRANCH  34  35
ENDBRANCH  12  34
BRANCH  12  42
HETATM   42  C   UNL     1      -7.014   7.842  66.513  1.00  0.00    -0.071 C  
BRANCH  42  43
HETATM   43  C   UNL     1      -8.122   7.759  65.438  1.00  0.00    -0.131 C  
HETATM   44  C   UNL     1      -8.586   8.976  64.640  1.00  0.00    -0.190 C  
ENDBRANCH  42  43
ENDBRANCH  12  42
TORSDOF 8
ENDMDL
MODEL       44
REMARK 921   NORMALIZED FREE ENERGY PREDICTED BY IDOCK:   -6.87 KCAL/MOL
REMARK 922        TOTAL FREE ENERGY PREDICTED BY IDOCK:  -12.07 KCAL/MOL
REMARK 923 INTER-LIGAND FREE ENERGY PREDICTED BY IDOCK:   -8.60 KCAL/MOL
REMARK 924 INTRA-LIGAND FREE ENERGY PREDICTED BY IDOCK:   -3.47 KCAL/MOL
REMARK 927      BINDING AFFINITY PREDICTED BY RF-SCORE:    0.00 PKD
ROOT
HETATM    1  C   UNL     1      -9.230  15.586  68.751  1.00  0.00    -0.210 C  
HETATM    2  C   UNL     1      -9.913  16.098  67.454  1.00  0.00    -0.247 A  
HETATM    3  C   UNL     1     -10.193  15.344  69.931  1.00  0.00    -0.279 C  
HETATM    4  C   UNL     1      -8.234  14.399  68.547  1.00  0.00    -0.151 C  
HETATM    5  C   UNL     1     -10.948  16.568  70.422  1.00  0.00    -0.135 C  
HETATM    6  C   UNL     1     -10.334  15.244  66.419  1.00  0.00    -0.296 A  
HETATM    7  C   UNL     1      -6.906  14.554  68.352  1.00  0.00    -0.104 C  
HETATM    8  O   UNL     1      -6.316  15.807  68.302  1.00  0.00    -0.105 OA 
HETATM    9  C   UNL     1      -5.960  13.416  67.924  1.00  0.00    -0.140 C  
HETATM   10  C   UNL     1     -10.820  15.745  65.190  1.00  0.00    -0.428 A  
HETATM   11  C   UNL     1     -10.975  17.111  65.007  1.00  0.00     0.097 A  
HETATM   12  C   UNL     1      -6.546  12.005  67.909  1.00  0.00    -0.076 C  
HETATM   13  C   UNL     1      -8.760  13.006  68.565  1.00  0.00    -0.042 C  
HETATM   14  H   UNL     1      -5.381  15.916  68.166  1.00  0.00     0.000 HD 
HETATM   15  O   UNL     1      -7.964  11.982  68.190  1.00  0.00    -0.135 OA 
HETATM   16  C   UNL     1     -10.112  17.482  67.247  1.00  0.00    -0.327 A  
HETATM   17  O   UNL     1      -9.915  12.762  68.889  1.00  0.00    -0.057 OA 
HETATM   18  C   UNL     1     -10.654  17.979  66.048  1.00  0.00    -0.258 A  
ENDROOT
BRANCH  10  19
HETATM   19  N   UNL     1     -11.049  14.853  64.093  1.00  0.00    -0.471 N  
HETATM   20  H   UNL     1     -10.548  14.977  63.213  1.00  0.00     0.000 HD 
BRANCH  19  21
HETATM   21  S   UNL     1     -12.181  13.570  64.280  1.00  0.00    -0.370 S  
HETATM   22  O   UNL     1     -13.138  14.003  65.284  1.00  0.00    -0.782 OA 
HETATM   23  O   UNL     1     -12.630  13.187  62.955  1.00  0.00    -0.572 OA 
BRANCH  21  24
HETATM   24  C   UNL     1     -11.275  12.180  64.940  1.00  0.00    -0.323 A  
HETATM   25  C   UNL     1     -10.667  10.481  66.549  1.00  0.00    -0.191 A  
HETATM   26  N   UNL     1     -10.597  11.551  63.997  1.00  0.00    -0.346 NA 
HETATM   27  F   UNL     1      -8.351   8.833  67.087  1.00  0.00    -0.102 F  
HETATM   28  C   UNL     1      -9.191   8.547  66.046  1.00  0.00    -0.202 C  
HETATM   29  F   UNL     1     -10.048   7.595  66.523  1.00  0.00    -0.296 F  
HETATM   30  C   UNL     1     -10.003  10.397  64.363  1.00  0.00    -0.318 A  
HETATM   31  F   UNL     1      -8.381   7.875  65.195  1.00  0.00    -0.132 F  
HETATM   32  C   UNL     1      -9.942   9.786  65.612  1.00  0.00    -0.352 A  
HETATM   33  C   UNL     1     -11.358  11.670  66.232  1.00  0.00    -0.293 A  
ENDBRANCH  21  24
ENDBRANCH  19  21
ENDBRANCH  10  19
BRANCH  12  34
HETATM   34  C   UNL     1      -5.809  11.318  69.068  1.00  0.00    -0.041 C  
BRANCH  34  35
HETATM   35  C   UNL     1      -6.793  10.945  70.200  1.00  0.00    -0.014 C  
BRANCH  35  36
HETATM   36  C   UNL     1      -7.187   9.519  70.111  1.00  0.00    -0.114 A  
HETATM   37  C   UNL     1      -6.744   7.242  69.509  1.00  0.00    -0.045 A  
HETATM   38  C   UNL     1      -6.302   8.561  69.628  1.00  0.00    -0.039 A  
HETATM   39  C   UNL     1      -8.906   7.867  70.385  1.00  0.00    -0.142 A  
HETATM   40  C   UNL     1      -8.032   6.897  69.891  1.00  0.00    -0.120 A  
HETATM   41  C   UNL     1      -8.479   9.181  70.500  1.00  0.00    -0.236 A  
ENDBRANCH  35  36
ENDBRANCH  34  35
ENDBRANCH  12  34
BRANCH  12  42
HETATM   42  C   UNL     1      -6.353  11.153  66.556  1.00  0.00    -0.132 C  
BRANCH  42  43
HETATM   43  C   UNL     1      -5.152  10.180  66.526  1.00  0.00    -0.040 C  
HETATM   44  C   UNL     1      -5.260   8.756  65.981  1.00  0.00    -0.030 C  
ENDBRANCH  42  43
ENDBRANCH  12  42
TORSDOF 8
ENDMDL
MODEL       45
REMARK 921   NORMALIZED FREE ENERGY PREDICTED BY IDOCK:   -6.85 KCAL/MOL
REMARK 922        TOTAL FREE ENERGY PREDICTED BY IDOCK:  -12.05 KCAL/MOL
REMARK 923 INTER-LIGAND FREE ENERGY PREDICTED BY IDOCK:   -9.78 KCAL/MOL
REMARK 924 INTRA-LIGAND FREE ENERGY PREDICTED BY IDOCK:   -2.27 KCAL/MOL
REMARK 927      BINDING AFFINITY PREDICTED BY RF-SCORE:    0.00 PKD
ROOT
HETATM    1  C   UNL     1      -7.333  10.786  68.376  1.00  0.00    -0.092 C  
HETATM    2  C   UNL     1      -7.672   9.887  69.595  1.00  0.00    -0.149 A  
HETATM    3  C   UNL     1      -7.194  10.030  67.039  1.00  0.00    -0.090 C  
HETATM    4  C   UNL     1      -8.211  12.072  68.240  1.00  0.00    -0.161 C  
HETATM    5  C   UNL     1      -6.093   8.984  66.989  1.00  0.00    -0.058 C  
HETATM    6  C   UNL     1      -8.988   9.662  70.041  1.00  0.00    -0.266 A  
HETATM    7  C   UNL     1      -7.870  13.275  68.751  1.00  0.00     0.008 C  
HETATM    8  O   UNL     1      -6.696  13.461  69.464  1.00  0.00    -0.238 OA 
HETATM    9  C   UNL     1      -8.825  14.481  68.823  1.00  0.00    -0.153 C  
HETATM   10  C   UNL     1      -9.259   8.958  71.236  1.00  0.00    -0.258 A  
HETATM   11  C   UNL     1      -8.223   8.392  71.962  1.00  0.00    -0.212 A  
HETATM   12  C   UNL     1     -10.163  14.342  68.098  1.00  0.00    -0.232 C  
HETATM   13  C   UNL     1      -9.504  11.987  67.507  1.00  0.00    -0.178 C  
HETATM   14  H   UNL     1      -6.456  14.307  69.824  1.00  0.00     0.000 HD 
HETATM   15  O   UNL     1     -10.371  13.021  67.551  1.00  0.00    -0.221 OA 
HETATM   16  C   UNL     1      -6.643   9.270  70.340  1.00  0.00    -0.068 A  
HETATM   17  O   UNL     1      -9.819  10.985  66.879  1.00  0.00    -0.185 OA 
HETATM   18  C   UNL     1      -6.916   8.517  71.496  1.00  0.00    -0.083 A  
ENDROOT
BRANCH  10  19
HETATM   19  N   UNL     1     -10.593   8.924  71.759  1.00  0.00    -0.341 N  
HETATM   20  H   UNL     1     -10.986   9.740  72.228  1.00  0.00     0.000 HD 
BRANCH  19  21
HETATM   21  S   UNL     1     -11.522   7.486  71.586  1.00  0.00    -0.271 S  
HETATM   22  O   UNL     1     -11.366   6.738  72.822  1.00  0.00    -0.254 OA 
HETATM   23  O   UNL     1     -12.841   7.870  71.123  1.00  0.00    -0.245 OA 
BRANCH  21  24
HETATM   24  C   UNL     1     -10.768   6.544  70.270  1.00  0.00    -0.255 A  
HETATM   25  C   UNL     1      -9.429   4.799  69.266  1.00  0.00    -0.221 A  
HETATM   26  N   UNL     1     -11.329   6.804  69.103  1.00  0.00    -0.174 NA 
HETATM   27  F   UNL     1      -8.103   4.367  66.731  1.00  0.00    -0.099 F  
HETATM   28  C   UNL     1      -9.460   4.233  66.847  1.00  0.00    -0.187 C  
HETATM   29  F   UNL     1      -9.678   2.895  67.023  1.00  0.00    -0.164 F  
HETATM   30  C   UNL     1     -10.937   6.032  68.070  1.00  0.00    -0.245 A  
HETATM   31  F   UNL     1      -9.886   4.480  65.586  1.00  0.00    -0.158 F  
HETATM   32  C   UNL     1      -9.974   5.028  68.026  1.00  0.00    -0.189 A  
HETATM   33  C   UNL     1      -9.823   5.531  70.405  1.00  0.00    -0.259 A  
ENDBRANCH  21  24
ENDBRANCH  19  21
ENDBRANCH  10  19
BRANCH  12  34
HETATM   34  C   UNL     1     -10.025  15.335  66.934  1.00  0.00    -0.243 C  
BRANCH  34  35
HETATM   35  C   UNL     1     -11.125  16.419  67.003  1.00  0.00     0.067 C  
BRANCH  35  36
HETATM   36  C   UNL     1     -10.532  17.763  67.207  1.00  0.00    -0.356 A  
HETATM   37  C   UNL     1      -9.572  19.452  68.609  1.00  0.00    -0.490 A  
HETATM   38  C   UNL     1     -10.066  18.155  68.458  1.00  0.00    -0.413 A  
HETATM   39  C   UNL     1      -9.987  19.905  66.274  1.00  0.00    -0.596 A  
HETATM   40  C   UNL     1      -9.527  20.316  67.526  1.00  0.00    -0.539 A  
HETATM   41  C   UNL     1     -10.487  18.621  66.115  1.00  0.00    -0.473 A  
ENDBRANCH  35  36
ENDBRANCH  34  35
ENDBRANCH  12  34
BRANCH  12  42
HETATM   42  C   UNL     1     -11.489  14.679  68.950  1.00  0.00    -0.323 C  
BRANCH  42  43
HETATM   43  C   UNL     1     -11.295  14.863  70.472  1.00  0.00    -0.280 C  
HETATM   44  C   UNL     1     -11.520  16.202  71.173  1.00  0.00    -0.433 C  
ENDBRANCH  42  43
ENDBRANCH  12  42
TORSDOF 8
ENDMDL
MODEL       46
REMARK 921   NORMALIZED FREE ENERGY PREDICTED BY IDOCK:   -6.76 KCAL/MOL
REMARK 922        TOTAL FREE ENERGY PREDICTED BY IDOCK:  -11.92 KCAL/MOL
REMARK 923 INTER-LIGAND FREE ENERGY PREDICTED BY IDOCK:   -9.86 KCAL/MOL
REMARK 924 INTRA-LIGAND FREE ENERGY PREDICTED BY IDOCK:   -2.06 KCAL/MOL
REMARK 927      BINDING AFFINITY PREDICTED BY RF-SCORE:    0.00 PKD
ROOT
HETATM    1  C   UNL     1      -7.007   9.535  67.331  1.00  0.00    -0.084 C  
HETATM    2  C   UNL     1      -7.638   9.897  65.960  1.00  0.00    -0.106 A  
HETATM    3  C   UNL     1      -6.330  10.715  68.057  1.00  0.00    -0.058 C  
HETATM    4  C   UNL     1      -7.927   8.705  68.282  1.00  0.00    -0.110 C  
HETATM    5  C   UNL     1      -5.164  11.357  67.321  1.00  0.00    -0.062 C  
HETATM    6  C   UNL     1      -8.992  10.252  65.807  1.00  0.00    -0.185 A  
HETATM    7  C   UNL     1      -7.925   7.356  68.344  1.00  0.00    -0.124 C  
HETATM    8  O   UNL     1      -7.099   6.587  67.540  1.00  0.00    -0.075 OA 
HETATM    9  C   UNL     1      -8.980   6.528  69.103  1.00  0.00    -0.130 C  
HETATM   10  C   UNL     1      -9.574  10.436  64.533  1.00  0.00    -0.309 A  
HETATM   11  C   UNL     1      -8.793  10.353  63.391  1.00  0.00    -0.218 A  
HETATM   12  C   UNL     1      -9.961   7.304  69.981  1.00  0.00    -0.184 C  
HETATM   13  C   UNL     1      -8.870   9.426  69.183  1.00  0.00    -0.143 C  
HETATM   14  H   UNL     1      -7.097   5.638  67.584  1.00  0.00     0.000 HD 
HETATM   15  O   UNL     1      -9.813   8.736  69.860  1.00  0.00    -0.177 OA 
HETATM   16  C   UNL     1      -6.864   9.852  64.779  1.00  0.00    -0.129 A  
HETATM   17  O   UNL     1      -8.831  10.642  69.308  1.00  0.00    -0.153 OA 
HETATM   18  C   UNL     1      -7.429  10.095  63.514  1.00  0.00    -0.132 A  
ENDROOT
BRANCH  10  19
HETATM   19  N   UNL     1     -10.992  10.598  64.411  1.00  0.00    -0.041 N  
HETATM   20  H   UNL     1     -11.602   9.782  64.342  1.00  0.00     0.000 HD 
BRANCH  19  21
HETATM   21  S   UNL     1     -11.653  12.187  64.380  1.00  0.00    -0.347 S  
HETATM   22  O   UNL     1     -10.707  13.016  63.653  1.00  0.00    -0.299 OA 
HETATM   23  O   UNL     1     -13.029  12.079  63.934  1.00  0.00    -0.669 OA 
BRANCH  21  24
HETATM   24  C   UNL     1     -11.702  12.754  66.072  1.00  0.00    -0.418 A  
HETATM   25  C   UNL     1     -11.999  14.325  67.886  1.00  0.00    -0.364 A  
HETATM   26  N   UNL     1     -11.744  11.743  66.922  1.00  0.00    -0.584 NA 
HETATM   27  F   UNL     1     -11.152  14.531  70.644  1.00  0.00    -0.229 F  
HETATM   28  C   UNL     1     -12.160  13.681  70.279  1.00  0.00    -0.357 C  
HETATM   29  F   UNL     1     -13.318  14.363  70.527  1.00  0.00    -0.381 F  
HETATM   30  C   UNL     1     -11.939  12.064  68.217  1.00  0.00    -0.179 A  
HETATM   31  F   UNL     1     -12.110  12.739  71.250  1.00  0.00    -0.341 F  
HETATM   32  C   UNL     1     -12.044  13.316  68.816  1.00  0.00    -0.254 A  
HETATM   33  C   UNL     1     -11.848  14.068  66.507  1.00  0.00    -0.439 A  
ENDBRANCH  21  24
ENDBRANCH  19  21
ENDBRANCH  10  19
BRANCH  12  34
HETATM   34  C   UNL     1      -9.547   6.890  71.402  1.00  0.00    -0.167 C  
BRANCH  34  35
HETATM   35  C   UNL     1      -8.705   5.595  71.373  1.00  0.00    -0.133 C  
BRANCH  35  36
HETATM   36  C   UNL     1      -9.390   4.501  72.103  1.00  0.00    -0.175 A  
HETATM   37  C   UNL     1     -10.275   2.278  72.222  1.00  0.00    -0.210 A  
HETATM   38  C   UNL     1      -9.572   3.254  71.514  1.00  0.00    -0.234 A  
HETATM   39  C   UNL     1     -10.559   3.798  74.076  1.00  0.00    -0.280 A  
HETATM   40  C   UNL     1     -10.759   2.545  73.493  1.00  0.00    -0.270 A  
HETATM   41  C   UNL     1      -9.868   4.777  73.379  1.00  0.00    -0.165 A  
ENDBRANCH  35  36
ENDBRANCH  34  35
ENDBRANCH  12  34
BRANCH  12  42
HETATM   42  C   UNL     1     -11.528   7.003  69.759  1.00  0.00    -0.177 C  
BRANCH  42  43
HETATM   43  C   UNL     1     -12.393   6.901  71.036  1.00  0.00    -0.401 C  
HETATM   44  C   UNL     1     -12.932   8.132  71.764  1.00  0.00    -0.364 C  
ENDBRANCH  42  43
ENDBRANCH  12  42
TORSDOF 8
ENDMDL
MODEL       47
REMARK 921   NORMALIZED FREE ENERGY PREDICTED BY IDOCK:   -6.64 KCAL/MOL
REMARK 922        TOTAL FREE ENERGY PREDICTED BY IDOCK:  -11.74 KCAL/MOL
REMARK 923 INTER-LIGAND FREE ENERGY PREDICTED BY IDOCK:   -8.94 KCAL/MOL
REMARK 924 INTRA-LIGAND FREE ENERGY PREDICTED BY IDOCK:   -2.80 KCAL/MOL
REMARK 927      BINDING AFFINITY PREDICTED BY RF-SCORE:    0.00 PKD
ROOT
HETATM    1  C   UNL     1     -11.311  12.049  65.586  1.00  0.00    -0.381 C  
HETATM    2  C   UNL     1     -11.039  13.575  65.491  1.00  0.00    -0.303 A  
HETATM    3  C   UNL     1     -11.271  11.305  64.237  1.00  0.00    -0.214 C  
HETATM    4  C   UNL     1     -10.502  11.304  66.697  1.00  0.00    -0.292 C  
HETATM    5  C   UNL     1     -12.298  11.754  63.210  1.00  0.00    -0.412 C  
HETATM    6  C   UNL     1      -9.763  14.141  65.667  1.00  0.00    -0.210 A  
HETATM    7  C   UNL     1     -10.963  11.087  67.948  1.00  0.00    -0.264 C  
HETATM    8  O   UNL     1     -12.210  11.533  68.355  1.00  0.00    -0.540 OA 
HETATM    9  C   UNL     1     -10.093  10.564  69.107  1.00  0.00    -0.240 C  
HETATM   10  C   UNL     1      -9.569  15.539  65.718  1.00  0.00    -0.332 A  
HETATM   11  C   UNL     1     -10.636  16.399  65.508  1.00  0.00    -0.346 A  
HETATM   12  C   UNL     1      -8.684  10.092  68.750  1.00  0.00    -0.138 C  
HETATM   13  C   UNL     1      -9.139  10.794  66.377  1.00  0.00    -0.171 C  
HETATM   14  H   UNL     1     -12.534  11.380  69.236  1.00  0.00     0.000 HD 
HETATM   15  O   UNL     1      -8.345  10.333  67.366  1.00  0.00    -0.117 OA 
HETATM   16  C   UNL     1     -12.099  14.478  65.249  1.00  0.00    -0.337 A  
HETATM   17  O   UNL     1      -8.705  10.805  65.233  1.00  0.00    -0.189 OA 
HETATM   18  C   UNL     1     -11.896  15.869  65.238  1.00  0.00     0.523 A  
ENDROOT
BRANCH  10  19
HETATM   19  N   UNL     1      -8.294  16.072  66.097  1.00  0.00    -0.285 N  
HETATM   20  H   UNL     1      -7.540  16.143  65.414  1.00  0.00     0.000 HD 
BRANCH  19  21
HETATM   21  S   UNL     1      -8.054  16.590  67.721  1.00  0.00    -0.163 S  
HETATM   22  O   UNL     1      -6.864  15.911  68.202  1.00  0.00    -0.112 OA 
HETATM   23  O   UNL     1      -8.129  18.038  67.733  1.00  0.00    -0.230 OA 
BRANCH  21  24
HETATM   24  C   UNL     1      -9.451  15.995  68.660  1.00  0.00    -0.224 A  
HETATM   25  C   UNL     1     -10.796  14.396  69.877  1.00  0.00    -0.030 A  
HETATM   26  N   UNL     1     -10.172  16.990  69.142  1.00  0.00    -0.301 NA 
HETATM   27  F   UNL     1     -13.580  14.130  70.619  1.00  0.00    -0.282 F  
HETATM   28  C   UNL     1     -12.756  15.001  71.279  1.00  0.00    -0.348 C  
HETATM   29  F   UNL     1     -12.338  14.331  72.394  1.00  0.00    -0.355 F  
HETATM   30  C   UNL     1     -11.160  16.650  69.994  1.00  0.00    -0.094 A  
HETATM   31  F   UNL     1     -13.627  15.925  71.747  1.00  0.00    -0.523 F  
HETATM   32  C   UNL     1     -11.585  15.389  70.405  1.00  0.00    -0.352 A  
HETATM   33  C   UNL     1      -9.713  14.675  69.018  1.00  0.00    -0.161 A  
ENDBRANCH  21  24
ENDBRANCH  19  21
ENDBRANCH  10  19
BRANCH  12  34
HETATM   34  C   UNL     1      -8.766   8.574  68.973  1.00  0.00    -0.134 C  
BRANCH  34  35
HETATM   35  C   UNL     1      -8.019   7.813  67.855  1.00  0.00    -0.125 C  
BRANCH  35  36
HETATM   36  C   UNL     1      -8.912   6.830  67.196  1.00  0.00    -0.116 A  
HETATM   37  C   UNL     1     -11.088   5.953  66.710  1.00  0.00    -0.157 A  
HETATM   38  C   UNL     1     -10.295   6.939  67.300  1.00  0.00    -0.320 A  
HETATM   39  C   UNL     1      -9.115   4.815  65.910  1.00  0.00    -0.137 A  
HETATM   40  C   UNL     1     -10.504   4.905  66.016  1.00  0.00    -0.327 A  
HETATM   41  C   UNL     1      -8.317   5.784  66.499  1.00  0.00    -0.111 A  
ENDBRANCH  35  36
ENDBRANCH  34  35
ENDBRANCH  12  34
BRANCH  12  42
HETATM   42  C   UNL     1      -7.472  10.708  69.613  1.00  0.00    -0.121 C  
BRANCH  42  43
HETATM   43  C   UNL     1      -7.157  12.203  69.381  1.00  0.00     0.112 C  
HETATM   44  C   UNL     1      -5.728  12.736  69.277  1.00  0.00    -0.081 C  
ENDBRANCH  42  43
ENDBRANCH  12  42
TORSDOF 8
ENDMDL
MODEL       48
REMARK 921   NORMALIZED FREE ENERGY PREDICTED BY IDOCK:   -6.61 KCAL/MOL
REMARK 922        TOTAL FREE ENERGY PREDICTED BY IDOCK:  -11.69 KCAL/MOL
REMARK 923 INTER-LIGAND FREE ENERGY PREDICTED BY IDOCK:   -9.88 KCAL/MOL
REMARK 924 INTRA-LIGAND FREE ENERGY PREDICTED BY IDOCK:   -1.81 KCAL/MOL
REMARK 927      BINDING AFFINITY PREDICTED BY RF-SCORE:    0.00 PKD
ROOT
HETATM    1  C   UNL     1     -10.670  11.410  69.495  1.00  0.00    -0.098 C  
HETATM    2  C   UNL     1     -11.347  12.702  68.966  1.00  0.00    -0.345 A  
HETATM    3  C   UNL     1     -11.640  10.385  70.117  1.00  0.00    -0.392 C  
HETATM    4  C   UNL     1      -9.660  10.743  68.506  1.00  0.00    -0.183 C  
HETATM    5  C   UNL     1     -12.413  10.869  71.333  1.00  0.00    -0.460 C  
HETATM    6  C   UNL     1     -11.751  12.866  67.628  1.00  0.00    -0.422 A  
HETATM    7  C   UNL     1      -8.332  10.992  68.503  1.00  0.00    -0.149 C  
HETATM    8  O   UNL     1      -7.755  11.890  69.386  1.00  0.00    -0.336 OA 
HETATM    9  C   UNL     1      -7.371  10.521  67.395  1.00  0.00    -0.093 C  
HETATM   10  C   UNL     1     -12.232  14.102  67.141  1.00  0.00    -0.313 A  
HETATM   11  C   UNL     1     -12.399  15.174  68.004  1.00  0.00     0.392 A  
HETATM   12  C   UNL     1      -7.942   9.561  66.352  1.00  0.00    -0.111 C  
HETATM   13  C   UNL     1     -10.171   9.771  67.500  1.00  0.00    -0.220 C  
HETATM   14  H   UNL     1      -6.821  12.066  69.384  1.00  0.00     0.000 HD 
HETATM   15  O   UNL     1      -9.361   9.340  66.510  1.00  0.00    -0.155 OA 
HETATM   16  C   UNL     1     -11.560  13.804  69.825  1.00  0.00    -0.324 A  
HETATM   17  O   UNL     1     -11.326   9.366  67.530  1.00  0.00     0.167 OA 
HETATM   18  C   UNL     1     -12.096  15.016  69.354  1.00  0.00    -0.290 A  
ENDROOT
BRANCH  10  19
HETATM   19  N   UNL     1     -12.442  14.285  65.735  1.00  0.00    -0.431 N  
HETATM   20  H   UNL     1     -13.334  14.034  65.308  1.00  0.00     0.000 HD 
BRANCH  19  21
HETATM   21  S   UNL     1     -11.169  14.935  64.777  1.00  0.00    -0.361 S  
HETATM   22  O   UNL     1     -10.227  13.852  64.547  1.00  0.00    -0.405 OA 
HETATM   23  O   UNL     1     -11.775  15.632  63.659  1.00  0.00    -0.215 OA 
BRANCH  21  24
HETATM   24  C   UNL     1     -10.357  16.173  65.776  1.00  0.00    -0.378 A  
HETATM   25  C   UNL     1      -8.712  17.074  67.303  1.00  0.00    -0.212 A  
HETATM   26  N   UNL     1     -10.732  17.393  65.437  1.00  0.00    -0.576 NA 
HETATM   27  F   UNL     1      -8.524  19.347  69.082  1.00  0.00    -0.386 F  
HETATM   28  C   UNL     1      -8.385  19.499  67.729  1.00  0.00    -0.310 C  
HETATM   29  F   UNL     1      -7.037  19.496  67.501  1.00  0.00    -0.225 F  
HETATM   30  C   UNL     1     -10.063  18.405  66.026  1.00  0.00    -0.279 A  
HETATM   31  F   UNL     1      -8.756  20.787  67.542  1.00  0.00    -0.396 F  
HETATM   32  C   UNL     1      -9.064  18.365  66.994  1.00  0.00    -0.274 A  
HETATM   33  C   UNL     1      -9.331  15.962  66.693  1.00  0.00    -0.274 A  
ENDBRANCH  21  24
ENDBRANCH  19  21
ENDBRANCH  10  19
BRANCH  12  34
HETATM   34  C   UNL     1      -7.207   8.248  66.660  1.00  0.00    -0.081 C  
BRANCH  34  35
HETATM   35  C   UNL     1      -7.620   7.141  65.664  1.00  0.00    -0.093 C  
BRANCH  35  36
HETATM   36  C   UNL     1      -8.273   6.011  66.368  1.00  0.00    -0.112 A  
HETATM   37  C   UNL     1      -9.519   3.964  66.368  1.00  0.00    -0.204 A  
HETATM   38  C   UNL     1      -8.866   4.973  65.657  1.00  0.00    -0.143 A  
HETATM   39  C   UNL     1      -8.943   5.033  68.454  1.00  0.00    -0.123 A  
HETATM   40  C   UNL     1      -9.552   3.991  67.753  1.00  0.00    -0.204 A  
HETATM   41  C   UNL     1      -8.298   6.044  67.758  1.00  0.00    -0.112 A  
ENDBRANCH  35  36
ENDBRANCH  34  35
ENDBRANCH  12  34
BRANCH  12  42
HETATM   42  C   UNL     1      -7.728   9.958  64.806  1.00  0.00    -0.138 C  
BRANCH  42  43
HETATM   43  C   UNL     1      -9.006  10.067  63.944  1.00  0.00    -0.271 C  
HETATM   44  C   UNL     1      -9.014  10.725  62.565  1.00  0.00    -0.344 C  
ENDBRANCH  42  43
ENDBRANCH  12  42
TORSDOF 8
ENDMDL
MODEL       49
REMARK 921   NORMALIZED FREE ENERGY PREDICTED BY IDOCK:   -6.61 KCAL/MOL
REMARK 922        TOTAL FREE ENERGY PREDICTED BY IDOCK:  -11.69 KCAL/MOL
REMARK 923 INTER-LIGAND FREE ENERGY PREDICTED BY IDOCK:  -10.71 KCAL/MOL
REMARK 924 INTRA-LIGAND FREE ENERGY PREDICTED BY IDOCK:   -0.97 KCAL/MOL
REMARK 927      BINDING AFFINITY PREDICTED BY RF-SCORE:    0.00 PKD
ROOT
HETATM    1  C   UNL     1      -8.792   8.419  66.210  1.00  0.00    -0.190 C  
HETATM    2  C   UNL     1      -9.236   9.739  65.525  1.00  0.00    -0.270 A  
HETATM    3  C   UNL     1      -7.295   8.083  66.048  1.00  0.00    -0.073 C  
HETATM    4  C   UNL     1      -9.280   8.245  67.684  1.00  0.00    -0.150 C  
HETATM    5  C   UNL     1      -6.819   7.884  64.618  1.00  0.00    -0.062 C  
HETATM    6  C   UNL     1      -9.292  10.973  66.199  1.00  0.00    -0.214 A  
HETATM    7  C   UNL     1     -10.419   7.605  68.031  1.00  0.00    -0.189 C  
HETATM    8  O   UNL     1     -11.267   7.057  67.082  1.00  0.00    -0.590 OA 
HETATM    9  C   UNL     1     -11.021   7.628  69.448  1.00  0.00    -0.071 C  
HETATM   10  C   UNL     1      -9.836  12.128  65.593  1.00  0.00    -0.237 A  
HETATM   11  C   UNL     1     -10.254  12.091  64.272  1.00  0.00    -0.347 A  
HETATM   12  C   UNL     1     -10.167   8.257  70.548  1.00  0.00    -0.198 C  
HETATM   13  C   UNL     1      -8.455   8.809  68.789  1.00  0.00    -0.129 C  
HETATM   14  H   UNL     1     -12.068   6.607  67.326  1.00  0.00     0.000 HD 
HETATM   15  O   UNL     1      -8.951   8.853  70.044  1.00  0.00    -0.148 OA 
HETATM   16  C   UNL     1      -9.641   9.743  64.171  1.00  0.00    -0.058 A  
HETATM   17  O   UNL     1      -7.337   9.264  68.584  1.00  0.00    -0.074 OA 
HETATM   18  C   UNL     1     -10.125  10.908  63.548  1.00  0.00    -0.406 A  
ENDROOT
BRANCH  10  19
HETATM   19  N   UNL     1     -10.061  13.308  66.374  1.00  0.00    -0.283 N  
HETATM   20  H   UNL     1      -9.534  13.467  67.234  1.00  0.00     0.000 HD 
BRANCH  19  21
HETATM   21  S   UNL     1     -11.231  14.453  65.842  1.00  0.00    -0.329 S  
HETATM   22  O   UNL     1     -11.038  14.609  64.411  1.00  0.00    -0.285 OA 
HETATM   23  O   UNL     1     -12.517  14.040  66.370  1.00  0.00    -0.452 OA 
BRANCH  21  24
HETATM   24  C   UNL     1     -10.825  16.003  66.629  1.00  0.00    -0.179 A  
HETATM   25  C   UNL     1     -10.270  17.500  68.446  1.00  0.00    -0.372 A  
HETATM   26  N   UNL     1     -10.451  16.912  65.747  1.00  0.00    -0.476 NA 
HETATM   27  F   UNL     1     -10.415  20.347  68.938  1.00  0.00    -0.518 F  
HETATM   28  C   UNL     1      -9.437  19.820  68.138  1.00  0.00    -0.357 C  
HETATM   29  F   UNL     1      -8.344  19.680  68.946  1.00  0.00    -0.381 F  
HETATM   30  C   UNL     1      -9.976  18.069  66.251  1.00  0.00    -0.337 A  
HETATM   31  F   UNL     1      -9.129  20.861  67.331  1.00  0.00    -0.478 F  
HETATM   32  C   UNL     1      -9.873  18.485  67.576  1.00  0.00    -0.330 A  
HETATM   33  C   UNL     1     -10.732  16.244  67.997  1.00  0.00    -0.331 A  
ENDBRANCH  21  24
ENDBRANCH  19  21
ENDBRANCH  10  19
BRANCH  12  34
HETATM   34  C   UNL     1      -9.792   7.049  71.420  1.00  0.00    -0.180 C  
BRANCH  34  35
HETATM   35  C   UNL     1      -9.725   5.759  70.572  1.00  0.00    -0.225 C  
BRANCH  35  36
HETATM   36  C   UNL     1      -8.320   5.403  70.259  1.00  0.00    -0.112 A  
HETATM   37  C   UNL     1      -6.023   5.136  70.885  1.00  0.00    -0.021 A  
HETATM   38  C   UNL     1      -7.341   5.423  71.246  1.00  0.00    -0.084 A  
HETATM   39  C   UNL     1      -6.705   4.790  68.595  1.00  0.00    -0.050 A  
HETATM   40  C   UNL     1      -5.709   4.817  69.573  1.00  0.00    -0.016 A  
HETATM   41  C   UNL     1      -8.015   5.080  68.941  1.00  0.00    -0.081 A  
ENDBRANCH  35  36
ENDBRANCH  34  35
ENDBRANCH  12  34
BRANCH  12  42
HETATM   42  C   UNL     1     -10.868   9.389  71.454  1.00  0.00    -0.430 C  
BRANCH  42  43
HETATM   43  C   UNL     1     -12.008  10.192  70.786  1.00  0.00    -0.442 C  
HETATM   44  C   UNL     1     -13.003  11.029  71.588  1.00  0.00    -0.561 C  
ENDBRANCH  42  43
ENDBRANCH  12  42
TORSDOF 8
ENDMDL
MODEL       50
REMARK 921   NORMALIZED FREE ENERGY PREDICTED BY IDOCK:   -6.58 KCAL/MOL
REMARK 922        TOTAL FREE ENERGY PREDICTED BY IDOCK:  -11.65 KCAL/MOL
REMARK 923 INTER-LIGAND FREE ENERGY PREDICTED BY IDOCK:   -9.70 KCAL/MOL
REMARK 924 INTRA-LIGAND FREE ENERGY PREDICTED BY IDOCK:   -1.95 KCAL/MOL
REMARK 927      BINDING AFFINITY PREDICTED BY RF-SCORE:    0.00 PKD
ROOT
HETATM    1  C   UNL     1     -11.819  13.266  68.947  1.00  0.00    -0.367 C  
HETATM    2  C   UNL     1     -11.112  11.913  68.666  1.00  0.00    -0.295 A  
HETATM    3  C   UNL     1     -12.100  13.546  70.438  1.00  0.00    -0.415 C  
HETATM    4  C   UNL     1     -11.193  14.501  68.222  1.00  0.00    -0.295 C  
HETATM    5  C   UNL     1     -13.016  12.549  71.130  1.00  0.00    -0.237 C  
HETATM    6  C   UNL     1      -9.716  11.787  68.545  1.00  0.00    -0.181 A  
HETATM    7  C   UNL     1     -11.607  14.959  67.021  1.00  0.00    -0.304 C  
HETATM    8  O   UNL     1     -12.632  14.346  66.317  1.00  0.00    -0.457 OA 
HETATM    9  C   UNL     1     -10.854  16.022  66.199  1.00  0.00    -0.179 C  
HETATM   10  C   UNL     1      -9.109  10.574  68.146  1.00  0.00    -0.141 A  
HETATM   11  C   UNL     1      -9.883   9.441  67.945  1.00  0.00    -0.197 A  
HETATM   12  C   UNL     1      -9.679  16.717  66.887  1.00  0.00    -0.257 C  
HETATM   13  C   UNL     1     -10.072  15.230  68.878  1.00  0.00    -0.225 C  
HETATM   14  H   UNL     1     -12.923  14.669  65.472  1.00  0.00     0.000 HD 
HETATM   15  O   UNL     1      -9.383  16.164  68.188  1.00  0.00    -0.198 OA 
HETATM   16  C   UNL     1     -11.868  10.733  68.484  1.00  0.00    -0.168 A  
HETATM   17  O   UNL     1      -9.736  14.986  70.029  1.00  0.00    -0.039 OA 
HETATM   18  C   UNL     1     -11.259   9.511  68.148  1.00  0.00     0.067 A  
ENDROOT
BRANCH  10  19
HETATM   19  N   UNL     1      -7.710  10.540  67.841  1.00  0.00    -0.092 N  
HETATM   20  H   UNL     1      -7.335  11.096  67.072  1.00  0.00     0.000 HD 
BRANCH  19  21
HETATM   21  S   UNL     1      -6.672   9.547  68.788  1.00  0.00    -0.052 S  
HETATM   22  O   UNL     1      -6.084   8.575  67.882  1.00  0.00    -0.046 OA 
HETATM   23  O   UNL     1      -5.825  10.424  69.574  1.00  0.00    -0.037 OA 
BRANCH  21  24
HETATM   24  C   UNL     1      -7.715   8.669  69.942  1.00  0.00    -0.084 A  
HETATM   25  C   UNL     1      -9.266   8.394  71.776  1.00  0.00    -0.287 A  
HETATM   26  N   UNL     1      -7.939   7.429  69.547  1.00  0.00    -0.124 NA 
HETATM   27  F   UNL     1     -10.027   6.264  73.580  1.00  0.00    -0.155 F  
HETATM   28  C   UNL     1     -10.466   6.279  72.284  1.00  0.00    -0.199 C  
HETATM   29  F   UNL     1     -11.713   6.839  72.331  1.00  0.00    -0.291 F  
HETATM   30  C   UNL     1      -8.840   6.731  70.267  1.00  0.00    -0.152 A  
HETATM   31  F   UNL     1     -10.695   4.968  72.038  1.00  0.00    -0.269 F  
HETATM   32  C   UNL     1      -9.535   7.097  71.417  1.00  0.00    -0.162 A  
HETATM   33  C   UNL     1      -8.374   9.206  71.044  1.00  0.00    -0.205 A  
ENDBRANCH  21  24
ENDBRANCH  19  21
ENDBRANCH  10  19
BRANCH  12  34
HETATM   34  C   UNL     1     -10.195  18.152  67.074  1.00  0.00    -0.373 C  
BRANCH  34  35
HETATM   35  C   UNL     1      -9.714  18.737  68.421  1.00  0.00    -0.421 C  
BRANCH  35  36
HETATM   36  C   UNL     1      -8.458  19.506  68.247  1.00  0.00    -0.376 A  
HETATM   37  C   UNL     1      -7.048  20.985  66.995  1.00  0.00    -0.348 A  
HETATM   38  C   UNL     1      -8.272  20.329  67.141  1.00  0.00    -0.385 A  
HETATM   39  C   UNL     1      -6.258  20.013  69.060  1.00  0.00    -0.347 A  
HETATM   40  C   UNL     1      -6.053  20.833  67.949  1.00  0.00    -0.352 A  
HETATM   41  C   UNL     1      -7.467  19.351  69.210  1.00  0.00    -0.278 A  
ENDBRANCH  35  36
ENDBRANCH  34  35
ENDBRANCH  12  34
BRANCH  12  42
HETATM   42  C   UNL     1      -8.280  16.738  66.089  1.00  0.00    -0.300 C  
BRANCH  42  43
HETATM   43  C   UNL     1      -7.017  16.401  66.914  1.00  0.00    -0.247 C  
HETATM   44  C   UNL     1      -5.734  17.227  66.828  1.00  0.00    -0.226 C  
ENDBRANCH  42  43
ENDBRANCH  12  42
TORSDOF 8
ENDMDL
MODEL       51
REMARK 921   NORMALIZED FREE ENERGY PREDICTED BY IDOCK:   -6.55 KCAL/MOL
REMARK 922        TOTAL FREE ENERGY PREDICTED BY IDOCK:  -11.61 KCAL/MOL
REMARK 923 INTER-LIGAND FREE ENERGY PREDICTED BY IDOCK:   -8.27 KCAL/MOL
REMARK 924 INTRA-LIGAND FREE ENERGY PREDICTED BY IDOCK:   -3.34 KCAL/MOL
REMARK 927      BINDING AFFINITY PREDICTED BY RF-SCORE:    0.00 PKD
ROOT
HETATM    1  C   UNL     1     -11.908   8.283  71.584  1.00  0.00    -0.345 C  
HETATM    2  C   UNL     1     -12.119   9.789  71.271  1.00  0.00    -0.470 A  
HETATM    3  C   UNL     1     -12.906   7.336  70.886  1.00  0.00    -0.165 C  
HETATM    4  C   UNL     1     -10.433   7.784  71.458  1.00  0.00    -0.239 C  
HETATM    5  C   UNL     1     -14.368   7.542  71.248  1.00  0.00    -0.434 C  
HETATM    6  C   UNL     1     -11.432  10.464  70.245  1.00  0.00    -0.406 A  
HETATM    7  C   UNL     1      -9.562   7.738  72.490  1.00  0.00    -0.192 C  
HETATM    8  O   UNL     1      -9.915   8.155  73.763  1.00  0.00    -0.049 OA 
HETATM    9  C   UNL     1      -8.053   7.470  72.331  1.00  0.00    -0.121 C  
HETATM   10  C   UNL     1     -11.535  11.863  70.075  1.00  0.00    -0.130 A  
HETATM   11  C   UNL     1     -12.395  12.601  70.875  1.00  0.00    -0.352 A  
HETATM   12  C   UNL     1      -7.572   7.048  70.943  1.00  0.00    -0.086 C  
HETATM   13  C   UNL     1      -9.937   7.326  70.130  1.00  0.00    -0.184 C  
HETATM   14  H   UNL     1      -9.302   8.122  74.489  1.00  0.00     0.000 HD 
HETATM   15  O   UNL     1      -8.621   7.087  69.949  1.00  0.00    -0.139 OA 
HETATM   16  C   UNL     1     -13.010  10.564  72.047  1.00  0.00    -0.490 A  
HETATM   17  O   UNL     1     -10.694   7.184  69.178  1.00  0.00    -0.217 OA 
HETATM   18  C   UNL     1     -13.160  11.947  71.838  1.00  0.00    -0.474 A  
ENDROOT
BRANCH  10  19
HETATM   19  N   UNL     1     -10.671  12.538  69.154  1.00  0.00    -0.435 N  
HETATM   20  H   UNL     1      -9.948  13.173  69.493  1.00  0.00     0.000 HD 
BRANCH  19  21
HETATM   21  S   UNL     1     -10.868  12.263  67.467  1.00  0.00    -0.244 S  
HETATM   22  O   UNL     1     -12.280  11.997  67.251  1.00  0.00    -0.496 OA 
HETATM   23  O   UNL     1     -10.211  13.349  66.767  1.00  0.00    -0.252 OA 
BRANCH  21  24
HETATM   24  C   UNL     1      -9.959  10.776  67.080  1.00  0.00    -0.194 A  
HETATM   25  C   UNL     1      -8.242   9.090  67.323  1.00  0.00    -0.103 A  
HETATM   26  N   UNL     1     -10.640   9.986  66.270  1.00  0.00    -0.107 NA 
HETATM   27  F   UNL     1      -7.003   7.098  65.629  1.00  0.00    -0.055 F  
HETATM   28  C   UNL     1      -8.257   6.903  66.143  1.00  0.00    -0.121 C  
HETATM   29  F   UNL     1      -8.076   6.143  67.264  1.00  0.00    -0.103 F  
HETATM   30  C   UNL     1     -10.108   8.769  66.040  1.00  0.00     0.039 A  
HETATM   31  F   UNL     1      -8.810   6.055  65.246  1.00  0.00    -0.153 F  
HETATM   32  C   UNL     1      -8.903   8.228  66.482  1.00  0.00    -0.175 A  
HETATM   33  C   UNL     1      -8.759  10.361  67.651  1.00  0.00    -0.118 A  
ENDBRANCH  21  24
ENDBRANCH  19  21
ENDBRANCH  10  19
BRANCH  12  34
HETATM   34  C   UNL     1      -7.159   5.583  71.157  1.00  0.00    -0.067 C  
BRANCH  34  35
HETATM   35  C   UNL     1      -8.322   4.628  70.804  1.00  0.00    -0.096 C  
BRANCH  35  36
HETATM   36  C   UNL     1      -9.035   4.187  72.028  1.00  0.00    -0.151 A  
HETATM   37  C   UNL     1     -11.036   3.904  73.314  1.00  0.00    -0.279 A  
HETATM   38  C   UNL     1     -10.420   4.277  72.118  1.00  0.00    -0.133 A  
HETATM   39  C   UNL     1      -8.891   3.337  74.266  1.00  0.00    -0.087 A  
HETATM   40  C   UNL     1     -10.279   3.432  74.376  1.00  0.00    -0.223 A  
HETATM   41  C   UNL     1      -8.268   3.712  73.086  1.00  0.00    -0.079 A  
ENDBRANCH  35  36
ENDBRANCH  34  35
ENDBRANCH  12  34
BRANCH  12  42
HETATM   42  C   UNL     1      -6.342   7.877  70.317  1.00  0.00    -0.037 C  
BRANCH  42  43
HETATM   43  C   UNL     1      -6.387   9.412  70.501  1.00  0.00    -0.072 C  
HETATM   44  C   UNL     1      -5.266  10.331  70.018  1.00  0.00    -0.039 C  
ENDBRANCH  42  43
ENDBRANCH  12  42
TORSDOF 8
ENDMDL
MODEL       52
REMARK 921   NORMALIZED FREE ENERGY PREDICTED BY IDOCK:   -6.54 KCAL/MOL
REMARK 922        TOTAL FREE ENERGY PREDICTED BY IDOCK:  -11.59 KCAL/MOL
REMARK 923 INTER-LIGAND FREE ENERGY PREDICTED BY IDOCK:   -9.40 KCAL/MOL
REMARK 924 INTRA-LIGAND FREE ENERGY PREDICTED BY IDOCK:   -2.20 KCAL/MOL
REMARK 927      BINDING AFFINITY PREDICTED BY RF-SCORE:    0.00 PKD
ROOT
HETATM    1  C   UNL     1      -9.661   9.568  65.337  1.00  0.00    -0.342 C  
HETATM    2  C   UNL     1      -9.967  10.952  65.969  1.00  0.00    -0.290 A  
HETATM    3  C   UNL     1      -8.864   9.627  64.018  1.00  0.00    -0.256 C  
HETATM    4  C   UNL     1      -9.088   8.503  66.326  1.00  0.00    -0.232 C  
HETATM    5  C   UNL     1      -9.542  10.365  62.875  1.00  0.00    -0.331 C  
HETATM    6  C   UNL     1      -9.151  11.546  66.950  1.00  0.00    -0.181 A  
HETATM    7  C   UNL     1      -9.850   7.612  66.998  1.00  0.00    -0.215 C  
HETATM    8  O   UNL     1     -11.229   7.585  66.870  1.00  0.00    -0.435 OA 
HETATM    9  C   UNL     1      -9.326   6.720  68.140  1.00  0.00    -0.122 C  
HETATM   10  C   UNL     1      -9.528  12.736  67.612  1.00  0.00    -0.190 A  
HETATM   11  C   UNL     1     -10.687  13.401  67.243  1.00  0.00    -0.265 A  
HETATM   12  C   UNL     1      -7.816   6.726  68.379  1.00  0.00    -0.114 C  
HETATM   13  C   UNL     1      -7.617   8.450  66.557  1.00  0.00    -0.088 C  
HETATM   14  H   UNL     1     -11.765   6.958  67.342  1.00  0.00     0.000 HD 
HETATM   15  O   UNL     1      -7.120   7.685  67.552  1.00  0.00    -0.081 OA 
HETATM   16  C   UNL     1     -11.124  11.671  65.596  1.00  0.00    -0.308 A  
HETATM   17  O   UNL     1      -6.839   9.108  65.878  1.00  0.00    -0.084 OA 
HETATM   18  C   UNL     1     -11.469  12.889  66.211  1.00  0.00    -0.395 A  
ENDROOT
BRANCH  10  19
HETATM   19  N   UNL     1      -8.774  13.199  68.739  1.00  0.00    -0.374 N  
HETATM   20  H   UNL     1      -9.012  12.890  69.682  1.00  0.00     0.000 HD 
BRANCH  19  21
HETATM   21  S   UNL     1      -7.463  14.282  68.480  1.00  0.00    -0.128 S  
HETATM   22  O   UNL     1      -6.865  14.530  69.781  1.00  0.00    -0.154 OA 
HETATM   23  O   UNL     1      -6.663  13.749  67.394  1.00  0.00    -0.220 OA 
BRANCH  21  24
HETATM   24  C   UNL     1      -8.171  15.813  67.895  1.00  0.00    -0.145 A  
HETATM   25  C   UNL     1      -8.629  17.600  66.331  1.00  0.00    -0.269 A  
HETATM   26  N   UNL     1      -9.163  16.216  68.668  1.00  0.00    -0.210 NA 
HETATM   27  F   UNL     1      -9.505  20.352  66.488  1.00  0.00    -0.454 F  
HETATM   28  C   UNL     1     -10.390  19.322  66.656  1.00  0.00    -0.438 C  
HETATM   29  F   UNL     1     -10.978  19.146  65.434  1.00  0.00    -0.516 F  
HETATM   30  C   UNL     1      -9.865  17.279  68.227  1.00  0.00    -0.304 A  
HETATM   31  F   UNL     1     -11.355  19.888  67.416  1.00  0.00    -0.426 F  
HETATM   32  C   UNL     1      -9.668  18.068  67.097  1.00  0.00    -0.297 A  
HETATM   33  C   UNL     1      -7.878  16.463  66.700  1.00  0.00    -0.316 A  
ENDBRANCH  21  24
ENDBRANCH  19  21
ENDBRANCH  10  19
BRANCH  12  34
HETATM   34  C   UNL     1      -7.397   5.313  67.943  1.00  0.00    -0.076 C  
BRANCH  34  35
HETATM   35  C   UNL     1      -6.803   5.332  66.517  1.00  0.00    -0.063 C  
BRANCH  35  36
HETATM   36  C   UNL     1      -7.798   4.862  65.522  1.00  0.00    -0.095 A  
HETATM   37  C   UNL     1      -9.555   3.387  64.833  1.00  0.00    -0.152 A  
HETATM   38  C   UNL     1      -8.679   3.830  65.826  1.00  0.00    -0.116 A  
HETATM   39  C   UNL     1      -8.675   5.027  63.295  1.00  0.00    -0.080 A  
HETATM   40  C   UNL     1      -9.557   3.984  63.582  1.00  0.00    -0.156 A  
HETATM   41  C   UNL     1      -7.795   5.469  64.271  1.00  0.00    -0.110 A  
ENDBRANCH  35  36
ENDBRANCH  34  35
ENDBRANCH  12  34
BRANCH  12  42
HETATM   42  C   UNL     1      -7.320   7.003  69.886  1.00  0.00    -0.085 C  
BRANCH  42  43
HETATM   43  C   UNL     1      -7.267   8.483  70.327  1.00  0.00    -0.048 C  
HETATM   44  C   UNL     1      -8.484   9.406  70.259  1.00  0.00    -0.237 C  
ENDBRANCH  42  43
ENDBRANCH  12  42
TORSDOF 8
ENDMDL
MODEL       53
REMARK 921   NORMALIZED FREE ENERGY PREDICTED BY IDOCK:   -6.50 KCAL/MOL
REMARK 922        TOTAL FREE ENERGY PREDICTED BY IDOCK:  -11.54 KCAL/MOL
REMARK 923 INTER-LIGAND FREE ENERGY PREDICTED BY IDOCK:   -9.58 KCAL/MOL
REMARK 924 INTRA-LIGAND FREE ENERGY PREDICTED BY IDOCK:   -1.96 KCAL/MOL
REMARK 927      BINDING AFFINITY PREDICTED BY RF-SCORE:    0.00 PKD
ROOT
HETATM    1  C   UNL     1     -10.478  10.697  65.717  1.00  0.00    -0.235 C  
HETATM    2  C   UNL     1     -10.465  11.907  66.690  1.00  0.00    -0.250 A  
HETATM    3  C   UNL     1     -10.358  11.071  64.226  1.00  0.00    -0.430 C  
HETATM    4  C   UNL     1      -9.523   9.524  66.111  1.00  0.00    -0.281 C  
HETATM    5  C   UNL     1     -11.477  11.942  63.677  1.00  0.00    -0.551 C  
HETATM    6  C   UNL     1      -9.294  12.381  67.310  1.00  0.00    -0.184 A  
HETATM    7  C   UNL     1      -9.902   8.459  66.850  1.00  0.00    -0.245 C  
HETATM    8  O   UNL     1     -11.193   8.330  67.339  1.00  0.00    -0.358 OA 
HETATM    9  C   UNL     1      -8.922   7.423  67.433  1.00  0.00    -0.124 C  
HETATM   10  C   UNL     1      -9.332  13.389  68.299  1.00  0.00    -0.205 A  
HETATM   11  C   UNL     1     -10.532  14.002  68.624  1.00  0.00    -0.249 A  
HETATM   12  C   UNL     1      -7.467   7.522  66.979  1.00  0.00    -0.098 C  
HETATM   13  C   UNL     1      -8.106   9.564  65.654  1.00  0.00    -0.112 C  
HETATM   14  H   UNL     1     -11.459   7.580  67.859  1.00  0.00     0.000 HD 
HETATM   15  O   UNL     1      -7.215   8.677  66.147  1.00  0.00    -0.082 OA 
HETATM   16  C   UNL     1     -11.666  12.574  67.021  1.00  0.00    -0.437 A  
HETATM   17  O   UNL     1      -7.715  10.404  64.854  1.00  0.00    -0.144 OA 
HETATM   18  C   UNL     1     -11.695  13.620  67.960  1.00  0.00    -0.387 A  
ENDROOT
BRANCH  10  19
HETATM   19  N   UNL     1      -8.151  13.703  69.048  1.00  0.00    -0.341 N  
HETATM   20  H   UNL     1      -8.015  13.318  69.984  1.00  0.00     0.000 HD 
BRANCH  19  21
HETATM   21  S   UNL     1      -6.967  14.736  68.348  1.00  0.00    -0.125 S  
HETATM   22  O   UNL     1      -6.079  15.141  69.424  1.00  0.00    -0.102 OA 
HETATM   23  O   UNL     1      -6.440  14.066  67.175  1.00  0.00    -0.187 OA 
BRANCH  21  24
HETATM   24  C   UNL     1      -7.832  16.186  67.767  1.00  0.00    -0.143 A  
HETATM   25  C   UNL     1      -9.370  17.466  66.409  1.00  0.00    -0.272 A  
HETATM   26  N   UNL     1      -7.733  17.187  68.623  1.00  0.00    -0.251 NA 
HETATM   27  F   UNL     1      -9.699  20.241  65.659  1.00  0.00    -0.466 F  
HETATM   28  C   UNL     1     -10.059  19.801  66.904  1.00  0.00    -0.437 C  
HETATM   29  F   UNL     1     -11.403  19.565  66.831  1.00  0.00    -0.484 F  
HETATM   30  C   UNL     1      -8.479  18.276  68.352  1.00  0.00    -0.303 A  
HETATM   31  F   UNL     1      -9.954  20.925  67.651  1.00  0.00    -0.572 F  
HETATM   32  C   UNL     1      -9.303  18.541  67.262  1.00  0.00    -0.286 A  
HETATM   33  C   UNL     1      -8.659  16.272  66.650  1.00  0.00    -0.302 A  
ENDBRANCH  21  24
ENDBRANCH  19  21
ENDBRANCH  10  19
BRANCH  12  34
HETATM   34  C   UNL     1      -7.290   6.259  66.123  1.00  0.00    -0.080 C  
BRANCH  34  35
HETATM   35  C   UNL     1      -6.456   5.198  66.875  1.00  0.00    -0.041 C  
BRANCH  35  36
HETATM   36  C   UNL     1      -7.334   4.263  67.620  1.00  0.00    -0.069 A  
HETATM   37  C   UNL     1      -7.838   2.921  69.539  1.00  0.00    -0.049 A  
HETATM   38  C   UNL     1      -7.007   3.847  68.906  1.00  0.00    -0.047 A  
HETATM   39  C   UNL     1      -9.297   2.884  67.616  1.00  0.00    -0.234 A  
HETATM   40  C   UNL     1      -8.976   2.449  68.903  1.00  0.00    -0.170 A  
HETATM   41  C   UNL     1      -8.475   3.798  66.975  1.00  0.00    -0.104 A  
ENDBRANCH  35  36
ENDBRANCH  34  35
ENDBRANCH  12  34
BRANCH  12  42
HETATM   42  C   UNL     1      -6.346   7.561  68.135  1.00  0.00    -0.048 C  
BRANCH  42  43
HETATM   43  C   UNL     1      -6.854   7.813  69.572  1.00  0.00    -0.047 C  
HETATM   44  C   UNL     1      -6.458   6.926  70.752  1.00  0.00    -0.048 C  
ENDBRANCH  42  43
ENDBRANCH  12  42
TORSDOF 8
ENDMDL
MODEL       54
REMARK 921   NORMALIZED FREE ENERGY PREDICTED BY IDOCK:   -6.50 KCAL/MOL
REMARK 922        TOTAL FREE ENERGY PREDICTED BY IDOCK:  -11.53 KCAL/MOL
REMARK 923 INTER-LIGAND FREE ENERGY PREDICTED BY IDOCK:   -9.30 KCAL/MOL
REMARK 924 INTRA-LIGAND FREE ENERGY PREDICTED BY IDOCK:   -2.24 KCAL/MOL
REMARK 927      BINDING AFFINITY PREDICTED BY RF-SCORE:    0.00 PKD
ROOT
HETATM    1  C   UNL     1     -11.902  13.531  69.234  1.00  0.00    -0.392 C  
HETATM    2  C   UNL     1     -11.201  12.149  69.140  1.00  0.00    -0.303 A  
HETATM    3  C   UNL     1     -12.198  14.004  70.671  1.00  0.00    -0.442 C  
HETATM    4  C   UNL     1     -11.260  14.656  68.360  1.00  0.00    -0.290 C  
HETATM    5  C   UNL     1     -13.127  13.112  71.477  1.00  0.00    -0.404 C  
HETATM    6  C   UNL     1      -9.804  12.001  69.053  1.00  0.00     0.157 A  
HETATM    7  C   UNL     1     -11.659  14.956  67.105  1.00  0.00    -0.315 C  
HETATM    8  O   UNL     1     -12.679  14.261  66.476  1.00  0.00    -0.521 OA 
HETATM    9  C   UNL     1     -10.889  15.898  66.159  1.00  0.00    -0.208 C  
HETATM   10  C   UNL     1      -9.201  10.744  68.824  1.00  0.00    -0.189 A  
HETATM   11  C   UNL     1      -9.980   9.598  68.764  1.00  0.00    -0.184 A  
HETATM   12  C   UNL     1      -9.718  16.671  66.764  1.00  0.00    -0.261 C  
HETATM   13  C   UNL     1     -10.142  15.460  68.928  1.00  0.00    -0.219 C  
HETATM   14  H   UNL     1     -12.960  14.472  65.592  1.00  0.00     0.000 HD 
HETATM   15  O   UNL     1      -9.439  16.292  68.130  1.00  0.00    -0.210 OA 
HETATM   16  C   UNL     1     -11.962  10.959  69.106  1.00  0.00    -0.359 A  
HETATM   17  O   UNL     1      -9.820  15.367  70.105  1.00  0.00    -0.221 OA 
HETATM   18  C   UNL     1     -11.358   9.700  68.940  1.00  0.00     0.074 A  
ENDROOT
BRANCH  10  19
HETATM   19  N   UNL     1      -7.799  10.663  68.542  1.00  0.00    -0.108 N  
HETATM   20  H   UNL     1      -7.112  10.837  69.276  1.00  0.00     0.000 HD 
BRANCH  19  21
HETATM   21  S   UNL     1      -7.288  10.268  66.946  1.00  0.00    -0.100 S  
HETATM   22  O   UNL     1      -8.160  10.994  66.039  1.00  0.00    -0.159 OA 
HETATM   23  O   UNL     1      -5.851  10.453  66.889  1.00  0.00    -0.049 OA 
BRANCH  21  24
HETATM   24  C   UNL     1      -7.591   8.522  66.729  1.00  0.00    -0.090 A  
HETATM   25  C   UNL     1      -7.670   6.183  67.338  1.00  0.00    -0.094 A  
HETATM   26  N   UNL     1      -8.359   8.289  65.680  1.00  0.00    -0.140 NA 
HETATM   27  F   UNL     1      -7.729   3.651  65.941  1.00  0.00    -0.083 F  
HETATM   28  C   UNL     1      -8.847   4.436  66.021  1.00  0.00    -0.119 C  
HETATM   29  F   UNL     1      -9.566   3.936  67.070  1.00  0.00    -0.185 F  
HETATM   30  C   UNL     1      -8.774   7.016  65.518  1.00  0.00    -0.025 A  
HETATM   31  F   UNL     1      -9.545   4.061  64.924  1.00  0.00    -0.138 F  
HETATM   32  C   UNL     1      -8.466   5.880  66.261  1.00  0.00    -0.128 A  
HETATM   33  C   UNL     1      -7.236   7.499  67.603  1.00  0.00    -0.090 A  
ENDBRANCH  21  24
ENDBRANCH  19  21
ENDBRANCH  10  19
BRANCH  12  34
HETATM   34  C   UNL     1     -10.226  18.121  66.755  1.00  0.00    -0.379 C  
BRANCH  34  35
HETATM   35  C   UNL     1      -9.991  18.793  68.127  1.00  0.00    -0.412 C  
BRANCH  35  36
HETATM   36  C   UNL     1      -8.672  19.470  68.166  1.00  0.00    -0.368 A  
HETATM   37  C   UNL     1      -6.963  20.816  67.163  1.00  0.00    -0.406 A  
HETATM   38  C   UNL     1      -8.237  20.249  67.099  1.00  0.00    -0.385 A  
HETATM   39  C   UNL     1      -6.618  19.847  69.347  1.00  0.00    -0.375 A  
HETATM   40  C   UNL     1      -6.163  20.622  68.279  1.00  0.00    -0.363 A  
HETATM   41  C   UNL     1      -7.879  19.273  69.291  1.00  0.00    -0.155 A  
ENDBRANCH  35  36
ENDBRANCH  34  35
ENDBRANCH  12  34
BRANCH  12  42
HETATM   42  C   UNL     1      -8.310  16.581  65.987  1.00  0.00    -0.164 C  
BRANCH  42  43
HETATM   43  C   UNL     1      -7.043  16.517  66.870  1.00  0.00    -0.262 C  
HETATM   44  C   UNL     1      -5.819  17.395  66.617  1.00  0.00    -0.234 C  
ENDBRANCH  42  43
ENDBRANCH  12  42
TORSDOF 8
ENDMDL
MODEL       55
REMARK 921   NORMALIZED FREE ENERGY PREDICTED BY IDOCK:   -6.48 KCAL/MOL
REMARK 922        TOTAL FREE ENERGY PREDICTED BY IDOCK:  -11.50 KCAL/MOL
REMARK 923 INTER-LIGAND FREE ENERGY PREDICTED BY IDOCK:   -9.88 KCAL/MOL
REMARK 924 INTRA-LIGAND FREE ENERGY PREDICTED BY IDOCK:   -1.62 KCAL/MOL
REMARK 927      BINDING AFFINITY PREDICTED BY RF-SCORE:    0.00 PKD
ROOT
HETATM    1  C   UNL     1      -8.976   8.671  65.705  1.00  0.00    -0.231 C  
HETATM    2  C   UNL     1      -9.313  10.183  65.815  1.00  0.00    -0.239 A  
HETATM    3  C   UNL     1      -7.701   8.355  64.898  1.00  0.00    -0.106 C  
HETATM    4  C   UNL     1      -9.035   7.883  67.052  1.00  0.00    -0.145 C  
HETATM    5  C   UNL     1      -7.721   8.791  63.442  1.00  0.00    -0.132 C  
HETATM    6  C   UNL     1      -8.905  10.983  66.899  1.00  0.00    -0.150 A  
HETATM    7  C   UNL     1     -10.129   7.226  67.495  1.00  0.00    -0.193 C  
HETATM    8  O   UNL     1     -11.315   7.215  66.778  1.00  0.00    -0.479 OA 
HETATM    9  C   UNL     1     -10.269   6.645  68.915  1.00  0.00    -0.195 C  
HETATM   10  C   UNL     1      -9.346  12.317  67.046  1.00  0.00    -0.205 A  
HETATM   11  C   UNL     1     -10.132  12.904  66.067  1.00  0.00    -0.290 A  
HETATM   12  C   UNL     1      -9.016   6.659  69.789  1.00  0.00    -0.143 C  
HETATM   13  C   UNL     1      -7.821   7.839  67.915  1.00  0.00    -0.127 C  
HETATM   14  H   UNL     1     -12.085   6.753  67.089  1.00  0.00     0.000 HD 
HETATM   15  O   UNL     1      -7.905   7.343  69.168  1.00  0.00    -0.112 OA 
HETATM   16  C   UNL     1     -10.087  10.820  64.820  1.00  0.00    -0.396 A  
HETATM   17  O   UNL     1      -6.743   8.268  67.525  1.00  0.00    -0.060 OA 
HETATM   18  C   UNL     1     -10.475  12.167  64.936  1.00  0.00    -0.325 A  
ENDROOT
BRANCH  10  19
HETATM   19  N   UNL     1      -9.075  13.031  68.259  1.00  0.00    -0.241 N  
HETATM   20  H   UNL     1      -9.609  12.834  69.106  1.00  0.00     0.000 HD 
BRANCH  19  21
HETATM   21  S   UNL     1      -7.837  14.227  68.266  1.00  0.00    -0.153 S  
HETATM   22  O   UNL     1      -7.313  14.274  69.620  1.00  0.00    -0.031 OA 
HETATM   23  O   UNL     1      -6.957  13.951  67.147  1.00  0.00    -0.125 OA 
BRANCH  21  24
HETATM   24  C   UNL     1      -8.632  15.789  67.924  1.00  0.00    -0.159 A  
HETATM   25  C   UNL     1      -9.261  18.094  68.292  1.00  0.00    -0.307 A  
HETATM   26  N   UNL     1      -9.030  15.866  66.667  1.00  0.00    -0.241 NA 
HETATM   27  F   UNL     1     -11.368  19.863  67.397  1.00  0.00    -0.426 F  
HETATM   28  C   UNL     1     -10.322  19.543  66.575  1.00  0.00    -0.482 C  
HETATM   29  F   UNL     1      -9.434  20.574  66.700  1.00  0.00    -0.469 F  
HETATM   30  C   UNL     1      -9.503  17.063  66.266  1.00  0.00    -0.256 A  
HETATM   31  F   UNL     1     -10.859  19.708  65.344  1.00  0.00    -0.584 F  
HETATM   32  C   UNL     1      -9.697  18.232  66.997  1.00  0.00    -0.305 A  
HETATM   33  C   UNL     1      -8.708  16.889  68.773  1.00  0.00    -0.248 A  
ENDBRANCH  21  24
ENDBRANCH  19  21
ENDBRANCH  10  19
BRANCH  12  34
HETATM   34  C   UNL     1      -8.665   5.168  69.906  1.00  0.00    -0.119 C  
BRANCH  34  35
HETATM   35  C   UNL     1      -9.900   4.346  70.339  1.00  0.00    -0.286 C  
BRANCH  35  36
HETATM   36  C   UNL     1      -9.842   4.024  71.786  1.00  0.00    -0.249 A  
HETATM   37  C   UNL     1     -10.747   4.110  74.002  1.00  0.00    -0.310 A  
HETATM   38  C   UNL     1     -10.879   4.384  72.640  1.00  0.00    -0.166 A  
HETATM   39  C   UNL     1      -8.587   3.105  73.612  1.00  0.00    -0.074 A  
HETATM   40  C   UNL     1      -9.614   3.471  74.483  1.00  0.00    -0.140 A  
HETATM   41  C   UNL     1      -8.704   3.380  72.258  1.00  0.00    -0.107 A  
ENDBRANCH  35  36
ENDBRANCH  34  35
ENDBRANCH  12  34
BRANCH  12  42
HETATM   42  C   UNL     1      -9.162   7.303  71.258  1.00  0.00    -0.151 C  
BRANCH  42  43
HETATM   43  C   UNL     1     -10.470   8.078  71.538  1.00  0.00    -0.265 C  
HETATM   44  C   UNL     1     -11.303   7.856  72.800  1.00  0.00    -0.453 C  
ENDBRANCH  42  43
ENDBRANCH  12  42
TORSDOF 8
ENDMDL
MODEL       56
REMARK 921   NORMALIZED FREE ENERGY PREDICTED BY IDOCK:   -6.47 KCAL/MOL
REMARK 922        TOTAL FREE ENERGY PREDICTED BY IDOCK:  -11.49 KCAL/MOL
REMARK 923 INTER-LIGAND FREE ENERGY PREDICTED BY IDOCK:   -9.56 KCAL/MOL
REMARK 924 INTRA-LIGAND FREE ENERGY PREDICTED BY IDOCK:   -1.93 KCAL/MOL
REMARK 927      BINDING AFFINITY PREDICTED BY RF-SCORE:    0.00 PKD
ROOT
HETATM    1  C   UNL     1      -8.628   5.803  67.635  1.00  0.00    -0.101 C  
HETATM    2  C   UNL     1      -8.043   6.991  66.826  1.00  0.00    -0.109 A  
HETATM    3  C   UNL     1      -7.632   4.656  67.902  1.00  0.00    -0.078 C  
HETATM    4  C   UNL     1      -9.421   6.207  68.919  1.00  0.00    -0.131 C  
HETATM    5  C   UNL     1      -7.080   3.966  66.666  1.00  0.00    -0.060 C  
HETATM    6  C   UNL     1      -7.495   8.137  67.430  1.00  0.00    -0.093 A  
HETATM    7  C   UNL     1     -10.758   6.401  68.950  1.00  0.00    -0.288 C  
HETATM    8  O   UNL     1     -11.542   6.269  67.815  1.00  0.00    -0.539 OA 
HETATM    9  C   UNL     1     -11.511   7.019  70.143  1.00  0.00    -0.302 C  
HETATM   10  C   UNL     1      -7.103   9.263  66.673  1.00  0.00    -0.082 A  
HETATM   11  C   UNL     1      -7.170   9.230  65.288  1.00  0.00    -0.090 A  
HETATM   12  C   UNL     1     -10.706   7.241  71.423  1.00  0.00    -0.227 C  
HETATM   13  C   UNL     1      -8.679   6.394  70.197  1.00  0.00    -0.139 C  
HETATM   14  H   UNL     1     -12.482   6.405  67.836  1.00  0.00     0.000 HD 
HETATM   15  O   UNL     1      -9.302   6.939  71.264  1.00  0.00    -0.164 OA 
HETATM   16  C   UNL     1      -8.069   6.977  65.413  1.00  0.00    -0.133 A  
HETATM   17  O   UNL     1      -7.498   6.089  70.302  1.00  0.00    -0.085 OA 
HETATM   18  C   UNL     1      -7.621   8.074  64.655  1.00  0.00    -0.111 A  
ENDROOT
BRANCH  10  19
HETATM   19  N   UNL     1      -6.740  10.481  67.335  1.00  0.00    -0.070 N  
HETATM   20  H   UNL     1      -5.825  10.904  67.175  1.00  0.00     0.000 HD 
BRANCH  19  21
HETATM   21  S   UNL     1      -7.868  11.219  68.404  1.00  0.00    -0.143 S  
HETATM   22  O   UNL     1      -8.251  10.204  69.370  1.00  0.00    -0.140 OA 
HETATM   23  O   UNL     1      -7.293  12.474  68.848  1.00  0.00    -0.096 OA 
BRANCH  21  24
HETATM   24  C   UNL     1      -9.306  11.628  67.429  1.00  0.00    -0.168 A  
HETATM   25  C   UNL     1     -11.656  11.757  66.873  1.00  0.00    -0.310 A  
HETATM   26  N   UNL     1      -9.021  12.512  66.490  1.00  0.00    -0.178 NA 
HETATM   27  F   UNL     1     -13.229  12.084  64.467  1.00  0.00    -0.438 F  
HETATM   28  C   UNL     1     -12.582  13.148  65.035  1.00  0.00    -0.438 C  
HETATM   29  F   UNL     1     -13.522  13.778  65.801  1.00  0.00    -0.344 F  
HETATM   30  C   UNL     1     -10.069  13.003  65.798  1.00  0.00    -0.287 A  
HETATM   31  F   UNL     1     -12.399  13.975  63.979  1.00  0.00    -0.474 F  
HETATM   32  C   UNL     1     -11.420  12.674  65.879  1.00  0.00    -0.407 A  
HETATM   33  C   UNL     1     -10.619  11.234  67.673  1.00  0.00    -0.252 A  
ENDBRANCH  21  24
ENDBRANCH  19  21
ENDBRANCH  10  19
BRANCH  12  34
HETATM   34  C   UNL     1     -11.318   6.216  72.391  1.00  0.00    -0.340 C  
BRANCH  34  35
HETATM   35  C   UNL     1     -10.252   5.690  73.378  1.00  0.00    -0.223 C  
BRANCH  35  36
HETATM   36  C   UNL     1     -10.098   4.220  73.258  1.00  0.00    -0.199 A  
HETATM   37  C   UNL     1     -10.855   1.981  73.654  1.00  0.00    -0.263 A  
HETATM   38  C   UNL     1     -11.077   3.357  73.739  1.00  0.00    -0.286 A  
HETATM   39  C   UNL     1      -8.724   2.370  72.589  1.00  0.00    -0.076 A  
HETATM   40  C   UNL     1      -9.693   1.493  73.078  1.00  0.00    -0.121 A  
HETATM   41  C   UNL     1      -8.930   3.739  72.676  1.00  0.00    -0.119 A  
ENDBRANCH  35  36
ENDBRANCH  34  35
ENDBRANCH  12  34
BRANCH  12  42
HETATM   42  C   UNL     1     -10.768   8.713  72.074  1.00  0.00    -0.427 C  
BRANCH  42  43
HETATM   43  C   UNL     1     -11.658   9.746  71.346  1.00  0.00    -0.452 C  
HETATM   44  C   UNL     1     -13.051  10.127  71.845  1.00  0.00    -0.571 C  
ENDBRANCH  42  43
ENDBRANCH  12  42
TORSDOF 8
ENDMDL
MODEL       57
REMARK 921   NORMALIZED FREE ENERGY PREDICTED BY IDOCK:   -6.41 KCAL/MOL
REMARK 922        TOTAL FREE ENERGY PREDICTED BY IDOCK:  -11.40 KCAL/MOL
REMARK 923 INTER-LIGAND FREE ENERGY PREDICTED BY IDOCK:   -9.65 KCAL/MOL
REMARK 924 INTRA-LIGAND FREE ENERGY PREDICTED BY IDOCK:   -1.75 KCAL/MOL
REMARK 927      BINDING AFFINITY PREDICTED BY RF-SCORE:    0.00 PKD
ROOT
HETATM    1  C   UNL     1     -11.894   8.818  71.561  1.00  0.00    -0.377 C  
HETATM    2  C   UNL     1     -12.093  10.181  70.846  1.00  0.00    -0.453 A  
HETATM    3  C   UNL     1     -13.148   7.922  71.596  1.00  0.00    -0.361 C  
HETATM    4  C   UNL     1     -10.615   8.029  71.132  1.00  0.00    -0.235 C  
HETATM    5  C   UNL     1     -14.348   8.501  72.328  1.00  0.00    -0.483 C  
HETATM    6  C   UNL     1     -11.792  10.387  69.487  1.00  0.00    -0.218 A  
HETATM    7  C   UNL     1      -9.427   8.115  71.769  1.00  0.00    -0.188 C  
HETATM    8  O   UNL     1      -9.244   8.940  72.868  1.00  0.00    -0.200 OA 
HETATM    9  C   UNL     1      -8.113   7.527  71.223  1.00  0.00    -0.096 C  
HETATM   10  C   UNL     1     -11.846  11.670  68.898  1.00  0.00    -0.329 A  
HETATM   11  C   UNL     1     -12.286  12.758  69.637  1.00  0.00    -0.188 A  
HETATM   12  C   UNL     1      -8.220   6.639  69.983  1.00  0.00    -0.130 C  
HETATM   13  C   UNL     1     -10.690   7.122  69.953  1.00  0.00    -0.239 C  
HETATM   14  H   UNL     1      -8.408   9.001  73.316  1.00  0.00     0.000 HD 
HETATM   15  O   UNL     1      -9.559   6.592  69.440  1.00  0.00    -0.144 OA 
HETATM   16  C   UNL     1     -12.567  11.304  71.562  1.00  0.00    -0.418 A  
HETATM   17  O   UNL     1     -11.756   6.861  69.412  1.00  0.00    -0.059 OA 
HETATM   18  C   UNL     1     -12.680  12.570  70.960  1.00  0.00    -0.316 A  
ENDROOT
BRANCH  10  19
HETATM   19  N   UNL     1     -11.342  11.872  67.572  1.00  0.00    -0.294 N  
HETATM   20  H   UNL     1     -11.912  11.631  66.760  1.00  0.00     0.000 HD 
BRANCH  19  21
HETATM   21  S   UNL     1      -9.763  12.525  67.368  1.00  0.00    -0.198 S  
HETATM   22  O   UNL     1      -9.008  12.166  68.556  1.00  0.00    -0.164 OA 
HETATM   23  O   UNL     1      -9.295  12.133  66.054  1.00  0.00    -0.232 OA 
BRANCH  21  24
HETATM   24  C   UNL     1      -9.944  14.301  67.342  1.00  0.00    -0.242 A  
HETATM   25  C   UNL     1      -9.976  16.549  68.234  1.00  0.00    -0.250 A  
HETATM   26  N   UNL     1      -9.909  14.775  66.110  1.00  0.00    -0.295 NA 
HETATM   27  F   UNL     1     -11.129  19.091  67.474  1.00  0.00    -0.508 F  
HETATM   28  C   UNL     1     -10.020  18.604  66.837  1.00  0.00    -0.345 C  
HETATM   29  F   UNL     1      -8.956  19.206  67.449  1.00  0.00    -0.295 F  
HETATM   30  C   UNL     1      -9.882  16.118  65.990  1.00  0.00    -0.347 A  
HETATM   31  F   UNL     1     -10.094  19.201  65.625  1.00  0.00    -0.355 F  
HETATM   32  C   UNL     1      -9.946  17.099  66.976  1.00  0.00    -0.287 A  
HETATM   33  C   UNL     1      -9.956  15.154  68.442  1.00  0.00    -0.222 A  
ENDBRANCH  21  24
ENDBRANCH  19  21
ENDBRANCH  10  19
BRANCH  12  34
HETATM   34  C   UNL     1      -7.868   5.247  70.531  1.00  0.00    -0.084 C  
BRANCH  34  35
HETATM   35  C   UNL     1      -8.922   4.203  70.096  1.00  0.00    -0.150 C  
BRANCH  35  36
HETATM   36  C   UNL     1      -8.516   3.533  68.837  1.00  0.00    -0.105 A  
HETATM   37  C   UNL     1      -8.991   2.722  66.633  1.00  0.00    -0.165 A  
HETATM   38  C   UNL     1      -9.404   3.413  67.773  1.00  0.00    -0.243 A  
HETATM   39  C   UNL     1      -6.828   2.327  67.632  1.00  0.00    -0.040 A  
HETATM   40  C   UNL     1      -7.712   2.189  66.561  1.00  0.00    -0.071 A  
HETATM   41  C   UNL     1      -7.231   3.006  68.772  1.00  0.00    -0.049 A  
ENDBRANCH  35  36
ENDBRANCH  34  35
ENDBRANCH  12  34
BRANCH  12  42
HETATM   42  C   UNL     1      -7.256   7.000  68.745  1.00  0.00    -0.091 C  
BRANCH  42  43
HETATM   43  C   UNL     1      -7.217   8.485  68.318  1.00  0.00    -0.086 C  
HETATM   44  C   UNL     1      -7.867   8.987  67.029  1.00  0.00    -0.098 C  
ENDBRANCH  42  43
ENDBRANCH  12  42
TORSDOF 8
ENDMDL
MODEL       58
REMARK 921   NORMALIZED FREE ENERGY PREDICTED BY IDOCK:   -6.40 KCAL/MOL
REMARK 922        TOTAL FREE ENERGY PREDICTED BY IDOCK:  -11.39 KCAL/MOL
REMARK 923 INTER-LIGAND FREE ENERGY PREDICTED BY IDOCK:   -9.12 KCAL/MOL
REMARK 924 INTRA-LIGAND FREE ENERGY PREDICTED BY IDOCK:   -2.27 KCAL/MOL
REMARK 927      BINDING AFFINITY PREDICTED BY RF-SCORE:    0.00 PKD
ROOT
HETATM    1  C   UNL     1      -8.198   7.642  67.694  1.00  0.00    -0.121 C  
HETATM    2  C   UNL     1      -8.649   8.507  66.487  1.00  0.00    -0.130 A  
HETATM    3  C   UNL     1      -6.760   7.917  68.179  1.00  0.00    -0.064 C  
HETATM    4  C   UNL     1      -9.218   7.577  68.876  1.00  0.00    -0.142 C  
HETATM    5  C   UNL     1      -5.663   7.652  67.161  1.00  0.00    -0.032 C  
HETATM    6  C   UNL     1      -9.352   9.719  66.629  1.00  0.00    -0.200 A  
HETATM    7  C   UNL     1     -10.155   6.613  69.011  1.00  0.00    -0.162 C  
HETATM    8  O   UNL     1     -10.295   5.594  68.083  1.00  0.00    -0.181 OA 
HETATM    9  C   UNL     1     -11.303   6.666  70.037  1.00  0.00    -0.440 C  
HETATM   10  C   UNL     1      -9.875  10.411  65.514  1.00  0.00    -0.269 A  
HETATM   11  C   UNL     1      -9.631   9.950  64.230  1.00  0.00    -0.220 A  
HETATM   12  C   UNL     1     -11.249   7.790  71.072  1.00  0.00    -0.266 C  
HETATM   13  C   UNL     1      -9.172   8.632  69.927  1.00  0.00    -0.155 C  
HETATM   14  H   UNL     1     -10.953   4.915  68.178  1.00  0.00     0.000 HD 
HETATM   15  O   UNL     1     -10.163   8.715  70.840  1.00  0.00    -0.191 OA 
HETATM   16  C   UNL     1      -8.392   8.082  65.164  1.00  0.00    -0.139 A  
HETATM   17  O   UNL     1      -8.263   9.450  69.973  1.00  0.00    -0.124 OA 
HETATM   18  C   UNL     1      -8.860   8.804  64.051  1.00  0.00     0.110 A  
ENDROOT
BRANCH  10  19
HETATM   19  N   UNL     1     -10.752  11.527  65.712  1.00  0.00    -0.273 N  
HETATM   20  H   UNL     1     -11.764  11.398  65.701  1.00  0.00     0.000 HD 
BRANCH  19  21
HETATM   21  S   UNL     1     -10.074  13.088  65.966  1.00  0.00    -0.283 S  
HETATM   22  O   UNL     1      -8.664  12.887  66.257  1.00  0.00     0.056 OA 
HETATM   23  O   UNL     1     -10.482  13.928  64.857  1.00  0.00    -0.386 OA 
BRANCH  21  24
HETATM   24  C   UNL     1     -10.852  13.752  67.429  1.00  0.00    -0.277 A  
HETATM   25  C   UNL     1     -12.435  13.862  69.255  1.00  0.00    -0.028 A  
HETATM   26  N   UNL     1     -10.090  14.657  68.017  1.00  0.00    -0.225 NA 
HETATM   27  F   UNL     1     -13.468  15.910  71.016  1.00  0.00    -0.528 F  
HETATM   28  C   UNL     1     -12.217  15.389  71.202  1.00  0.00    -0.371 C  
HETATM   29  F   UNL     1     -12.365  14.419  72.153  1.00  0.00    -0.371 F  
HETATM   30  C   UNL     1     -10.518  15.107  69.214  1.00  0.00    -0.260 A  
HETATM   31  F   UNL     1     -11.575  16.394  71.842  1.00  0.00    -0.488 F  
HETATM   32  C   UNL     1     -11.686  14.808  69.910  1.00  0.00    -0.352 A  
HETATM   33  C   UNL     1     -12.029  13.306  68.023  1.00  0.00    -0.351 A  
ENDBRANCH  21  24
ENDBRANCH  19  21
ENDBRANCH  10  19
BRANCH  12  34
HETATM   34  C   UNL     1     -10.971   7.033  72.380  1.00  0.00    -0.282 C  
BRANCH  34  35
HETATM   35  C   UNL     1      -9.552   7.345  72.905  1.00  0.00    -0.224 C  
BRANCH  35  36
HETATM   36  C   UNL     1      -8.708   6.126  72.907  1.00  0.00    -0.122 A  
HETATM   37  C   UNL     1      -7.174   4.621  71.845  1.00  0.00    -0.062 A  
HETATM   38  C   UNL     1      -7.904   5.812  71.816  1.00  0.00    -0.106 A  
HETATM   39  C   UNL     1      -8.039   4.122  74.044  1.00  0.00    -0.088 A  
HETATM   40  C   UNL     1      -7.237   3.788  72.951  1.00  0.00    -0.055 A  
HETATM   41  C   UNL     1      -8.774   5.297  74.022  1.00  0.00    -0.117 A  
ENDBRANCH  35  36
ENDBRANCH  34  35
ENDBRANCH  12  34
BRANCH  12  42
HETATM   42  C   UNL     1     -12.571   8.694  71.232  1.00  0.00    -0.266 C  
BRANCH  42  43
HETATM   43  C   UNL     1     -12.366  10.225  71.166  1.00  0.00    -0.501 C  
HETATM   44  C   UNL     1     -13.133  11.196  72.062  1.00  0.00    -0.433 C  
ENDBRANCH  42  43
ENDBRANCH  12  42
TORSDOF 8
ENDMDL
MODEL       59
REMARK 921   NORMALIZED FREE ENERGY PREDICTED BY IDOCK:   -6.40 KCAL/MOL
REMARK 922        TOTAL FREE ENERGY PREDICTED BY IDOCK:  -11.39 KCAL/MOL
REMARK 923 INTER-LIGAND FREE ENERGY PREDICTED BY IDOCK:   -9.87 KCAL/MOL
REMARK 924 INTRA-LIGAND FREE ENERGY PREDICTED BY IDOCK:   -1.51 KCAL/MOL
REMARK 927      BINDING AFFINITY PREDICTED BY RF-SCORE:    0.00 PKD
ROOT
HETATM    1  C   UNL     1      -7.552  14.005  69.059  1.00  0.00    -0.027 C  
HETATM    2  C   UNL     1      -7.216  12.585  68.529  1.00  0.00    -0.110 A  
HETATM    3  C   UNL     1      -6.325  14.840  69.480  1.00  0.00    -0.127 C  
HETATM    4  C   UNL     1      -8.546  14.821  68.173  1.00  0.00    -0.159 C  
HETATM    5  C   UNL     1      -5.493  14.258  70.611  1.00  0.00    -0.141 C  
HETATM    6  C   UNL     1      -7.046  12.295  67.163  1.00  0.00    -0.102 A  
HETATM    7  C   UNL     1      -9.884  14.840  68.362  1.00  0.00    -0.220 C  
HETATM    8  O   UNL     1     -10.490  14.107  69.370  1.00  0.00    -0.418 OA 
HETATM    9  C   UNL     1     -10.886  15.450  67.363  1.00  0.00    -0.309 C  
HETATM   10  C   UNL     1      -6.885  10.971  66.697  1.00  0.00    -0.137 A  
HETATM   11  C   UNL     1      -6.803   9.920  67.597  1.00  0.00    -0.084 A  
HETATM   12  C   UNL     1     -10.297  16.239  66.194  1.00  0.00    -0.341 C  
HETATM   13  C   UNL     1      -8.008  15.635  67.047  1.00  0.00    -0.233 C  
HETATM   14  H   UNL     1     -11.431  14.120  69.503  1.00  0.00     0.000 HD 
HETATM   15  O   UNL     1      -8.854  16.181  66.147  1.00  0.00    -0.315 OA 
HETATM   16  C   UNL     1      -7.097  11.496  69.422  1.00  0.00    -0.037 A  
HETATM   17  O   UNL     1      -6.805  15.804  66.897  1.00  0.00    -0.248 OA 
HETATM   18  C   UNL     1      -6.875  10.185  68.963  1.00  0.00    -0.056 A  
ENDROOT
BRANCH  10  19
HETATM   19  N   UNL     1      -6.916  10.698  65.291  1.00  0.00    -0.341 N  
HETATM   20  H   UNL     1      -6.092  10.865  64.713  1.00  0.00     0.000 HD 
BRANCH  19  21
HETATM   21  S   UNL     1      -8.364  10.084  64.591  1.00  0.00    -0.175 S  
HETATM   22  O   UNL     1      -9.357  11.139  64.697  1.00  0.00    -0.214 OA 
HETATM   23  O   UNL     1      -8.021   9.525  63.297  1.00  0.00    -0.129 OA 
BRANCH  21  24
HETATM   24  C   UNL     1      -8.890   8.721  65.617  1.00  0.00    -0.199 A  
HETATM   25  C   UNL     1      -8.691   6.632  66.819  1.00  0.00    -0.121 A  
HETATM   26  N   UNL     1     -10.007   9.003  66.263  1.00  0.00    -0.295 NA 
HETATM   27  F   UNL     1     -10.498   4.611  67.829  1.00  0.00    -0.137 F  
HETATM   28  C   UNL     1     -10.352   5.810  68.474  1.00  0.00    -0.215 C  
HETATM   29  F   UNL     1      -9.446   5.578  69.471  1.00  0.00    -0.142 F  
HETATM   30  C   UNL     1     -10.406   8.100  67.182  1.00  0.00    -0.321 A  
HETATM   31  F   UNL     1     -11.535   5.940  69.117  1.00  0.00    -0.432 F  
HETATM   32  C   UNL     1      -9.849   6.869  67.518  1.00  0.00    -0.173 A  
HETATM   33  C   UNL     1      -8.182   7.551  65.877  1.00  0.00    -0.134 A  
ENDBRANCH  21  24
ENDBRANCH  19  21
ENDBRANCH  10  19
BRANCH  12  34
HETATM   34  C   UNL     1     -10.716  17.682  66.512  1.00  0.00    -0.097 C  
BRANCH  34  35
HETATM   35  C   UNL     1     -10.326  18.061  67.958  1.00  0.00    -0.397 C  
BRANCH  35  36
HETATM   36  C   UNL     1      -9.142  18.954  67.971  1.00  0.00    -0.340 A  
HETATM   37  C   UNL     1      -7.887  20.803  67.106  1.00  0.00    -0.288 A  
HETATM   38  C   UNL     1      -9.049  20.029  67.093  1.00  0.00    -0.468 A  
HETATM   39  C   UNL     1      -6.975  19.440  68.877  1.00  0.00    -0.384 A  
HETATM   40  C   UNL     1      -6.862  20.515  67.994  1.00  0.00    -0.316 A  
HETATM   41  C   UNL     1      -8.121  18.660  68.867  1.00  0.00    -0.241 A  
ENDBRANCH  35  36
ENDBRANCH  34  35
ENDBRANCH  12  34
BRANCH  12  42
HETATM   42  C   UNL     1     -10.802  15.835  64.719  1.00  0.00    -0.365 C  
BRANCH  42  43
HETATM   43  C   UNL     1     -12.027  14.895  64.648  1.00  0.00    -0.407 C  
HETATM   44  C   UNL     1     -11.918  13.436  64.206  1.00  0.00    -0.481 C  
ENDBRANCH  42  43
ENDBRANCH  12  42
TORSDOF 8
ENDMDL
MODEL       60
REMARK 921   NORMALIZED FREE ENERGY PREDICTED BY IDOCK:   -6.40 KCAL/MOL
REMARK 922        TOTAL FREE ENERGY PREDICTED BY IDOCK:  -11.38 KCAL/MOL
REMARK 923 INTER-LIGAND FREE ENERGY PREDICTED BY IDOCK:   -8.93 KCAL/MOL
REMARK 924 INTRA-LIGAND FREE ENERGY PREDICTED BY IDOCK:   -2.45 KCAL/MOL
REMARK 927      BINDING AFFINITY PREDICTED BY RF-SCORE:    0.00 PKD
ROOT
HETATM    1  C   UNL     1      -7.715   9.622  67.883  1.00  0.00    -0.087 C  
HETATM    2  C   UNL     1      -8.065  11.125  67.717  1.00  0.00    -0.117 A  
HETATM    3  C   UNL     1      -8.541   8.885  68.958  1.00  0.00    -0.138 C  
HETATM    4  C   UNL     1      -7.628   8.814  66.548  1.00  0.00    -0.095 C  
HETATM    5  C   UNL     1      -8.390   9.412  70.375  1.00  0.00    -0.234 C  
HETATM    6  C   UNL     1      -8.988  11.599  66.767  1.00  0.00    -0.189 A  
HETATM    7  C   UNL     1      -6.483   8.621  65.857  1.00  0.00    -0.057 C  
HETATM    8  O   UNL     1      -5.275   9.151  66.281  1.00  0.00    -0.035 OA 
HETATM    9  C   UNL     1      -6.425   8.030  64.436  1.00  0.00    -0.061 C  
HETATM   10  C   UNL     1      -9.180  12.980  66.539  1.00  0.00    -0.181 A  
HETATM   11  C   UNL     1      -8.515  13.914  67.319  1.00  0.00    -0.212 A  
HETATM   12  C   UNL     1      -7.728   7.464  63.873  1.00  0.00    -0.124 C  
HETATM   13  C   UNL     1      -8.870   8.212  65.987  1.00  0.00    -0.172 C  
HETATM   14  H   UNL     1      -4.469   9.015  65.795  1.00  0.00     0.000 HD 
HETATM   15  O   UNL     1      -8.860   7.690  64.742  1.00  0.00     0.183 OA 
HETATM   16  C   UNL     1      -7.428  12.101  68.515  1.00  0.00    -0.117 A  
HETATM   17  O   UNL     1      -9.917   8.200  66.620  1.00  0.00    -0.247 OA 
HETATM   18  C   UNL     1      -7.665  13.476  68.331  1.00  0.00    -0.135 A  
ENDROOT
BRANCH  10  19
HETATM   19  N   UNL     1      -9.974  13.420  65.431  1.00  0.00    -0.478 N  
HETATM   20  H   UNL     1      -9.550  13.558  64.514  1.00  0.00     0.000 HD 
BRANCH  19  21
HETATM   21  S   UNL     1     -11.654  13.711  65.670  1.00  0.00    -0.341 S  
HETATM   22  O   UNL     1     -11.988  14.885  64.882  1.00  0.00    -0.365 OA 
HETATM   23  O   UNL     1     -12.350  12.458  65.452  1.00  0.00    -0.596 OA 
BRANCH  21  24
HETATM   24  C   UNL     1     -11.862  14.122  67.395  1.00  0.00    -0.413 A  
HETATM   25  C   UNL     1     -12.035  13.723  69.773  1.00  0.00    -0.406 A  
HETATM   26  N   UNL     1     -11.698  15.415  67.609  1.00  0.00    -0.209 NA 
HETATM   27  F   UNL     1     -13.142  15.109  72.059  1.00  0.00    -0.334 F  
HETATM   28  C   UNL     1     -11.960  15.510  71.498  1.00  0.00    -0.398 C  
HETATM   29  F   UNL     1     -10.983  14.927  72.255  1.00  0.00    -0.346 F  
HETATM   30  C   UNL     1     -11.683  15.806  68.899  1.00  0.00    -0.394 A  
HETATM   31  F   UNL     1     -11.908  16.820  71.832  1.00  0.00    -0.462 F  
HETATM   32  C   UNL     1     -11.875  15.057  70.057  1.00  0.00    -0.360 A  
HETATM   33  C   UNL     1     -12.014  13.229  68.452  1.00  0.00    -0.336 A  
ENDBRANCH  21  24
ENDBRANCH  19  21
ENDBRANCH  10  19
BRANCH  12  34
HETATM   34  C   UNL     1      -7.449   5.954  63.821  1.00  0.00    -0.071 C  
BRANCH  34  35
HETATM   35  C   UNL     1      -6.642   5.502  65.059  1.00  0.00    -0.040 C  
BRANCH  35  36
HETATM   36  C   UNL     1      -7.536   4.923  66.092  1.00  0.00    -0.086 A  
HETATM   37  C   UNL     1      -9.447   3.632  66.742  1.00  0.00    -0.203 A  
HETATM   38  C   UNL     1      -8.601   4.102  65.735  1.00  0.00    -0.114 A  
HETATM   39  C   UNL     1      -8.130   4.776  68.411  1.00  0.00    -0.084 A  
HETATM   40  C   UNL     1      -9.209   3.961  68.068  1.00  0.00    -0.212 A  
HETATM   41  C   UNL     1      -7.288   5.255  67.419  1.00  0.00    -0.083 A  
ENDBRANCH  35  36
ENDBRANCH  34  35
ENDBRANCH  12  34
BRANCH  12  42
HETATM   42  C   UNL     1      -8.179   7.987  62.418  1.00  0.00    -0.150 C  
BRANCH  42  43
HETATM   43  C   UNL     1      -8.989   9.303  62.385  1.00  0.00    -0.216 C  
HETATM   44  C   UNL     1      -8.360  10.663  62.687  1.00  0.00    -0.217 C  
ENDBRANCH  42  43
ENDBRANCH  12  42
TORSDOF 8
ENDMDL
MODEL       61
REMARK 921   NORMALIZED FREE ENERGY PREDICTED BY IDOCK:   -6.39 KCAL/MOL
REMARK 922        TOTAL FREE ENERGY PREDICTED BY IDOCK:  -11.36 KCAL/MOL
REMARK 923 INTER-LIGAND FREE ENERGY PREDICTED BY IDOCK:   -9.36 KCAL/MOL
REMARK 924 INTRA-LIGAND FREE ENERGY PREDICTED BY IDOCK:   -2.01 KCAL/MOL
REMARK 927      BINDING AFFINITY PREDICTED BY RF-SCORE:    0.00 PKD
ROOT
HETATM    1  C   UNL     1     -10.186   8.159  69.414  1.00  0.00    -0.211 C  
HETATM    2  C   UNL     1     -10.907   9.533  69.405  1.00  0.00    -0.226 A  
HETATM    3  C   UNL     1     -11.129   6.939  69.429  1.00  0.00    -0.249 C  
HETATM    4  C   UNL     1      -9.041   8.008  68.361  1.00  0.00    -0.136 C  
HETATM    5  C   UNL     1     -12.045   6.833  70.638  1.00  0.00    -0.371 C  
HETATM    6  C   UNL     1     -11.197  10.241  68.224  1.00  0.00    -0.295 A  
HETATM    7  C   UNL     1      -7.742   8.274  68.617  1.00  0.00    -0.114 C  
HETATM    8  O   UNL     1      -7.318   8.725  69.857  1.00  0.00    -0.050 OA 
HETATM    9  C   UNL     1      -6.649   8.350  67.533  1.00  0.00    -0.058 C  
HETATM   10  C   UNL     1     -11.723  11.552  68.251  1.00  0.00    -0.301 A  
HETATM   11  C   UNL     1     -12.050  12.147  69.460  1.00  0.00    -0.263 A  
HETATM   12  C   UNL     1      -7.047   7.912  66.124  1.00  0.00    -0.062 C  
HETATM   13  C   UNL     1      -9.382   7.545  66.987  1.00  0.00    -0.150 C  
HETATM   14  H   UNL     1      -6.403   8.912  70.037  1.00  0.00     0.000 HD 
HETATM   15  O   UNL     1      -8.454   7.603  66.008  1.00  0.00    -0.129 OA 
HETATM   16  C   UNL     1     -11.281  10.155  70.618  1.00  0.00    -0.418 A  
HETATM   17  O   UNL     1     -10.501   7.133  66.710  1.00  0.00    -0.271 OA 
HETATM   18  C   UNL     1     -11.862  11.436  70.643  1.00  0.00    -0.327 A  
ENDROOT
BRANCH  10  19
HETATM   19  N   UNL     1     -11.816  12.312  67.040  1.00  0.00    -0.325 N  
HETATM   20  H   UNL     1     -12.716  12.437  66.575  1.00  0.00     0.000 HD 
BRANCH  19  21
HETATM   21  S   UNL     1     -10.389  13.012  66.381  1.00  0.00    -0.287 S  
HETATM   22  O   UNL     1      -9.270  12.447  67.116  1.00  0.00    -0.186 OA 
HETATM   23  O   UNL     1     -10.462  12.878  64.939  1.00  0.00    -0.305 OA 
BRANCH  21  24
HETATM   24  C   UNL     1     -10.462  14.759  66.740  1.00  0.00    -0.282 A  
HETATM   25  C   UNL     1     -10.874  16.747  68.054  1.00  0.00    -0.341 A  
HETATM   26  N   UNL     1      -9.767  15.464  65.865  1.00  0.00    -0.337 NA 
HETATM   27  F   UNL     1     -11.360  19.549  67.525  1.00  0.00    -0.507 F  
HETATM   28  C   UNL     1     -10.101  19.022  67.424  1.00  0.00    -0.370 C  
HETATM   29  F   UNL     1      -9.496  19.296  68.619  1.00  0.00    -0.371 F  
HETATM   30  C   UNL     1      -9.631  16.778  66.136  1.00  0.00    -0.274 A  
HETATM   31  F   UNL     1      -9.505  19.860  66.545  1.00  0.00    -0.378 F  
HETATM   32  C   UNL     1     -10.167  17.532  67.176  1.00  0.00    -0.323 A  
HETATM   33  C   UNL     1     -11.019  15.356  67.867  1.00  0.00    -0.310 A  
ENDBRANCH  21  24
ENDBRANCH  19  21
ENDBRANCH  10  19
BRANCH  12  34
HETATM   34  C   UNL     1      -6.246   6.614  65.933  1.00  0.00    -0.041 C  
BRANCH  34  35
HETATM   35  C   UNL     1      -6.071   5.874  67.278  1.00  0.00    -0.018 C  
BRANCH  35  36
HETATM   36  C   UNL     1      -7.101   4.819  67.440  1.00  0.00    -0.065 A  
HETATM   37  C   UNL     1      -8.584   3.511  68.794  1.00  0.00    -0.120 A  
HETATM   38  C   UNL     1      -7.662   4.555  68.685  1.00  0.00    -0.071 A  
HETATM   39  C   UNL     1      -8.382   3.060  66.431  1.00  0.00    -0.098 A  
HETATM   40  C   UNL     1      -8.945   2.775  67.676  1.00  0.00    -0.193 A  
HETATM   41  C   UNL     1      -7.460   4.089  66.313  1.00  0.00    -0.088 A  
ENDBRANCH  35  36
ENDBRANCH  34  35
ENDBRANCH  12  34
BRANCH  12  42
HETATM   42  C   UNL     1      -6.722   8.937  64.926  1.00  0.00    -0.069 C  
BRANCH  42  43
HETATM   43  C   UNL     1      -7.736  10.083  64.711  1.00  0.00    -0.142 C  
HETATM   44  C   UNL     1      -8.759  10.074  63.576  1.00  0.00    -0.229 C  
ENDBRANCH  42  43
ENDBRANCH  12  42
TORSDOF 8
ENDMDL
MODEL       62
REMARK 921   NORMALIZED FREE ENERGY PREDICTED BY IDOCK:   -6.38 KCAL/MOL
REMARK 922        TOTAL FREE ENERGY PREDICTED BY IDOCK:  -11.35 KCAL/MOL
REMARK 923 INTER-LIGAND FREE ENERGY PREDICTED BY IDOCK:   -9.17 KCAL/MOL
REMARK 924 INTRA-LIGAND FREE ENERGY PREDICTED BY IDOCK:   -2.18 KCAL/MOL
REMARK 927      BINDING AFFINITY PREDICTED BY RF-SCORE:    0.00 PKD
ROOT
HETATM    1  C   UNL     1      -7.463   9.962  67.916  1.00  0.00    -0.089 C  
HETATM    2  C   UNL     1      -7.621  11.504  67.997  1.00  0.00    -0.112 A  
HETATM    3  C   UNL     1      -8.291   9.176  68.953  1.00  0.00    -0.124 C  
HETATM    4  C   UNL     1      -7.589   9.361  66.480  1.00  0.00    -0.093 C  
HETATM    5  C   UNL     1      -7.961   9.461  70.409  1.00  0.00    -0.190 C  
HETATM    6  C   UNL     1      -8.546  12.223  67.217  1.00  0.00    -0.183 A  
HETATM    7  C   UNL     1      -6.538   9.139  65.660  1.00  0.00    -0.068 C  
HETATM    8  O   UNL     1      -5.240   9.449  66.035  1.00  0.00    -0.035 OA 
HETATM    9  C   UNL     1      -6.671   8.766  64.171  1.00  0.00    -0.078 C  
HETATM   10  C   UNL     1      -8.570  13.636  67.204  1.00  0.00    -0.192 A  
HETATM   11  C   UNL     1      -7.728  14.355  68.038  1.00  0.00    -0.140 A  
HETATM   12  C   UNL     1      -8.078   8.452  63.665  1.00  0.00    -0.142 C  
HETATM   13  C   UNL     1      -8.940   9.003  65.964  1.00  0.00    -0.185 C  
HETATM   14  H   UNL     1      -4.501   9.293  65.458  1.00  0.00     0.000 HD 
HETATM   15  O   UNL     1      -9.098   8.678  64.663  1.00  0.00     0.042 OA 
HETATM   16  C   UNL     1      -6.799  12.265  68.858  1.00  0.00    -0.096 A  
HETATM   17  O   UNL     1      -9.927   9.021  66.687  1.00  0.00    -0.232 OA 
HETATM   18  C   UNL     1      -6.866  13.670  68.892  1.00  0.00    -0.110 A  
ENDROOT
BRANCH  10  19
HETATM   19  N   UNL     1      -9.384  14.330  66.251  1.00  0.00    -0.456 N  
HETATM   20  H   UNL     1      -9.023  14.542  65.320  1.00  0.00     0.000 HD 
BRANCH  19  21
HETATM   21  S   UNL     1     -10.978  14.800  66.698  1.00  0.00    -0.330 S  
HETATM   22  O   UNL     1     -10.859  16.075  67.384  1.00  0.00    -0.319 OA 
HETATM   23  O   UNL     1     -11.816  14.675  65.521  1.00  0.00    -0.349 OA 
BRANCH  21  24
HETATM   24  C   UNL     1     -11.558  13.589  67.875  1.00  0.00    -0.342 A  
HETATM   25  C   UNL     1     -11.953  11.386  68.791  1.00  0.00    -0.353 A  
HETATM   26  N   UNL     1     -11.834  14.140  69.043  1.00  0.00    -0.329 NA 
HETATM   27  F   UNL     1     -13.761  10.209  70.718  1.00  0.00    -0.395 F  
HETATM   28  C   UNL     1     -12.689  10.957  71.125  1.00  0.00    -0.429 C  
HETATM   29  F   UNL     1     -11.705  10.054  71.414  1.00  0.00    -0.395 F  
HETATM   30  C   UNL     1     -12.132  13.289  70.045  1.00  0.00    -0.315 A  
HETATM   31  F   UNL     1     -13.094  11.412  72.333  1.00  0.00    -0.552 F  
HETATM   32  C   UNL     1     -12.255  11.903  70.027  1.00  0.00    -0.291 A  
HETATM   33  C   UNL     1     -11.584  12.208  67.705  1.00  0.00    -0.410 A  
ENDBRANCH  21  24
ENDBRANCH  19  21
ENDBRANCH  10  19
BRANCH  12  34
HETATM   34  C   UNL     1      -8.006   6.944  63.375  1.00  0.00    -0.069 C  
BRANCH  34  35
HETATM   35  C   UNL     1      -7.076   6.235  64.384  1.00  0.00    -0.057 C  
BRANCH  35  36
HETATM   36  C   UNL     1      -7.858   5.418  65.343  1.00  0.00    -0.095 A  
HETATM   37  C   UNL     1      -8.542   4.861  67.571  1.00  0.00    -0.104 A  
HETATM   38  C   UNL     1      -7.834   5.697  66.706  1.00  0.00    -0.101 A  
HETATM   39  C   UNL     1      -9.294   3.530  65.702  1.00  0.00    -0.158 A  
HETATM   40  C   UNL     1      -9.270   3.791  67.073  1.00  0.00    -0.202 A  
HETATM   41  C   UNL     1      -8.589   4.350  64.835  1.00  0.00    -0.130 A  
ENDBRANCH  35  36
ENDBRANCH  34  35
ENDBRANCH  12  34
BRANCH  12  42
HETATM   42  C   UNL     1      -8.569   9.239  62.348  1.00  0.00    -0.225 C  
BRANCH  42  43
HETATM   43  C   UNL     1      -8.625  10.780  62.453  1.00  0.00    -0.322 C  
HETATM   44  C   UNL     1      -9.801  11.518  63.092  1.00  0.00    -0.413 C  
ENDBRANCH  42  43
ENDBRANCH  12  42
TORSDOF 8
ENDMDL
MODEL       63
REMARK 921   NORMALIZED FREE ENERGY PREDICTED BY IDOCK:   -6.35 KCAL/MOL
REMARK 922        TOTAL FREE ENERGY PREDICTED BY IDOCK:  -11.31 KCAL/MOL
REMARK 923 INTER-LIGAND FREE ENERGY PREDICTED BY IDOCK:  -10.40 KCAL/MOL
REMARK 924 INTRA-LIGAND FREE ENERGY PREDICTED BY IDOCK:   -0.92 KCAL/MOL
REMARK 927      BINDING AFFINITY PREDICTED BY RF-SCORE:    0.00 PKD
ROOT
HETATM    1  C   UNL     1     -11.645  12.594  67.106  1.00  0.00    -0.434 C  
HETATM    2  C   UNL     1     -11.050  13.757  67.944  1.00  0.00    -0.285 A  
HETATM    3  C   UNL     1     -11.819  12.906  65.606  1.00  0.00    -0.464 C  
HETATM    4  C   UNL     1     -10.980  11.200  67.347  1.00  0.00    -0.347 C  
HETATM    5  C   UNL     1     -12.759  14.056  65.281  1.00  0.00    -0.468 C  
HETATM    6  C   UNL     1      -9.675  13.882  68.217  1.00  0.00    -0.223 A  
HETATM    7  C   UNL     1     -11.432  10.293  68.240  1.00  0.00    -0.075 C  
HETATM    8  O   UNL     1     -12.535  10.542  69.041  1.00  0.00    -0.770 OA 
HETATM    9  C   UNL     1     -10.657   9.025  68.646  1.00  0.00    -0.194 C  
HETATM   10  C   UNL     1      -9.178  14.867  69.100  1.00  0.00    -0.142 A  
HETATM   11  C   UNL     1     -10.037  15.800  69.659  1.00  0.00    -0.289 A  
HETATM   12  C   UNL     1      -9.399   8.701  67.840  1.00  0.00    -0.142 C  
HETATM   13  C   UNL     1      -9.775  10.830  66.553  1.00  0.00    -0.196 C  
HETATM   14  H   UNL     1     -12.853   9.904  69.669  1.00  0.00     0.000 HD 
HETATM   15  O   UNL     1      -9.065   9.730  66.882  1.00  0.00    -0.140 OA 
HETATM   16  C   UNL     1     -11.894  14.741  68.506  1.00  0.00    -0.340 A  
HETATM   17  O   UNL     1      -9.390  11.517  65.616  1.00  0.00    -0.224 OA 
HETATM   18  C   UNL     1     -11.391  15.760  69.336  1.00  0.00    -0.348 A  
ENDROOT
BRANCH  10  19
HETATM   19  N   UNL     1      -7.804  14.836  69.506  1.00  0.00    -0.378 N  
HETATM   20  H   UNL     1      -7.552  14.972  70.486  1.00  0.00     0.000 HD 
BRANCH  19  21
HETATM   21  S   UNL     1      -6.587  14.566  68.320  1.00  0.00    -0.134 S  
HETATM   22  O   UNL     1      -5.357  14.287  69.042  1.00  0.00    -0.080 OA 
HETATM   23  O   UNL     1      -7.111  13.610  67.365  1.00  0.00    -0.168 OA 
BRANCH  21  24
HETATM   24  C   UNL     1      -6.377  16.107  67.443  1.00  0.00    -0.176 A  
HETATM   25  C   UNL     1      -5.204  17.825  66.210  1.00  0.00    -0.223 A  
HETATM   26  N   UNL     1      -7.538  16.629  67.093  1.00  0.00    -0.167 NA 
HETATM   27  F   UNL     1      -5.580  20.639  65.656  1.00  0.00    -0.198 F  
HETATM   28  C   UNL     1      -6.321  19.689  65.007  1.00  0.00    -0.276 C  
HETATM   29  F   UNL     1      -5.683  19.484  63.816  1.00  0.00    -0.263 F  
HETATM   30  C   UNL     1      -7.486  17.713  66.293  1.00  0.00    -0.305 A  
HETATM   31  F   UNL     1      -7.442  20.371  64.675  1.00  0.00    -0.130 F  
HETATM   32  C   UNL     1      -6.380  18.415  65.819  1.00  0.00    -0.295 A  
HETATM   33  C   UNL     1      -5.177  16.660  67.006  1.00  0.00    -0.115 A  
ENDBRANCH  21  24
ENDBRANCH  19  21
ENDBRANCH  10  19
BRANCH  12  34
HETATM   34  C   UNL     1      -9.804   7.433  67.073  1.00  0.00    -0.273 C  
BRANCH  34  35
HETATM   35  C   UNL     1     -10.901   6.657  67.835  1.00  0.00    -0.353 C  
BRANCH  35  36
HETATM   36  C   UNL     1     -10.322   5.508  68.572  1.00  0.00    -0.247 A  
HETATM   37  C   UNL     1      -9.300   3.342  68.633  1.00  0.00    -0.234 A  
HETATM   38  C   UNL     1      -9.778   4.424  67.891  1.00  0.00    -0.186 A  
HETATM   39  C   UNL     1      -9.887   4.464  70.688  1.00  0.00    -0.280 A  
HETATM   40  C   UNL     1      -9.349   3.365  70.018  1.00  0.00    -0.242 A  
HETATM   41  C   UNL     1     -10.372   5.541  69.961  1.00  0.00    -0.358 A  
ENDBRANCH  35  36
ENDBRANCH  34  35
ENDBRANCH  12  34
BRANCH  12  42
HETATM   42  C   UNL     1      -8.051   8.427  68.678  1.00  0.00    -0.122 C  
BRANCH  42  43
HETATM   43  C   UNL     1      -6.721   8.585  67.905  1.00  0.00    -0.066 C  
HETATM   44  C   UNL     1      -6.244   7.563  66.874  1.00  0.00    -0.048 C  
ENDBRANCH  42  43
ENDBRANCH  12  42
TORSDOF 8
ENDMDL
MODEL       64
REMARK 921   NORMALIZED FREE ENERGY PREDICTED BY IDOCK:   -6.20 KCAL/MOL
REMARK 922        TOTAL FREE ENERGY PREDICTED BY IDOCK:  -11.10 KCAL/MOL
REMARK 923 INTER-LIGAND FREE ENERGY PREDICTED BY IDOCK:   -9.01 KCAL/MOL
REMARK 924 INTRA-LIGAND FREE ENERGY PREDICTED BY IDOCK:   -2.08 KCAL/MOL
REMARK 927      BINDING AFFINITY PREDICTED BY RF-SCORE:    0.00 PKD
ROOT
HETATM    1  C   UNL     1      -6.824  11.978  67.636  1.00  0.00    -0.115 C  
HETATM    2  C   UNL     1      -7.660  13.257  67.365  1.00  0.00    -0.137 A  
HETATM    3  C   UNL     1      -6.917  11.443  69.079  1.00  0.00    -0.106 C  
HETATM    4  C   UNL     1      -6.991  10.844  66.573  1.00  0.00    -0.139 C  
HETATM    5  C   UNL     1      -6.423  12.389  70.162  1.00  0.00     0.176 C  
HETATM    6  C   UNL     1      -8.968  13.224  66.848  1.00  0.00    -0.212 A  
HETATM    7  C   UNL     1      -6.186  10.694  65.498  1.00  0.00    -0.093 C  
HETATM    8  O   UNL     1      -5.137  11.562  65.243  1.00  0.00    -0.469 OA 
HETATM    9  C   UNL     1      -6.478   9.730  64.333  1.00  0.00    -0.117 C  
HETATM   10  C   UNL     1      -9.652  14.404  66.476  1.00  0.00    -0.293 A  
HETATM   11  C   UNL     1      -9.073  15.644  66.697  1.00  0.00    -0.313 A  
HETATM   12  C   UNL     1      -7.650   8.766  64.515  1.00  0.00    -0.111 C  
HETATM   13  C   UNL     1      -8.097   9.860  66.737  1.00  0.00    -0.117 C  
HETATM   14  H   UNL     1      -4.571  11.457  64.487  1.00  0.00     0.000 HD 
HETATM   15  O   UNL     1      -8.388   9.003  65.735  1.00  0.00    -0.117 OA 
HETATM   16  C   UNL     1      -7.112  14.537  67.607  1.00  0.00    -0.202 A  
HETATM   17  O   UNL     1      -8.774   9.822  67.755  1.00  0.00    -0.128 OA 
HETATM   18  C   UNL     1      -7.816  15.713  67.295  1.00  0.00    -0.230 A  
ENDROOT
BRANCH  10  19
HETATM   19  N   UNL     1     -10.895  14.319  65.770  1.00  0.00    -0.295 N  
HETATM   20  H   UNL     1     -10.972  14.669  64.815  1.00  0.00     0.000 HD 
BRANCH  19  21
HETATM   21  S   UNL     1     -12.257  13.618  66.555  1.00  0.00    -0.370 S  
HETATM   22  O   UNL     1     -13.437  14.201  65.940  1.00  0.00    -0.252 OA 
HETATM   23  O   UNL     1     -12.066  12.181  66.561  1.00  0.00    -0.627 OA 
BRANCH  21  24
HETATM   24  C   UNL     1     -12.197  14.152  68.258  1.00  0.00    -0.161 A  
HETATM   25  C   UNL     1     -12.228  15.715  70.103  1.00  0.00    -0.387 A  
HETATM   26  N   UNL     1     -12.380  13.143  69.090  1.00  0.00    -0.063 NA 
HETATM   27  F   UNL     1     -11.323  15.735  72.851  1.00  0.00    -0.462 F  
HETATM   28  C   UNL     1     -12.453  15.054  72.488  1.00  0.00    -0.358 C  
HETATM   29  F   UNL     1     -13.491  15.900  72.765  1.00  0.00    -0.508 F  
HETATM   30  C   UNL     1     -12.507  13.464  70.394  1.00  0.00    -0.252 A  
HETATM   31  F   UNL     1     -12.535  14.097  73.440  1.00  0.00    -0.388 F  
HETATM   32  C   UNL     1     -12.414  14.706  71.016  1.00  0.00    -0.399 A  
HETATM   33  C   UNL     1     -12.136  15.464  68.718  1.00  0.00    -0.183 A  
ENDBRANCH  21  24
ENDBRANCH  19  21
ENDBRANCH  10  19
BRANCH  12  34
HETATM   34  C   UNL     1      -6.953   7.401  64.626  1.00  0.00    -0.051 C  
BRANCH  34  35
HETATM   35  C   UNL     1      -7.755   6.448  65.541  1.00  0.00    -0.096 C  
BRANCH  35  36
HETATM   36  C   UNL     1      -8.449   5.408  64.743  1.00  0.00    -0.138 A  
HETATM   37  C   UNL     1     -10.183   3.779  64.457  1.00  0.00    -0.209 A  
HETATM   38  C   UNL     1      -9.602   4.794  65.221  1.00  0.00    -0.126 A  
HETATM   39  C   UNL     1      -8.480   4.048  62.767  1.00  0.00    -0.085 A  
HETATM   40  C   UNL     1      -9.631   3.414  63.239  1.00  0.00    -0.106 A  
HETATM   41  C   UNL     1      -7.890   5.051  63.521  1.00  0.00    -0.081 A  
ENDBRANCH  35  36
ENDBRANCH  34  35
ENDBRANCH  12  34
BRANCH  12  42
HETATM   42  C   UNL     1      -8.748   8.726  63.338  1.00  0.00     0.021 C  
BRANCH  42  43
HETATM   43  C   UNL     1      -9.300  10.091  62.870  1.00  0.00    -0.290 C  
HETATM   44  C   UNL     1     -10.160  10.981  63.768  1.00  0.00    -0.420 C  
ENDBRANCH  42  43
ENDBRANCH  12  42
TORSDOF 8
ENDMDL
MODEL       65
REMARK 921   NORMALIZED FREE ENERGY PREDICTED BY IDOCK:   -6.20 KCAL/MOL
REMARK 922        TOTAL FREE ENERGY PREDICTED BY IDOCK:  -11.09 KCAL/MOL
REMARK 923 INTER-LIGAND FREE ENERGY PREDICTED BY IDOCK:   -9.81 KCAL/MOL
REMARK 924 INTRA-LIGAND FREE ENERGY PREDICTED BY IDOCK:   -1.27 KCAL/MOL
REMARK 927      BINDING AFFINITY PREDICTED BY RF-SCORE:    0.00 PKD
ROOT
HETATM    1  C   UNL     1      -6.428  11.273  67.627  1.00  0.00    -0.067 C  
HETATM    2  C   UNL     1      -6.860  12.739  67.895  1.00  0.00    -0.114 A  
HETATM    3  C   UNL     1      -6.554  10.333  68.843  1.00  0.00    -0.052 C  
HETATM    4  C   UNL     1      -7.019  10.638  66.327  1.00  0.00    -0.133 C  
HETATM    5  C   UNL     1      -5.708  10.706  70.050  1.00  0.00    -0.067 C  
HETATM    6  C   UNL     1      -8.157  13.218  67.631  1.00  0.00    -0.174 A  
HETATM    7  C   UNL     1      -6.392  10.650  65.130  1.00  0.00     0.001 C  
HETATM    8  O   UNL     1      -5.156  11.252  64.958  1.00  0.00    -0.481 OA 
HETATM    9  C   UNL     1      -7.059  10.236  63.805  1.00  0.00    -0.056 C  
HETATM   10  C   UNL     1      -8.482  14.588  67.749  1.00  0.00    -0.174 A  
HETATM   11  C   UNL     1      -7.540  15.491  68.216  1.00  0.00    -0.115 A  
HETATM   12  C   UNL     1      -8.447   9.603  63.902  1.00  0.00    -0.187 C  
HETATM   13  C   UNL     1      -8.352   9.976  66.389  1.00  0.00    -0.126 C  
HETATM   14  H   UNL     1      -4.715  11.261  64.116  1.00  0.00     0.000 HD 
HETATM   15  O   UNL     1      -8.972   9.605  65.249  1.00  0.00    -0.175 OA 
HETATM   16  C   UNL     1      -5.933  13.679  68.399  1.00  0.00    -0.097 A  
HETATM   17  O   UNL     1      -8.919   9.779  67.455  1.00  0.00    -0.131 OA 
HETATM   18  C   UNL     1      -6.275  15.032  68.574  1.00  0.00    -0.094 A  
ENDROOT
BRANCH  10  19
HETATM   19  N   UNL     1      -9.749  15.066  67.280  1.00  0.00    -0.219 N  
HETATM   20  H   UNL     1      -9.811  15.935  66.750  1.00  0.00     0.000 HD 
BRANCH  19  21
HETATM   21  S   UNL     1     -11.166  14.152  67.625  1.00  0.00    -0.311 S  
HETATM   22  O   UNL     1     -12.175  14.571  66.667  1.00  0.00    -0.379 OA 
HETATM   23  O   UNL     1     -10.776  12.758  67.718  1.00  0.00    -0.214 OA 
BRANCH  21  24
HETATM   24  C   UNL     1     -11.709  14.644  69.254  1.00  0.00    -0.312 A  
HETATM   25  C   UNL     1     -12.758  14.400  71.419  1.00  0.00    -0.413 A  
HETATM   26  N   UNL     1     -11.102  15.746  69.656  1.00  0.00    -0.280 NA 
HETATM   27  F   UNL     1     -13.842  16.168  73.436  1.00  0.00    -0.656 F  
HETATM   28  C   UNL     1     -12.491  16.014  73.289  1.00  0.00    -0.535 C  
HETATM   29  F   UNL     1     -12.128  15.083  74.221  1.00  0.00    -0.662 F  
HETATM   30  C   UNL     1     -11.327  16.116  70.932  1.00  0.00    -0.359 A  
HETATM   31  F   UNL     1     -12.010  17.182  73.775  1.00  0.00    -0.458 F  
HETATM   32  C   UNL     1     -12.159  15.543  71.891  1.00  0.00    -0.489 A  
HETATM   33  C   UNL     1     -12.534  13.921  70.111  1.00  0.00    -0.355 A  
ENDBRANCH  21  24
ENDBRANCH  19  21
ENDBRANCH  10  19
BRANCH  12  34
HETATM   34  C   UNL     1      -8.187   8.148  63.484  1.00  0.00    -0.058 C  
BRANCH  34  35
HETATM   35  C   UNL     1      -6.871   7.625  64.103  1.00  0.00    -0.056 C  
BRANCH  35  36
HETATM   36  C   UNL     1      -7.143   6.767  65.281  1.00  0.00    -0.067 A  
HETATM   37  C   UNL     1      -8.404   5.067  66.404  1.00  0.00    -0.108 A  
HETATM   38  C   UNL     1      -8.150   5.808  65.248  1.00  0.00    -0.130 A  
HETATM   39  C   UNL     1      -6.634   6.230  67.563  1.00  0.00    -0.052 A  
HETATM   40  C   UNL     1      -7.649   5.272  67.549  1.00  0.00    -0.088 A  
HETATM   41  C   UNL     1      -6.379   6.977  66.423  1.00  0.00    -0.050 A  
ENDBRANCH  35  36
ENDBRANCH  34  35
ENDBRANCH  12  34
BRANCH  12  42
HETATM   42  C   UNL     1      -9.603  10.240  62.979  1.00  0.00    -0.297 C  
BRANCH  42  43
HETATM   43  C   UNL     1     -10.096  11.650  63.375  1.00  0.00    -0.468 C  
HETATM   44  C   UNL     1     -11.578  11.989  63.531  1.00  0.00    -0.553 C  
ENDBRANCH  42  43
ENDBRANCH  12  42
TORSDOF 8
ENDMDL
MODEL       66
REMARK 921   NORMALIZED FREE ENERGY PREDICTED BY IDOCK:   -6.11 KCAL/MOL
REMARK 922        TOTAL FREE ENERGY PREDICTED BY IDOCK:  -10.96 KCAL/MOL
REMARK 923 INTER-LIGAND FREE ENERGY PREDICTED BY IDOCK:   -9.10 KCAL/MOL
REMARK 924 INTRA-LIGAND FREE ENERGY PREDICTED BY IDOCK:   -1.85 KCAL/MOL
REMARK 927      BINDING AFFINITY PREDICTED BY RF-SCORE:    0.00 PKD
ROOT
HETATM    1  C   UNL     1      -8.518   7.321  68.799  1.00  0.00    -0.129 C  
HETATM    2  C   UNL     1      -7.714   7.005  67.510  1.00  0.00    -0.111 A  
HETATM    3  C   UNL     1      -7.736   7.109  70.112  1.00  0.00    -0.095 C  
HETATM    4  C   UNL     1      -9.284   8.682  68.781  1.00  0.00    -0.142 C  
HETATM    5  C   UNL     1      -7.256   5.689  70.367  1.00  0.00    -0.071 C  
HETATM    6  C   UNL     1      -7.010   7.983  66.784  1.00  0.00    -0.073 A  
HETATM    7  C   UNL     1     -10.571   8.818  68.392  1.00  0.00    -0.137 C  
HETATM    8  O   UNL     1     -11.321   7.738  67.955  1.00  0.00    -0.215 OA 
HETATM    9  C   UNL     1     -11.259  10.176  68.153  1.00  0.00    -0.245 C  
HETATM   10  C   UNL     1      -6.407   7.697  65.538  1.00  0.00    -0.042 A  
HETATM   11  C   UNL     1      -6.425   6.405  65.036  1.00  0.00    -0.038 A  
HETATM   12  C   UNL     1     -10.480  11.424  68.567  1.00  0.00    -0.203 C  
HETATM   13  C   UNL     1      -8.572   9.917  69.216  1.00  0.00    -0.167 C  
HETATM   14  H   UNL     1     -12.226   7.834  67.681  1.00  0.00     0.000 HD 
HETATM   15  O   UNL     1      -9.139  11.125  69.017  1.00  0.00    -0.134 OA 
HETATM   16  C   UNL     1      -7.686   5.693  66.986  1.00  0.00    -0.101 A  
HETATM   17  O   UNL     1      -7.463   9.867  69.731  1.00  0.00    -0.104 OA 
HETATM   18  C   UNL     1      -7.034   5.394  65.776  1.00  0.00    -0.066 A  
ENDROOT
BRANCH  10  19
HETATM   19  N   UNL     1      -5.876   8.761  64.739  1.00  0.00    -0.062 N  
HETATM   20  H   UNL     1      -5.121   9.348  65.095  1.00  0.00     0.000 HD 
BRANCH  19  21
HETATM   21  S   UNL     1      -6.529   9.034  63.170  1.00  0.00    -0.090 S  
HETATM   22  O   UNL     1      -5.536   9.798  62.434  1.00  0.00    -0.087 OA 
HETATM   23  O   UNL     1      -6.998   7.759  62.664  1.00  0.00    -0.078 OA 
BRANCH  21  24
HETATM   24  C   UNL     1      -7.970  10.065  63.388  1.00  0.00    -0.156 A  
HETATM   25  C   UNL     1      -9.656  11.691  62.787  1.00  0.00    -0.096 A  
HETATM   26  N   UNL     1      -8.695   9.673  64.420  1.00  0.00    -0.191 NA 
HETATM   27  F   UNL     1     -11.489  13.431  64.194  1.00  0.00    -0.367 F  
HETATM   28  C   UNL     1     -11.737  12.089  64.085  1.00  0.00    -0.372 C  
HETATM   29  F   UNL     1     -12.586  11.962  63.022  1.00  0.00    -0.630 F  
HETATM   30  C   UNL     1      -9.885  10.288  64.578  1.00  0.00    -0.315 A  
HETATM   31  F   UNL     1     -12.513  11.847  65.167  1.00  0.00    -0.286 F  
HETATM   32  C   UNL     1     -10.451  11.330  63.847  1.00  0.00    -0.452 A  
HETATM   33  C   UNL     1      -8.421  11.060  62.526  1.00  0.00    -0.272 A  
ENDBRANCH  21  24
ENDBRANCH  19  21
ENDBRANCH  10  19
BRANCH  12  34
HETATM   34  C   UNL     1     -11.289  11.948  69.763  1.00  0.00    -0.223 C  
BRANCH  34  35
HETATM   35  C   UNL     1     -12.160  13.155  69.350  1.00  0.00    -0.285 C  
BRANCH  35  36
HETATM   36  C   UNL     1     -12.595  13.928  70.539  1.00  0.00    -0.382 A  
HETATM   37  C   UNL     1     -12.743  15.966  71.790  1.00  0.00    -0.466 A  
HETATM   38  C   UNL     1     -12.367  15.298  70.623  1.00  0.00    -0.427 A  
HETATM   39  C   UNL     1     -13.584  13.905  72.724  1.00  0.00    -0.493 A  
HETATM   40  C   UNL     1     -13.351  15.277  72.828  1.00  0.00    -0.603 A  
HETATM   41  C   UNL     1     -13.208  13.230  71.573  1.00  0.00    -0.383 A  
ENDBRANCH  35  36
ENDBRANCH  34  35
ENDBRANCH  12  34
BRANCH  12  42
HETATM   42  C   UNL     1     -10.324  12.584  67.461  1.00  0.00    -0.225 C  
BRANCH  42  43
HETATM   43  C   UNL     1      -8.933  12.718  66.802  1.00  0.00    -0.188 C  
HETATM   44  C   UNL     1      -8.117  14.009  66.861  1.00  0.00     0.095 C  
ENDBRANCH  42  43
ENDBRANCH  12  42
TORSDOF 8
ENDMDL
MODEL       67
REMARK 921   NORMALIZED FREE ENERGY PREDICTED BY IDOCK:   -6.10 KCAL/MOL
REMARK 922        TOTAL FREE ENERGY PREDICTED BY IDOCK:  -10.95 KCAL/MOL
REMARK 923 INTER-LIGAND FREE ENERGY PREDICTED BY IDOCK:   -9.32 KCAL/MOL
REMARK 924 INTRA-LIGAND FREE ENERGY PREDICTED BY IDOCK:   -1.62 KCAL/MOL
REMARK 927      BINDING AFFINITY PREDICTED BY RF-SCORE:    0.00 PKD
ROOT
HETATM    1  C   UNL     1      -7.838   6.020  68.543  1.00  0.00    -0.100 C  
HETATM    2  C   UNL     1      -7.887   6.023  66.992  1.00  0.00    -0.102 A  
HETATM    3  C   UNL     1      -6.420   6.114  69.141  1.00  0.00    -0.043 C  
HETATM    4  C   UNL     1      -8.838   7.000  69.237  1.00  0.00    -0.139 C  
HETATM    5  C   UNL     1      -5.481   4.973  68.784  1.00  0.00    -0.011 C  
HETATM    6  C   UNL     1      -8.073   7.193  66.232  1.00  0.00    -0.118 A  
HETATM    7  C   UNL     1     -10.077   6.649  69.646  1.00  0.00    -0.181 C  
HETATM    8  O   UNL     1     -10.572   5.368  69.463  1.00  0.00    -0.292 OA 
HETATM    9  C   UNL     1     -11.145   7.655  70.116  1.00  0.00    -0.229 C  
HETATM   10  C   UNL     1      -8.257   7.150  64.832  1.00  0.00    -0.071 A  
HETATM   11  C   UNL     1      -8.173   5.943  64.154  1.00  0.00    -0.075 A  
HETATM   12  C   UNL     1     -10.692   9.103  70.300  1.00  0.00    -0.231 C  
HETATM   13  C   UNL     1      -8.419   8.411  69.470  1.00  0.00    -0.124 C  
HETATM   14  H   UNL     1     -11.443   5.121  69.751  1.00  0.00     0.000 HD 
HETATM   15  O   UNL     1      -9.328   9.323  69.876  1.00  0.00    -0.171 OA 
HETATM   16  C   UNL     1      -7.775   4.815  66.268  1.00  0.00    -0.091 A  
HETATM   17  O   UNL     1      -7.267   8.777  69.278  1.00  0.00    -0.060 OA 
HETATM   18  C   UNL     1      -7.897   4.778  64.867  1.00  0.00    -0.091 A  
ENDROOT
BRANCH  10  19
HETATM   19  N   UNL     1      -8.642   8.334  64.123  1.00  0.00    -0.396 N  
HETATM   20  H   UNL     1      -9.383   8.299  63.422  1.00  0.00     0.000 HD 
BRANCH  19  21
HETATM   21  S   UNL     1      -7.837   9.815  64.470  1.00  0.00    -0.144 S  
HETATM   22  O   UNL     1      -6.859   9.524  65.504  1.00  0.00    -0.080 OA 
HETATM   23  O   UNL     1      -7.421  10.393  63.207  1.00  0.00    -0.135 OA 
BRANCH  21  24
HETATM   24  C   UNL     1      -9.063  10.914  65.161  1.00  0.00    -0.196 A  
HETATM   25  C   UNL     1      -9.984  12.536  66.700  1.00  0.00    -0.243 A  
HETATM   26  N   UNL     1     -10.044  11.145  64.307  1.00  0.00    -0.297 NA 
HETATM   27  F   UNL     1     -12.625  13.399  67.507  1.00  0.00    -0.244 F  
HETATM   28  C   UNL     1     -12.092  13.791  66.308  1.00  0.00    -0.446 C  
HETATM   29  F   UNL     1     -11.558  15.028  66.536  1.00  0.00    -0.351 F  
HETATM   30  C   UNL     1     -10.941  12.083  64.673  1.00  0.00    -0.317 A  
HETATM   31  F   UNL     1     -13.197  14.032  65.564  1.00  0.00    -0.547 F  
HETATM   32  C   UNL     1     -11.030  12.815  65.854  1.00  0.00    -0.303 A  
HETATM   33  C   UNL     1      -8.979  11.604  66.367  1.00  0.00    -0.198 A  
ENDBRANCH  21  24
ENDBRANCH  19  21
ENDBRANCH  10  19
BRANCH  12  34
HETATM   34  C   UNL     1     -10.765   9.291  71.823  1.00  0.00    -0.324 C  
BRANCH  34  35
HETATM   35  C   UNL     1     -11.473   8.092  72.491  1.00  0.00    -0.471 C  
BRANCH  35  36
HETATM   36  C   UNL     1     -10.501   7.239  73.217  1.00  0.00    -0.416 A  
HETATM   37  C   UNL     1      -8.346   6.862  74.195  1.00  0.00    -0.164 A  
HETATM   38  C   UNL     1      -9.245   7.725  73.565  1.00  0.00    -0.350 A  
HETATM   39  C   UNL     1      -9.982   5.086  74.141  1.00  0.00    -0.215 A  
HETATM   40  C   UNL     1      -8.714   5.557  74.486  1.00  0.00    -0.113 A  
HETATM   41  C   UNL     1     -10.879   5.933  73.508  1.00  0.00    -0.246 A  
ENDBRANCH  35  36
ENDBRANCH  34  35
ENDBRANCH  12  34
BRANCH  12  42
HETATM   42  C   UNL     1     -11.569  10.237  69.566  1.00  0.00    -0.234 C  
BRANCH  42  43
HETATM   43  C   UNL     1     -12.551  11.028  70.460  1.00  0.00    -0.390 C  
HETATM   44  C   UNL     1     -12.352  12.506  70.793  1.00  0.00    -0.376 C  
ENDBRANCH  42  43
ENDBRANCH  12  42
TORSDOF 8
ENDMDL
MODEL       68
REMARK 921   NORMALIZED FREE ENERGY PREDICTED BY IDOCK:   -6.10 KCAL/MOL
REMARK 922        TOTAL FREE ENERGY PREDICTED BY IDOCK:  -10.94 KCAL/MOL
REMARK 923 INTER-LIGAND FREE ENERGY PREDICTED BY IDOCK:   -9.35 KCAL/MOL
REMARK 924 INTRA-LIGAND FREE ENERGY PREDICTED BY IDOCK:   -1.58 KCAL/MOL
REMARK 927      BINDING AFFINITY PREDICTED BY RF-SCORE:    0.00 PKD
ROOT
HETATM    1  C   UNL     1     -10.956  10.162  70.268  1.00  0.00    -0.380 C  
HETATM    2  C   UNL     1     -11.426  11.458  69.555  1.00  0.00    -0.381 A  
HETATM    3  C   UNL     1     -12.098   9.271  70.800  1.00  0.00    -0.231 C  
HETATM    4  C   UNL     1      -9.876   9.339  69.495  1.00  0.00    -0.188 C  
HETATM    5  C   UNL     1     -12.995   9.911  71.846  1.00  0.00    -0.545 C  
HETATM    6  C   UNL     1     -11.610  11.545  68.162  1.00  0.00    -0.378 A  
HETATM    7  C   UNL     1      -8.545   9.479  69.680  1.00  0.00    -0.183 C  
HETATM    8  O   UNL     1      -8.026  10.396  70.580  1.00  0.00    -0.369 OA 
HETATM    9  C   UNL     1      -7.477   8.846  68.769  1.00  0.00    -0.083 C  
HETATM   10  C   UNL     1     -11.898  12.773  67.525  1.00  0.00    -0.343 A  
HETATM   11  C   UNL     1     -12.093  13.921  68.278  1.00  0.00    -0.322 A  
HETATM   12  C   UNL     1      -7.973   7.854  67.717  1.00  0.00    -0.124 C  
HETATM   13  C   UNL     1     -10.319   8.333  68.489  1.00  0.00    -0.199 C  
HETATM   14  H   UNL     1      -7.089  10.495  70.711  1.00  0.00     0.000 HD 
HETATM   15  O   UNL     1      -9.414   7.760  67.667  1.00  0.00    -0.140 OA 
HETATM   16  C   UNL     1     -11.662  12.638  70.295  1.00  0.00    -0.194 A  
HETATM   17  O   UNL     1     -11.498   8.026  68.367  1.00  0.00     0.695 OA 
HETATM   18  C   UNL     1     -12.010  13.847  69.666  1.00  0.00    -0.399 A  
ENDROOT
BRANCH  10  19
HETATM   19  N   UNL     1     -11.880  12.859  66.095  1.00  0.00    -0.409 N  
HETATM   20  H   UNL     1     -12.705  12.605  65.551  1.00  0.00     0.000 HD 
BRANCH  19  21
HETATM   21  S   UNL     1     -10.446  13.396  65.308  1.00  0.00    -0.335 S  
HETATM   22  O   UNL     1      -9.345  12.656  65.900  1.00  0.00    -0.147 OA 
HETATM   23  O   UNL     1     -10.685  13.339  63.879  1.00  0.00    -0.318 OA 
BRANCH  21  24
HETATM   24  C   UNL     1     -10.246  15.120  65.729  1.00  0.00    -0.341 A  
HETATM   25  C   UNL     1     -10.750  17.485  65.726  1.00  0.00    -0.106 A  
HETATM   26  N   UNL     1      -9.447  15.276  66.769  1.00  0.00    -0.232 NA 
HETATM   27  F   UNL     1      -9.314  19.936  66.274  1.00  0.00    -0.372 F  
HETATM   28  C   UNL     1      -9.741  19.128  67.293  1.00  0.00    -0.319 C  
HETATM   29  F   UNL     1     -10.927  19.665  67.709  1.00  0.00    -0.528 F  
HETATM   30  C   UNL     1      -9.352  16.527  67.262  1.00  0.00    -0.222 A  
HETATM   31  F   UNL     1      -8.870  19.426  68.285  1.00  0.00    -0.330 F  
HETATM   32  C   UNL     1      -9.927  17.709  66.803  1.00  0.00    -0.320 A  
HETATM   33  C   UNL     1     -10.939  16.196  65.184  1.00  0.00    -0.327 A  
ENDBRANCH  21  24
ENDBRANCH  19  21
ENDBRANCH  10  19
BRANCH  12  34
HETATM   34  C   UNL     1      -7.415   6.515  68.223  1.00  0.00    -0.095 C  
BRANCH  34  35
HETATM   35  C   UNL     1      -8.562   5.558  68.619  1.00  0.00    -0.103 C  
BRANCH  35  36
HETATM   36  C   UNL     1      -8.509   4.308  67.821  1.00  0.00    -0.102 A  
HETATM   37  C   UNL     1      -8.641   1.924  67.627  1.00  0.00    -0.106 A  
HETATM   38  C   UNL     1      -8.761   3.074  68.410  1.00  0.00    -0.139 A  
HETATM   39  C   UNL     1      -8.061   3.268  65.706  1.00  0.00    -0.093 A  
HETATM   40  C   UNL     1      -8.300   2.021  66.287  1.00  0.00    -0.095 A  
HETATM   41  C   UNL     1      -8.171   4.415  66.477  1.00  0.00    -0.102 A  
ENDBRANCH  35  36
ENDBRANCH  34  35
ENDBRANCH  12  34
BRANCH  12  42
HETATM   42  C   UNL     1      -7.496   8.107  66.199  1.00  0.00    -0.078 C  
BRANCH  42  43
HETATM   43  C   UNL     1      -7.934   9.443  65.558  1.00  0.00    -0.111 C  
HETATM   44  C   UNL     1      -9.153   9.555  64.643  1.00  0.00    -0.263 C  
ENDBRANCH  42  43
ENDBRANCH  12  42
TORSDOF 8
ENDMDL
MODEL       69
REMARK 921   NORMALIZED FREE ENERGY PREDICTED BY IDOCK:   -6.08 KCAL/MOL
REMARK 922        TOTAL FREE ENERGY PREDICTED BY IDOCK:  -10.92 KCAL/MOL
REMARK 923 INTER-LIGAND FREE ENERGY PREDICTED BY IDOCK:   -8.88 KCAL/MOL
REMARK 924 INTRA-LIGAND FREE ENERGY PREDICTED BY IDOCK:   -2.05 KCAL/MOL
REMARK 927      BINDING AFFINITY PREDICTED BY RF-SCORE:    0.00 PKD
ROOT
HETATM    1  C   UNL     1      -7.856   9.522  68.040  1.00  0.00    -0.087 C  
HETATM    2  C   UNL     1      -8.090  11.051  67.909  1.00  0.00    -0.114 A  
HETATM    3  C   UNL     1      -8.809   8.809  69.021  1.00  0.00    -0.137 C  
HETATM    4  C   UNL     1      -7.722   8.757  66.684  1.00  0.00    -0.093 C  
HETATM    5  C   UNL     1      -8.732   9.275  70.466  1.00  0.00    -0.276 C  
HETATM    6  C   UNL     1      -8.904  11.622  66.913  1.00  0.00    -0.190 A  
HETATM    7  C   UNL     1      -6.544   8.509  66.072  1.00  0.00    -0.054 C  
HETATM    8  O   UNL     1      -5.338   8.936  66.605  1.00  0.00    -0.037 OA 
HETATM    9  C   UNL     1      -6.418   7.965  64.636  1.00  0.00    -0.048 C  
HETATM   10  C   UNL     1      -8.984  13.020  66.727  1.00  0.00    -0.175 A  
HETATM   11  C   UNL     1      -8.319  13.877  67.590  1.00  0.00    -0.183 A  
HETATM   12  C   UNL     1      -7.710   7.511  63.957  1.00  0.00    -0.125 C  
HETATM   13  C   UNL     1      -8.956   8.264  66.010  1.00  0.00    -0.181 C  
HETATM   14  H   UNL     1      -4.509   8.761  66.175  1.00  0.00     0.000 HD 
HETATM   15  O   UNL     1      -8.887   7.786  64.749  1.00  0.00     0.151 OA 
HETATM   16  C   UNL     1      -7.451  11.952  68.790  1.00  0.00    -0.100 A  
HETATM   17  O   UNL     1     -10.047   8.304  66.563  1.00  0.00    -0.273 OA 
HETATM   18  C   UNL     1      -7.579  13.345  68.644  1.00  0.00    -0.101 A  
ENDROOT
BRANCH  10  19
HETATM   19  N   UNL     1      -9.660  13.553  65.582  1.00  0.00    -0.499 N  
HETATM   20  H   UNL     1      -9.240  13.484  64.655  1.00  0.00     0.000 HD 
BRANCH  19  21
HETATM   21  S   UNL     1     -11.191  14.310  65.792  1.00  0.00    -0.325 S  
HETATM   22  O   UNL     1     -11.741  14.513  64.463  1.00  0.00    -0.411 OA 
HETATM   23  O   UNL     1     -11.925  13.545  66.782  1.00  0.00    -0.382 OA 
BRANCH  21  24
HETATM   24  C   UNL     1     -10.875  15.914  66.512  1.00  0.00    -0.198 A  
HETATM   25  C   UNL     1     -10.513  17.532  68.272  1.00  0.00    -0.383 A  
HETATM   26  N   UNL     1     -10.420  16.768  65.613  1.00  0.00    -0.527 NA 
HETATM   27  F   UNL     1     -10.722  20.403  68.558  1.00  0.00    -0.425 F  
HETATM   28  C   UNL     1      -9.667  19.837  67.896  1.00  0.00    -0.389 C  
HETATM   29  F   UNL     1      -8.659  19.763  68.816  1.00  0.00    -0.370 F  
HETATM   30  C   UNL     1     -10.005  17.961  66.084  1.00  0.00    -0.283 A  
HETATM   31  F   UNL     1      -9.285  20.828  67.057  1.00  0.00    -0.464 F  
HETATM   32  C   UNL     1     -10.036  18.463  67.382  1.00  0.00    -0.369 A  
HETATM   33  C   UNL     1     -10.920  16.244  67.863  1.00  0.00    -0.310 A  
ENDBRANCH  21  24
ENDBRANCH  19  21
ENDBRANCH  10  19
BRANCH  12  34
HETATM   34  C   UNL     1      -7.530   5.988  63.866  1.00  0.00    -0.080 C  
BRANCH  34  35
HETATM   35  C   UNL     1      -6.762   5.451  65.095  1.00  0.00    -0.044 C  
BRANCH  35  36
HETATM   36  C   UNL     1      -7.702   4.995  66.148  1.00  0.00    -0.091 A  
HETATM   37  C   UNL     1      -9.836   4.167  66.855  1.00  0.00    -0.197 A  
HETATM   38  C   UNL     1      -8.970   4.528  65.821  1.00  0.00    -0.131 A  
HETATM   39  C   UNL     1      -8.144   4.711  68.489  1.00  0.00    -0.083 A  
HETATM   40  C   UNL     1      -9.425   4.252  68.176  1.00  0.00    -0.213 A  
HETATM   41  C   UNL     1      -7.279   5.080  67.470  1.00  0.00    -0.070 A  
ENDBRANCH  35  36
ENDBRANCH  34  35
ENDBRANCH  12  34
BRANCH  12  42
HETATM   42  C   UNL     1      -8.012   8.115  62.495  1.00  0.00    -0.158 C  
BRANCH  42  43
HETATM   43  C   UNL     1      -7.992   9.656  62.374  1.00  0.00    -0.128 C  
HETATM   44  C   UNL     1      -9.245  10.511  62.555  1.00  0.00    -0.321 C  
ENDBRANCH  42  43
ENDBRANCH  12  42
TORSDOF 8
ENDMDL
MODEL       70
REMARK 921   NORMALIZED FREE ENERGY PREDICTED BY IDOCK:   -6.08 KCAL/MOL
REMARK 922        TOTAL FREE ENERGY PREDICTED BY IDOCK:  -10.92 KCAL/MOL
REMARK 923 INTER-LIGAND FREE ENERGY PREDICTED BY IDOCK:   -8.04 KCAL/MOL
REMARK 924 INTRA-LIGAND FREE ENERGY PREDICTED BY IDOCK:   -2.88 KCAL/MOL
REMARK 927      BINDING AFFINITY PREDICTED BY RF-SCORE:    0.00 PKD
ROOT
HETATM    1  C   UNL     1     -11.919   8.877  71.378  1.00  0.00    -0.374 C  
HETATM    2  C   UNL     1     -12.154  10.395  71.154  1.00  0.00    -0.487 A  
HETATM    3  C   UNL     1     -12.970   7.960  70.721  1.00  0.00     0.250 C  
HETATM    4  C   UNL     1     -10.459   8.390  71.109  1.00  0.00    -0.263 C  
HETATM    5  C   UNL     1     -14.397   8.144  71.211  1.00  0.00    -0.381 C  
HETATM    6  C   UNL     1     -11.554  11.119  70.107  1.00  0.00    -0.410 A  
HETATM    7  C   UNL     1      -9.506   8.300  72.063  1.00  0.00    -0.236 C  
HETATM    8  O   UNL     1      -9.753   8.656  73.379  1.00  0.00     0.209 OA 
HETATM    9  C   UNL     1      -8.015   8.045  71.769  1.00  0.00    -0.133 C  
HETATM   10  C   UNL     1     -11.670  12.524  70.012  1.00  0.00    -0.221 A  
HETATM   11  C   UNL     1     -12.462  13.221  70.912  1.00  0.00    -0.424 A  
HETATM   12  C   UNL     1      -7.650   7.689  70.329  1.00  0.00    -0.089 C  
HETATM   13  C   UNL     1     -10.073   7.996  69.725  1.00  0.00    -0.196 C  
HETATM   14  H   UNL     1      -9.083   8.592  74.050  1.00  0.00     0.000 HD 
HETATM   15  O   UNL     1      -8.776   7.770  69.427  1.00  0.00    -0.134 OA 
HETATM   16  C   UNL     1     -12.978  11.131  72.035  1.00  0.00    -0.385 A  
HETATM   17  O   UNL     1     -10.906   7.895  68.834  1.00  0.00    -0.122 OA 
HETATM   18  C   UNL     1     -13.144  12.521  71.904  1.00  0.00    -0.473 A  
ENDROOT
BRANCH  10  19
HETATM   19  N   UNL     1     -10.884  13.244  69.055  1.00  0.00    -0.390 N  
HETATM   20  H   UNL     1     -10.173  13.908  69.364  1.00  0.00     0.000 HD 
BRANCH  19  21
HETATM   21  S   UNL     1     -11.156  12.975  67.377  1.00  0.00    -0.284 S  
HETATM   22  O   UNL     1     -12.531  12.526  67.246  1.00  0.00    -0.188 OA 
HETATM   23  O   UNL     1     -10.697  14.153  66.666  1.00  0.00    -0.285 OA 
BRANCH  21  24
HETATM   24  C   UNL     1     -10.085  11.632  66.893  1.00  0.00    -0.211 A  
HETATM   25  C   UNL     1      -8.242  10.076  67.078  1.00  0.00    -0.117 A  
HETATM   26  N   UNL     1     -10.625  10.900  65.935  1.00  0.00    -0.216 NA 
HETATM   27  F   UNL     1      -6.696   8.430  65.270  1.00  0.00    -0.054 F  
HETATM   28  C   UNL     1      -7.962   8.068  65.643  1.00  0.00    -0.114 C  
HETATM   29  F   UNL     1      -7.798   7.186  66.674  1.00  0.00    -0.099 F  
HETATM   30  C   UNL     1      -9.965   9.772  65.606  1.00  0.00    -0.282 A  
HETATM   31  F   UNL     1      -8.363   7.300  64.603  1.00  0.00    -0.127 F  
HETATM   32  C   UNL     1      -8.753   9.279  66.083  1.00  0.00    -0.169 A  
HETATM   33  C   UNL     1      -8.899  11.247  67.513  1.00  0.00    -0.140 A  
ENDBRANCH  21  24
ENDBRANCH  19  21
ENDBRANCH  10  19
BRANCH  12  34
HETATM   34  C   UNL     1      -7.221   6.218  70.440  1.00  0.00    -0.083 C  
BRANCH  34  35
HETATM   35  C   UNL     1      -8.354   5.360  71.046  1.00  0.00    -0.119 C  
BRANCH  35  36
HETATM   36  C   UNL     1      -8.738   4.262  70.126  1.00  0.00    -0.115 A  
HETATM   37  C   UNL     1      -9.013   1.937  69.616  1.00  0.00    -0.146 A  
HETATM   38  C   UNL     1      -8.698   2.935  70.541  1.00  0.00    -0.126 A  
HETATM   39  C   UNL     1      -9.427   3.607  67.923  1.00  0.00    -0.224 A  
HETATM   40  C   UNL     1      -9.380   2.270  68.322  1.00  0.00    -0.267 A  
HETATM   41  C   UNL     1      -9.109   4.606  68.831  1.00  0.00    -0.163 A  
ENDBRANCH  35  36
ENDBRANCH  34  35
ENDBRANCH  12  34
BRANCH  12  42
HETATM   42  C   UNL     1      -6.475   8.551  69.643  1.00  0.00    -0.039 C  
BRANCH  42  43
HETATM   43  C   UNL     1      -5.968   9.773  70.442  1.00  0.00    -0.069 C  
HETATM   44  C   UNL     1      -6.258  11.212  70.016  1.00  0.00    -0.143 C  
ENDBRANCH  42  43
ENDBRANCH  12  42
TORSDOF 8
ENDMDL
MODEL       71
REMARK 921   NORMALIZED FREE ENERGY PREDICTED BY IDOCK:   -6.03 KCAL/MOL
REMARK 922        TOTAL FREE ENERGY PREDICTED BY IDOCK:  -10.84 KCAL/MOL
REMARK 923 INTER-LIGAND FREE ENERGY PREDICTED BY IDOCK:   -8.99 KCAL/MOL
REMARK 924 INTRA-LIGAND FREE ENERGY PREDICTED BY IDOCK:   -1.85 KCAL/MOL
REMARK 927      BINDING AFFINITY PREDICTED BY RF-SCORE:    0.00 PKD
ROOT
HETATM    1  C   UNL     1      -8.194   8.566  68.988  1.00  0.00    -0.116 C  
HETATM    2  C   UNL     1      -8.117  10.054  68.556  1.00  0.00    -0.103 A  
HETATM    3  C   UNL     1      -9.341   8.240  69.966  1.00  0.00    -0.162 C  
HETATM    4  C   UNL     1      -8.105   7.534  67.817  1.00  0.00    -0.119 C  
HETATM    5  C   UNL     1      -9.289   8.964  71.302  1.00  0.00    -0.336 C  
HETATM    6  C   UNL     1      -8.724  10.548  67.386  1.00  0.00    -0.125 A  
HETATM    7  C   UNL     1      -6.953   6.966  67.399  1.00  0.00    -0.079 C  
HETATM    8  O   UNL     1      -5.733   7.274  67.980  1.00  0.00    -0.024 OA 
HETATM    9  C   UNL     1      -6.822   6.133  66.110  1.00  0.00    -0.061 C  
HETATM   10  C   UNL     1      -8.518  11.873  66.942  1.00  0.00    -0.174 A  
HETATM   11  C   UNL     1      -7.769  12.756  67.706  1.00  0.00    -0.152 A  
HETATM   12  C   UNL     1      -8.120   5.786  65.381  1.00  0.00    -0.131 C  
HETATM   13  C   UNL     1      -9.354   7.139  67.107  1.00  0.00    -0.140 C  
HETATM   14  H   UNL     1      -4.922   6.875  67.685  1.00  0.00     0.000 HD 
HETATM   15  O   UNL     1      -9.280   6.415  65.970  1.00  0.00    -0.143 OA 
HETATM   16  C   UNL     1      -7.387  10.987  69.326  1.00  0.00    -0.113 A  
HETATM   17  O   UNL     1     -10.457   7.479  67.515  1.00  0.00    -0.231 OA 
HETATM   18  C   UNL     1      -7.232  12.324  68.916  1.00  0.00    -0.069 A  
ENDROOT
BRANCH  10  19
HETATM   19  N   UNL     1      -8.986  12.277  65.649  1.00  0.00    -0.395 N  
HETATM   20  H   UNL     1      -8.377  12.207  64.834  1.00  0.00     0.000 HD 
BRANCH  19  21
HETATM   21  S   UNL     1     -10.590  12.880  65.493  1.00  0.00    -0.284 S  
HETATM   22  O   UNL     1     -10.525  13.997  64.566  1.00  0.00    -0.424 OA 
HETATM   23  O   UNL     1     -11.458  11.750  65.221  1.00  0.00    -0.284 OA 
BRANCH  21  24
HETATM   24  C   UNL     1     -11.057  13.515  67.094  1.00  0.00    -0.293 A  
HETATM   25  C   UNL     1     -11.601  15.188  68.754  1.00  0.00    -0.369 A  
HETATM   26  N   UNL     1     -11.555  12.566  67.867  1.00  0.00    -0.328 NA 
HETATM   27  F   UNL     1     -11.636  15.344  71.643  1.00  0.00    -0.337 F  
HETATM   28  C   UNL     1     -12.622  14.683  70.962  1.00  0.00    -0.329 C  
HETATM   29  F   UNL     1     -13.646  15.581  70.846  1.00  0.00    -0.511 F  
HETATM   30  C   UNL     1     -12.080  12.971  69.041  1.00  0.00    -0.177 A  
HETATM   31  F   UNL     1     -13.060  13.789  71.878  1.00  0.00    -0.388 F  
HETATM   32  C   UNL     1     -12.127  14.244  69.602  1.00  0.00    -0.396 A  
HETATM   33  C   UNL     1     -11.077  14.850  67.488  1.00  0.00    -0.319 A  
ENDBRANCH  21  24
ENDBRANCH  19  21
ENDBRANCH  10  19
BRANCH  12  34
HETATM   34  C   UNL     1      -8.232   4.268  65.589  1.00  0.00    -0.109 C  
BRANCH  34  35
HETATM   35  C   UNL     1      -9.595   3.898  66.214  1.00  0.00    -0.198 C  
BRANCH  35  36
HETATM   36  C   UNL     1      -9.421   3.367  67.588  1.00  0.00    -0.231 A  
HETATM   37  C   UNL     1      -9.085   1.557  69.122  1.00  0.00    -0.156 A  
HETATM   38  C   UNL     1      -9.182   2.014  67.806  1.00  0.00    -0.212 A  
HETATM   39  C   UNL     1      -9.429   3.800  69.948  1.00  0.00    -0.267 A  
HETATM   40  C   UNL     1      -9.201   2.442  70.182  1.00  0.00    -0.193 A  
HETATM   41  C   UNL     1      -9.535   4.263  68.645  1.00  0.00    -0.221 A  
ENDBRANCH  35  36
ENDBRANCH  34  35
ENDBRANCH  12  34
BRANCH  12  42
HETATM   42  C   UNL     1      -8.185   6.130  63.809  1.00  0.00    -0.002 C  
BRANCH  42  43
HETATM   43  C   UNL     1      -7.554   7.473  63.376  1.00  0.00    -0.118 C  
HETATM   44  C   UNL     1      -8.383   8.739  63.161  1.00  0.00    -0.167 C  
ENDBRANCH  42  43
ENDBRANCH  12  42
TORSDOF 8
ENDMDL
MODEL       72
REMARK 921   NORMALIZED FREE ENERGY PREDICTED BY IDOCK:   -6.01 KCAL/MOL
REMARK 922        TOTAL FREE ENERGY PREDICTED BY IDOCK:  -10.81 KCAL/MOL
REMARK 923 INTER-LIGAND FREE ENERGY PREDICTED BY IDOCK:   -8.65 KCAL/MOL
REMARK 924 INTRA-LIGAND FREE ENERGY PREDICTED BY IDOCK:   -2.15 KCAL/MOL
REMARK 927      BINDING AFFINITY PREDICTED BY RF-SCORE:    0.00 PKD
ROOT
HETATM    1  C   UNL     1      -8.330   8.566  68.822  1.00  0.00    -0.122 C  
HETATM    2  C   UNL     1      -8.364  10.038  68.333  1.00  0.00    -0.111 A  
HETATM    3  C   UNL     1      -9.409   8.211  69.866  1.00  0.00    -0.159 C  
HETATM    4  C   UNL     1      -8.232   7.496  67.687  1.00  0.00    -0.118 C  
HETATM    5  C   UNL     1      -9.339   8.989  71.170  1.00  0.00    -0.336 C  
HETATM    6  C   UNL     1      -9.054  10.448  67.177  1.00  0.00    -0.152 A  
HETATM    7  C   UNL     1      -7.068   6.981  67.235  1.00  0.00    -0.084 C  
HETATM    8  O   UNL     1      -5.844   7.384  67.744  1.00  0.00    -0.028 OA 
HETATM    9  C   UNL     1      -6.946   6.107  65.972  1.00  0.00    -0.062 C  
HETATM   10  C   UNL     1      -8.950  11.765  66.675  1.00  0.00    -0.195 A  
HETATM   11  C   UNL     1      -8.222  12.720  67.369  1.00  0.00    -0.186 A  
HETATM   12  C   UNL     1      -8.253   5.655  65.321  1.00  0.00    -0.134 C  
HETATM   13  C   UNL     1      -9.486   7.000  67.054  1.00  0.00    -0.149 C  
HETATM   14  H   UNL     1      -5.025   7.022  67.426  1.00  0.00     0.000 HD 
HETATM   15  O   UNL     1      -9.421   6.237  65.942  1.00  0.00    -0.060 OA 
HETATM   16  C   UNL     1      -7.658  11.042  69.032  1.00  0.00    -0.134 A  
HETATM   17  O   UNL     1     -10.587   7.289  67.502  1.00  0.00    -0.238 OA 
HETATM   18  C   UNL     1      -7.604  12.368  68.566  1.00  0.00    -0.122 A  
ENDROOT
BRANCH  10  19
HETATM   19  N   UNL     1      -9.501  12.088  65.393  1.00  0.00    -0.419 N  
HETATM   20  H   UNL     1      -8.962  11.926  64.542  1.00  0.00     0.000 HD 
BRANCH  19  21
HETATM   21  S   UNL     1     -11.085  12.755  65.309  1.00  0.00    -0.296 S  
HETATM   22  O   UNL     1     -11.484  12.705  63.912  1.00  0.00    -0.375 OA 
HETATM   23  O   UNL     1     -11.889  12.103  66.325  1.00  0.00    -0.553 OA 
BRANCH  21  24
HETATM   24  C   UNL     1     -10.945  14.470  65.784  1.00  0.00    -0.319 A  
HETATM   25  C   UNL     1     -10.519  16.347  67.249  1.00  0.00    -0.303 A  
HETATM   26  N   UNL     1     -10.902  15.265  64.730  1.00  0.00    -0.402 NA 
HETATM   27  F   UNL     1     -11.241  19.146  67.337  1.00  0.00    -0.535 F  
HETATM   28  C   UNL     1     -10.279  18.695  66.475  1.00  0.00    -0.412 C  
HETATM   29  F   UNL     1      -9.089  18.925  67.108  1.00  0.00    -0.274 F  
HETATM   30  C   UNL     1     -10.641  16.565  64.977  1.00  0.00    -0.144 A  
HETATM   31  F   UNL     1     -10.318  19.617  65.486  1.00  0.00    -0.461 F  
HETATM   32  C   UNL     1     -10.468  17.222  66.192  1.00  0.00    -0.279 A  
HETATM   33  C   UNL     1     -10.738  14.964  67.069  1.00  0.00    -0.307 A  
ENDBRANCH  21  24
ENDBRANCH  19  21
ENDBRANCH  10  19
BRANCH  12  34
HETATM   34  C   UNL     1      -8.261   4.142  65.589  1.00  0.00    -0.109 C  
BRANCH  34  35
HETATM   35  C   UNL     1      -9.345   3.775  66.627  1.00  0.00    -0.207 C  
BRANCH  35  36
HETATM   36  C   UNL     1      -8.780   3.754  67.998  1.00  0.00    -0.125 A  
HETATM   37  C   UNL     1      -8.917   4.231  70.342  1.00  0.00    -0.147 A  
HETATM   38  C   UNL     1      -9.518   4.219  69.082  1.00  0.00    -0.245 A  
HETATM   39  C   UNL     1      -6.897   3.294  69.411  1.00  0.00    -0.041 A  
HETATM   40  C   UNL     1      -7.621   3.768  70.506  1.00  0.00    -0.041 A  
HETATM   41  C   UNL     1      -7.481   3.284  68.154  1.00  0.00    -0.053 A  
ENDBRANCH  35  36
ENDBRANCH  34  35
ENDBRANCH  12  34
BRANCH  12  42
HETATM   42  C   UNL     1      -8.411   5.932  63.742  1.00  0.00     0.011 C  
BRANCH  42  43
HETATM   43  C   UNL     1      -7.852   7.277  63.224  1.00  0.00    -0.113 C  
HETATM   44  C   UNL     1      -8.289   8.624  63.798  1.00  0.00    -0.116 C  
ENDBRANCH  42  43
ENDBRANCH  12  42
TORSDOF 8
ENDMDL
MODEL       73
REMARK 921   NORMALIZED FREE ENERGY PREDICTED BY IDOCK:   -6.00 KCAL/MOL
REMARK 922        TOTAL FREE ENERGY PREDICTED BY IDOCK:  -10.80 KCAL/MOL
REMARK 923 INTER-LIGAND FREE ENERGY PREDICTED BY IDOCK:   -9.68 KCAL/MOL
REMARK 924 INTRA-LIGAND FREE ENERGY PREDICTED BY IDOCK:   -1.12 KCAL/MOL
REMARK 927      BINDING AFFINITY PREDICTED BY RF-SCORE:    0.00 PKD
ROOT
HETATM    1  C   UNL     1      -8.943  11.279  69.113  1.00  0.00     0.119 C  
HETATM    2  C   UNL     1      -9.374   9.808  69.356  1.00  0.00    -0.212 A  
HETATM    3  C   UNL     1      -7.433  11.473  68.864  1.00  0.00    -0.106 C  
HETATM    4  C   UNL     1      -9.817  12.059  68.079  1.00  0.00    -0.199 C  
HETATM    5  C   UNL     1      -6.521  11.052  70.005  1.00  0.00    -0.144 C  
HETATM    6  C   UNL     1      -9.837   8.963  68.331  1.00  0.00    -0.191 A  
HETATM    7  C   UNL     1     -10.883  12.818  68.414  1.00  0.00    -0.249 C  
HETATM    8  O   UNL     1     -11.301  12.953  69.729  1.00  0.00    -0.471 OA 
HETATM    9  C   UNL     1     -11.881  13.399  67.394  1.00  0.00    -0.418 C  
HETATM   10  C   UNL     1     -10.358   7.678  68.603  1.00  0.00    -0.200 A  
HETATM   11  C   UNL     1     -10.345   7.180  69.896  1.00  0.00    -0.224 A  
HETATM   12  C   UNL     1     -11.517  13.254  65.917  1.00  0.00    -0.332 C  
HETATM   13  C   UNL     1      -9.471  11.975  66.633  1.00  0.00    -0.217 C  
HETATM   14  H   UNL     1     -12.051  13.487  69.965  1.00  0.00     0.000 HD 
HETATM   15  O   UNL     1     -10.323  12.467  65.708  1.00  0.00    -0.255 OA 
HETATM   16  C   UNL     1      -9.345   9.259  70.658  1.00  0.00    -0.329 A  
HETATM   17  O   UNL     1      -8.436  11.444  66.252  1.00  0.00    -0.177 OA 
HETATM   18  C   UNL     1      -9.807   7.956  70.920  1.00  0.00    -0.192 A  
ENDROOT
BRANCH  10  19
HETATM   19  N   UNL     1     -11.002   6.931  67.563  1.00  0.00    -0.506 N  
HETATM   20  H   UNL     1     -12.002   7.039  67.392  1.00  0.00     0.000 HD 
BRANCH  19  21
HETATM   21  S   UNL     1     -10.065   5.850  66.607  1.00  0.00    -0.175 S  
HETATM   22  O   UNL     1     -10.999   4.924  65.990  1.00  0.00    -0.245 OA 
HETATM   23  O   UNL     1      -9.175   6.650  65.788  1.00  0.00    -0.049 OA 
BRANCH  21  24
HETATM   24  C   UNL     1      -9.035   4.928  67.737  1.00  0.00    -0.109 A  
HETATM   25  C   UNL     1      -7.091   4.452  69.095  1.00  0.00    -0.051 A  
HETATM   26  N   UNL     1      -9.722   3.992  68.367  1.00  0.00    -0.112 NA 
HETATM   27  F   UNL     1      -5.875   2.103  70.267  1.00  0.00    -0.015 F  
HETATM   28  C   UNL     1      -6.996   2.664  70.817  1.00  0.00    -0.033 C  
HETATM   29  F   UNL     1      -6.542   3.469  71.824  1.00  0.00    -0.014 F  
HETATM   30  C   UNL     1      -9.073   3.342  69.354  1.00  0.00    -0.134 A  
HETATM   31  F   UNL     1      -7.563   1.614  71.455  1.00  0.00    -0.034 F  
HETATM   32  C   UNL     1      -7.753   3.463  69.780  1.00  0.00    -0.047 A  
HETATM   33  C   UNL     1      -7.716   5.210  68.083  1.00  0.00    -0.084 A  
ENDBRANCH  21  24
ENDBRANCH  19  21
ENDBRANCH  10  19
BRANCH  12  34
HETATM   34  C   UNL     1     -11.226  14.702  65.494  1.00  0.00    -0.343 C  
BRANCH  34  35
HETATM   35  C   UNL     1      -9.897  15.197  66.108  1.00  0.00    -0.325 C  
BRANCH  35  36
HETATM   36  C   UNL     1     -10.036  16.579  66.629  1.00  0.00    -0.299 A  
HETATM   37  C   UNL     1     -10.091  18.157  68.431  1.00  0.00    -0.401 A  
HETATM   38  C   UNL     1      -9.892  16.848  67.986  1.00  0.00    -0.264 A  
HETATM   39  C   UNL     1     -10.532  18.881  66.170  1.00  0.00    -0.521 A  
HETATM   40  C   UNL     1     -10.402  19.164  67.531  1.00  0.00    -0.524 A  
HETATM   41  C   UNL     1     -10.344  17.583  65.718  1.00  0.00    -0.217 A  
ENDBRANCH  35  36
ENDBRANCH  34  35
ENDBRANCH  12  34
BRANCH  12  42
HETATM   42  C   UNL     1     -12.638  12.617  64.952  1.00  0.00    -0.525 C  
BRANCH  42  43
HETATM   43  C   UNL     1     -12.209  12.344  63.492  1.00  0.00    -0.661 C  
HETATM   44  C   UNL     1     -10.926  11.592  63.139  1.00  0.00    -0.195 C  
ENDBRANCH  42  43
ENDBRANCH  12  42
TORSDOF 8
ENDMDL
MODEL       74
REMARK 921   NORMALIZED FREE ENERGY PREDICTED BY IDOCK:   -5.97 KCAL/MOL
REMARK 922        TOTAL FREE ENERGY PREDICTED BY IDOCK:  -10.75 KCAL/MOL
REMARK 923 INTER-LIGAND FREE ENERGY PREDICTED BY IDOCK:   -8.10 KCAL/MOL
REMARK 924 INTRA-LIGAND FREE ENERGY PREDICTED BY IDOCK:   -2.65 KCAL/MOL
REMARK 927      BINDING AFFINITY PREDICTED BY RF-SCORE:    0.00 PKD
ROOT
HETATM    1  C   UNL     1     -10.249   9.261  66.705  1.00  0.00    -0.325 C  
HETATM    2  C   UNL     1      -8.815   9.560  66.193  1.00  0.00    -0.177 A  
HETATM    3  C   UNL     1     -10.435   7.854  67.310  1.00  0.00    -0.390 C  
HETATM    4  C   UNL     1     -10.875  10.377  67.602  1.00  0.00    -0.361 C  
HETATM    5  C   UNL     1     -10.179   6.694  66.361  1.00  0.00    -0.027 C  
HETATM    6  C   UNL     1      -7.837  10.201  66.977  1.00  0.00    -0.102 A  
HETATM    7  C   UNL     1     -11.654  11.375  67.130  1.00  0.00    -0.098 C  
HETATM    8  O   UNL     1     -11.949  11.497  65.782  1.00  0.00    -0.167 OA 
HETATM    9  C   UNL     1     -12.082  12.599  67.961  1.00  0.00    -0.152 C  
HETATM   10  C   UNL     1      -6.590  10.590  66.440  1.00  0.00    -0.106 A  
HETATM   11  C   UNL     1      -6.263  10.268  65.131  1.00  0.00    -0.127 A  
HETATM   12  C   UNL     1     -11.753  12.565  69.454  1.00  0.00    -0.322 C  
HETATM   13  C   UNL     1     -10.611  10.356  69.068  1.00  0.00    -0.221 C  
HETATM   14  H   UNL     1     -12.497  12.199  65.449  1.00  0.00     0.000 HD 
HETATM   15  O   UNL     1     -10.966  11.413  69.830  1.00  0.00    -0.181 OA 
HETATM   16  C   UNL     1      -8.439   9.219  64.874  1.00  0.00    -0.182 A  
HETATM   17  O   UNL     1     -10.053   9.409  69.604  1.00  0.00    -0.185 OA 
HETATM   18  C   UNL     1      -7.173   9.552  64.358  1.00  0.00    -0.111 A  
ENDROOT
BRANCH  10  19
HETATM   19  N   UNL     1      -5.705  11.414  67.208  1.00  0.00    -0.067 N  
HETATM   20  H   UNL     1      -4.706  11.432  67.003  1.00  0.00     0.000 HD 
BRANCH  19  21
HETATM   21  S   UNL     1      -6.351  12.373  68.483  1.00  0.00    -0.070 S  
HETATM   22  O   UNL     1      -7.199  11.497  69.273  1.00  0.00    -0.110 OA 
HETATM   23  O   UNL     1      -5.246  13.079  69.101  1.00  0.00    -0.069 OA 
BRANCH  21  24
HETATM   24  C   UNL     1      -7.389  13.608  67.719  1.00  0.00    -0.166 A  
HETATM   25  C   UNL     1      -9.412  14.548  66.785  1.00  0.00    -0.284 A  
HETATM   26  N   UNL     1      -6.846  14.810  67.788  1.00  0.00    -0.163 NA 
HETATM   27  F   UNL     1     -10.084  16.704  64.977  1.00  0.00    -0.117 F  
HETATM   28  C   UNL     1      -9.724  16.959  66.272  1.00  0.00    -0.280 C  
HETATM   29  F   UNL     1     -10.900  17.092  66.956  1.00  0.00    -0.292 F  
HETATM   30  C   UNL     1      -7.619  15.836  67.378  1.00  0.00    -0.191 A  
HETATM   31  F   UNL     1      -9.234  18.218  66.196  1.00  0.00    -0.297 F  
HETATM   32  C   UNL     1      -8.897  15.820  66.828  1.00  0.00    -0.299 A  
HETATM   33  C   UNL     1      -8.684  13.429  67.242  1.00  0.00    -0.219 A  
ENDBRANCH  21  24
ENDBRANCH  19  21
ENDBRANCH  10  19
BRANCH  12  34
HETATM   34  C   UNL     1     -13.139  12.441  70.105  1.00  0.00     0.844 C  
BRANCH  34  35
HETATM   35  C   UNL     1     -13.017  12.341  71.642  1.00  0.00    -0.416 C  
BRANCH  35  36
HETATM   36  C   UNL     1     -13.216  13.666  72.277  1.00  0.00    -0.565 A  
HETATM   37  C   UNL     1     -14.339  15.776  72.444  1.00  0.00    -0.327 A  
HETATM   38  C   UNL     1     -14.232  14.516  71.853  1.00  0.00    -0.622 A  
HETATM   39  C   UNL     1     -12.455  15.287  73.873  1.00  0.00    -0.752 A  
HETATM   40  C   UNL     1     -13.462  16.156  73.449  1.00  0.00    -0.407 A  
HETATM   41  C   UNL     1     -12.335  14.037  73.286  1.00  0.00     0.343 A  
ENDBRANCH  35  36
ENDBRANCH  34  35
ENDBRANCH  12  34
BRANCH  12  42
HETATM   42  C   UNL     1     -10.978  13.843  70.056  1.00  0.00     0.202 C  
BRANCH  42  43
HETATM   43  C   UNL     1     -11.478  15.229  69.589  1.00  0.00    -0.321 C  
HETATM   44  C   UNL     1     -10.936  16.535  70.167  1.00  0.00    -0.215 C  
ENDBRANCH  42  43
ENDBRANCH  12  42
TORSDOF 8
ENDMDL
MODEL       75
REMARK 921   NORMALIZED FREE ENERGY PREDICTED BY IDOCK:   -5.96 KCAL/MOL
REMARK 922        TOTAL FREE ENERGY PREDICTED BY IDOCK:  -10.74 KCAL/MOL
REMARK 923 INTER-LIGAND FREE ENERGY PREDICTED BY IDOCK:   -8.54 KCAL/MOL
REMARK 924 INTRA-LIGAND FREE ENERGY PREDICTED BY IDOCK:   -2.21 KCAL/MOL
REMARK 927      BINDING AFFINITY PREDICTED BY RF-SCORE:    0.00 PKD
ROOT
HETATM    1  C   UNL     1      -9.126   7.914  67.198  1.00  0.00    -0.158 C  
HETATM    2  C   UNL     1      -8.412   6.882  68.112  1.00  0.00    -0.124 A  
HETATM    3  C   UNL     1     -10.665   7.815  67.199  1.00  0.00    -0.337 C  
HETATM    4  C   UNL     1      -8.628   9.387  67.352  1.00  0.00    -0.125 C  
HETATM    5  C   UNL     1     -11.237   6.495  66.709  1.00  0.00    -0.083 C  
HETATM    6  C   UNL     1      -8.034   7.163  69.439  1.00  0.00    -0.125 A  
HETATM    7  C   UNL     1      -7.659   9.939  66.589  1.00  0.00    -0.103 C  
HETATM    8  O   UNL     1      -7.008   9.219  65.600  1.00  0.00    -0.079 OA 
HETATM    9  C   UNL     1      -7.006  11.303  66.881  1.00  0.00    -0.137 C  
HETATM   10  C   UNL     1      -7.259   6.259  70.200  1.00  0.00    -0.080 A  
HETATM   11  C   UNL     1      -6.921   5.020  69.678  1.00  0.00    -0.054 A  
HETATM   12  C   UNL     1      -7.637  12.143  67.990  1.00  0.00    -0.123 C  
HETATM   13  C   UNL     1      -9.245  10.251  68.396  1.00  0.00    -0.136 C  
HETATM   14  H   UNL     1      -6.327   9.607  65.063  1.00  0.00     0.000 HD 
HETATM   15  O   UNL     1      -8.698  11.451  68.685  1.00  0.00    -0.158 OA 
HETATM   16  C   UNL     1      -8.078   5.600  67.623  1.00  0.00    -0.101 A  
HETATM   17  O   UNL     1     -10.231   9.890  69.024  1.00  0.00    -0.181 OA 
HETATM   18  C   UNL     1      -7.359   4.675  68.402  1.00  0.00    -0.065 A  
ENDROOT
BRANCH  10  19
HETATM   19  N   UNL     1      -6.727   6.663  71.467  1.00  0.00    -0.060 N  
HETATM   20  H   UNL     1      -5.849   7.181  71.518  1.00  0.00     0.000 HD 
BRANCH  19  21
HETATM   21  S   UNL     1      -7.589   6.264  72.902  1.00  0.00    -0.096 S  
HETATM   22  O   UNL     1      -7.704   4.816  72.928  1.00  0.00    -0.089 OA 
HETATM   23  O   UNL     1      -6.960   6.970  74.001  1.00  0.00    -0.084 OA 
BRANCH  21  24
HETATM   24  C   UNL     1      -9.229   6.947  72.721  1.00  0.00    -0.134 A  
HETATM   25  C   UNL     1     -10.900   8.652  72.335  1.00  0.00    -0.312 A  
HETATM   26  N   UNL     1     -10.133   6.001  72.548  1.00  0.00    -0.177 NA 
HETATM   27  F   UNL     1     -13.709   9.009  72.927  1.00  0.00    -0.477 F  
HETATM   28  C   UNL     1     -13.303   8.181  71.915  1.00  0.00    -0.324 C  
HETATM   29  F   UNL     1     -13.391   8.930  70.776  1.00  0.00    -0.104 F  
HETATM   30  C   UNL     1     -11.380   6.418  72.248  1.00  0.00    -0.290 A  
HETATM   31  F   UNL     1     -14.331   7.307  71.824  1.00  0.00    -0.467 F  
HETATM   32  C   UNL     1     -11.884   7.712  72.150  1.00  0.00    -0.352 A  
HETATM   33  C   UNL     1      -9.562   8.293  72.603  1.00  0.00    -0.352 A  
ENDBRANCH  21  24
ENDBRANCH  19  21
ENDBRANCH  10  19
BRANCH  12  34
HETATM   34  C   UNL     1      -8.248  13.322  67.218  1.00  0.00    -0.164 C  
BRANCH  34  35
HETATM   35  C   UNL     1      -9.687  13.610  67.704  1.00  0.00    -0.228 C  
BRANCH  35  36
HETATM   36  C   UNL     1     -10.622  13.720  66.558  1.00  0.00    -0.279 A  
HETATM   37  C   UNL     1     -11.582  14.935  64.730  1.00  0.00    -0.410 A  
HETATM   38  C   UNL     1     -10.642  14.859  65.760  1.00  0.00    -0.342 A  
HETATM   39  C   UNL     1     -12.416  12.742  65.301  1.00  0.00    -0.528 A  
HETATM   40  C   UNL     1     -12.457  13.884  64.499  1.00  0.00    -0.336 A  
HETATM   41  C   UNL     1     -11.492  12.660  66.332  1.00  0.00    -0.409 A  
ENDBRANCH  35  36
ENDBRANCH  34  35
ENDBRANCH  12  34
BRANCH  12  42
HETATM   42  C   UNL     1      -6.647  12.694  69.136  1.00  0.00    -0.099 C  
BRANCH  42  43
HETATM   43  C   UNL     1      -6.139  14.144  68.961  1.00  0.00    -0.093 C  
HETATM   44  C   UNL     1      -6.598  15.290  69.862  1.00  0.00    -0.159 C  
ENDBRANCH  42  43
ENDBRANCH  12  42
TORSDOF 8
ENDMDL
MODEL       76
REMARK 921   NORMALIZED FREE ENERGY PREDICTED BY IDOCK:   -5.96 KCAL/MOL
REMARK 922        TOTAL FREE ENERGY PREDICTED BY IDOCK:  -10.74 KCAL/MOL
REMARK 923 INTER-LIGAND FREE ENERGY PREDICTED BY IDOCK:   -8.24 KCAL/MOL
REMARK 924 INTRA-LIGAND FREE ENERGY PREDICTED BY IDOCK:   -2.49 KCAL/MOL
REMARK 927      BINDING AFFINITY PREDICTED BY RF-SCORE:    0.00 PKD
ROOT
HETATM    1  C   UNL     1     -11.349  12.187  65.544  1.00  0.00    -0.393 C  
HETATM    2  C   UNL     1     -10.971  13.690  65.464  1.00  0.00    -0.297 A  
HETATM    3  C   UNL     1     -11.326  11.446  64.191  1.00  0.00    -0.263 C  
HETATM    4  C   UNL     1     -10.622  11.383  66.669  1.00  0.00    -0.302 C  
HETATM    5  C   UNL     1     -12.293  11.970  63.141  1.00  0.00    -0.394 C  
HETATM    6  C   UNL     1      -9.663  14.166  65.675  1.00  0.00    -0.210 A  
HETATM    7  C   UNL     1     -11.128  11.193  67.908  1.00  0.00    -0.273 C  
HETATM    8  O   UNL     1     -12.352  11.722  68.286  1.00  0.00    -0.379 OA 
HETATM    9  C   UNL     1     -10.327  10.606  69.085  1.00  0.00    -0.242 C  
HETATM   10  C   UNL     1      -9.375  15.547  65.740  1.00  0.00    -0.257 A  
HETATM   11  C   UNL     1     -10.375  16.480  65.508  1.00  0.00    -0.307 A  
HETATM   12  C   UNL     1      -8.944  10.040  68.761  1.00  0.00    -0.145 C  
HETATM   13  C   UNL     1      -9.290  10.781  66.381  1.00  0.00    -0.174 C  
HETATM   14  H   UNL     1     -12.708  11.588  69.157  1.00  0.00     0.000 HD 
HETATM   15  O   UNL     1      -8.554  10.262  67.387  1.00  0.00    -0.125 OA 
HETATM   16  C   UNL     1     -11.959  14.665  65.201  1.00  0.00    -0.334 A  
HETATM   17  O   UNL     1      -8.826  10.767  65.248  1.00  0.00    -0.188 OA 
HETATM   18  C   UNL     1     -11.661  16.039  65.204  1.00  0.00     0.192 A  
ENDROOT
BRANCH  10  19
HETATM   19  N   UNL     1      -8.077  15.990  66.154  1.00  0.00    -0.206 N  
HETATM   20  H   UNL     1      -7.261  15.823  65.564  1.00  0.00     0.000 HD 
BRANCH  19  21
HETATM   21  S   UNL     1      -7.913  16.805  67.661  1.00  0.00    -0.179 S  
HETATM   22  O   UNL     1      -6.621  16.420  68.204  1.00  0.00    -0.122 OA 
HETATM   23  O   UNL     1      -8.228  18.203  67.438  1.00  0.00    -0.231 OA 
BRANCH  21  24
HETATM   24  C   UNL     1      -9.182  16.155  68.736  1.00  0.00    -0.224 A  
HETATM   25  C   UNL     1     -11.263  16.140  69.967  1.00  0.00    -0.359 A  
HETATM   26  N   UNL     1      -9.058  14.851  68.901  1.00  0.00    -0.194 NA 
HETATM   27  F   UNL     1     -12.346  14.714  72.239  1.00  0.00    -0.364 F  
HETATM   28  C   UNL     1     -12.251  14.114  71.013  1.00  0.00    -0.358 C  
HETATM   29  F   UNL     1     -13.485  14.256  70.443  1.00  0.00    -0.251 F  
HETATM   30  C   UNL     1     -10.056  14.239  69.569  1.00  0.00     0.238 A  
HETATM   31  F   UNL     1     -12.177  12.802  71.335  1.00  0.00    -0.349 F  
HETATM   32  C   UNL     1     -11.185  14.784  70.175  1.00  0.00    -0.256 A  
HETATM   33  C   UNL     1     -10.284  16.844  69.235  1.00  0.00    -0.262 A  
ENDBRANCH  21  24
ENDBRANCH  19  21
ENDBRANCH  10  19
BRANCH  12  34
HETATM   34  C   UNL     1      -9.136   8.530  68.973  1.00  0.00    -0.146 C  
BRANCH  34  35
HETATM   35  C   UNL     1      -8.641   8.106  70.374  1.00  0.00    -0.131 C  
BRANCH  35  36
HETATM   36  C   UNL     1      -7.983   6.778  70.323  1.00  0.00    -0.115 A  
HETATM   37  C   UNL     1      -6.263   5.250  70.993  1.00  0.00    -0.023 A  
HETATM   38  C   UNL     1      -6.880   6.496  71.123  1.00  0.00    -0.066 A  
HETATM   39  C   UNL     1      -7.872   4.604  69.313  1.00  0.00    -0.063 A  
HETATM   40  C   UNL     1      -6.758   4.311  70.101  1.00  0.00    -0.033 A  
HETATM   41  C   UNL     1      -8.488   5.841  69.429  1.00  0.00    -0.112 A  
ENDBRANCH  35  36
ENDBRANCH  34  35
ENDBRANCH  12  34
BRANCH  12  42
HETATM   42  C   UNL     1      -7.715  10.567  69.658  1.00  0.00    -0.119 C  
BRANCH  42  43
HETATM   43  C   UNL     1      -6.773  11.595  68.991  1.00  0.00    -0.100 C  
HETATM   44  C   UNL     1      -6.028  12.664  69.789  1.00  0.00    -0.129 C  
ENDBRANCH  42  43
ENDBRANCH  12  42
TORSDOF 8
ENDMDL
MODEL       77
REMARK 921   NORMALIZED FREE ENERGY PREDICTED BY IDOCK:   -5.95 KCAL/MOL
REMARK 922        TOTAL FREE ENERGY PREDICTED BY IDOCK:  -10.72 KCAL/MOL
REMARK 923 INTER-LIGAND FREE ENERGY PREDICTED BY IDOCK:   -9.15 KCAL/MOL
REMARK 924 INTRA-LIGAND FREE ENERGY PREDICTED BY IDOCK:   -1.57 KCAL/MOL
REMARK 927      BINDING AFFINITY PREDICTED BY RF-SCORE:    0.00 PKD
ROOT
HETATM    1  C   UNL     1     -11.086  11.611  65.844  1.00  0.00    -0.320 C  
HETATM    2  C   UNL     1     -10.833  13.136  65.977  1.00  0.00    -0.287 A  
HETATM    3  C   UNL     1     -10.816  11.035  64.439  1.00  0.00    -0.263 C  
HETATM    4  C   UNL     1     -10.452  10.737  66.973  1.00  0.00    -0.297 C  
HETATM    5  C   UNL     1     -11.673  11.606  63.321  1.00  0.00    -0.233 C  
HETATM    6  C   UNL     1      -9.612  13.677  66.423  1.00  0.00    -0.280 A  
HETATM    7  C   UNL     1     -11.103  10.370  68.099  1.00  0.00    -0.285 C  
HETATM    8  O   UNL     1     -12.408  10.764  68.350  1.00  0.00    -0.813 OA 
HETATM    9  C   UNL     1     -10.421   9.710  69.312  1.00  0.00    -0.232 C  
HETATM   10  C   UNL     1      -9.456  15.059  66.672  1.00  0.00    -0.266 A  
HETATM   11  C   UNL     1     -10.492  15.938  66.396  1.00  0.00    -0.311 A  
HETATM   12  C   UNL     1      -8.964   9.285  69.134  1.00  0.00    -0.144 C  
HETATM   13  C   UNL     1      -9.046  10.269  66.819  1.00  0.00    -0.143 C  
HETATM   14  H   UNL     1     -12.867  10.506  69.141  1.00  0.00     0.000 HD 
HETATM   15  O   UNL     1      -8.412   9.691  67.862  1.00  0.00    -0.121 OA 
HETATM   16  C   UNL     1     -11.857  14.062  65.676  1.00  0.00    -0.384 A  
HETATM   17  O   UNL     1      -8.434  10.417  65.770  1.00  0.00    -0.153 OA 
HETATM   18  C   UNL     1     -11.682  15.445  65.865  1.00  0.00     0.208 A  
ENDROOT
BRANCH  10  19
HETATM   19  N   UNL     1      -8.269  15.541  67.313  1.00  0.00    -0.180 N  
HETATM   20  H   UNL     1      -7.360  15.444  66.859  1.00  0.00     0.000 HD 
BRANCH  19  21
HETATM   21  S   UNL     1      -8.398  16.288  68.858  1.00  0.00    -0.229 S  
HETATM   22  O   UNL     1      -7.303  15.773  69.661  1.00  0.00    -0.199 OA 
HETATM   23  O   UNL     1      -8.544  17.715  68.643  1.00  0.00    -0.290 OA 
BRANCH  21  24
HETATM   24  C   UNL     1      -9.929  15.716  69.577  1.00  0.00    -0.285 A  
HETATM   25  C   UNL     1     -11.566  14.109  70.342  1.00  0.00    -0.236 A  
HETATM   26  N   UNL     1     -10.545  16.680  70.238  1.00  0.00    -0.025 NA 
HETATM   27  F   UNL     1     -14.408  14.103  70.881  1.00  0.00    -0.155 F  
HETATM   28  C   UNL     1     -13.528  14.680  71.755  1.00  0.00    -0.373 C  
HETATM   29  F   UNL     1     -13.289  13.730  72.708  1.00  0.00    -0.544 F  
HETATM   30  C   UNL     1     -11.632  16.313  70.947  1.00  0.00    -0.286 A  
HETATM   31  F   UNL     1     -14.299  15.599  72.381  1.00  0.00    -0.589 F  
HETATM   32  C   UNL     1     -12.252  15.070  71.044  1.00  0.00    -0.386 A  
HETATM   33  C   UNL     1     -10.393  14.405  69.616  1.00  0.00     0.110 A  
ENDBRANCH  21  24
ENDBRANCH  19  21
ENDBRANCH  10  19
BRANCH  12  34
HETATM   34  C   UNL     1      -9.052   7.751  69.158  1.00  0.00    -0.145 C  
BRANCH  34  35
HETATM   35  C   UNL     1      -8.275   7.138  67.972  1.00  0.00    -0.120 C  
BRANCH  35  36
HETATM   36  C   UNL     1      -8.001   5.699  68.205  1.00  0.00    -0.097 A  
HETATM   37  C   UNL     1      -6.499   3.841  68.385  1.00  0.00    -0.037 A  
HETATM   38  C   UNL     1      -6.698   5.213  68.220  1.00  0.00    -0.054 A  
HETATM   39  C   UNL     1      -8.883   3.494  68.546  1.00  0.00    -0.160 A  
HETATM   40  C   UNL     1      -7.581   2.990  68.552  1.00  0.00    -0.048 A  
HETATM   41  C   UNL     1      -9.092   4.854  68.375  1.00  0.00    -0.141 A  
ENDBRANCH  35  36
ENDBRANCH  34  35
ENDBRANCH  12  34
BRANCH  12  42
HETATM   42  C   UNL     1      -7.918   9.791  70.249  1.00  0.00    -0.185 C  
BRANCH  42  43
HETATM   43  C   UNL     1      -6.498  10.140  69.747  1.00  0.00    -0.072 C  
HETATM   44  C   UNL     1      -5.513  10.963  70.576  1.00  0.00    -0.105 C  
ENDBRANCH  42  43
ENDBRANCH  12  42
TORSDOF 8
ENDMDL
MODEL       78
REMARK 921   NORMALIZED FREE ENERGY PREDICTED BY IDOCK:   -5.84 KCAL/MOL
REMARK 922        TOTAL FREE ENERGY PREDICTED BY IDOCK:  -10.56 KCAL/MOL
REMARK 923 INTER-LIGAND FREE ENERGY PREDICTED BY IDOCK:   -8.70 KCAL/MOL
REMARK 924 INTRA-LIGAND FREE ENERGY PREDICTED BY IDOCK:   -1.86 KCAL/MOL
REMARK 927      BINDING AFFINITY PREDICTED BY RF-SCORE:    0.00 PKD
ROOT
HETATM    1  C   UNL     1     -10.019   8.505  69.981  1.00  0.00    -0.191 C  
HETATM    2  C   UNL     1     -11.191   9.309  70.602  1.00  0.00    -0.333 A  
HETATM    3  C   UNL     1     -10.451   7.359  69.043  1.00  0.00    -0.217 C  
HETATM    4  C   UNL     1      -8.877   9.374  69.363  1.00  0.00    -0.159 C  
HETATM    5  C   UNL     1     -11.290   6.267  69.687  1.00  0.00    -0.492 C  
HETATM    6  C   UNL     1     -11.696  10.495  70.035  1.00  0.00    -0.394 A  
HETATM    7  C   UNL     1      -7.769   9.754  70.037  1.00  0.00    -0.171 C  
HETATM    8  O   UNL     1      -7.564   9.405  71.362  1.00  0.00    -0.340 OA 
HETATM    9  C   UNL     1      -6.758  10.793  69.516  1.00  0.00    -0.108 C  
HETATM   10  C   UNL     1     -12.664  11.283  70.696  1.00  0.00    -0.227 A  
HETATM   11  C   UNL     1     -13.210  10.855  71.896  1.00  0.00    -0.508 A  
HETATM   12  C   UNL     1      -6.940  11.265  68.074  1.00  0.00    -0.068 C  
HETATM   13  C   UNL     1      -8.997   9.822  67.947  1.00  0.00    -0.118 C  
HETATM   14  H   UNL     1      -6.785   9.672  71.836  1.00  0.00     0.000 HD 
HETATM   15  O   UNL     1      -8.134  10.737  67.455  1.00  0.00    -0.110 OA 
HETATM   16  C   UNL     1     -11.791   8.886  71.810  1.00  0.00    -0.429 A  
HETATM   17  O   UNL     1      -9.882   9.399  67.215  1.00  0.00    -0.160 OA 
HETATM   18  C   UNL     1     -12.800   9.639  72.437  1.00  0.00    -0.315 A  
ENDROOT
BRANCH  10  19
HETATM   19  N   UNL     1     -13.003  12.578  70.185  1.00  0.00     0.481 N  
HETATM   20  H   UNL     1     -13.965  12.916  70.230  1.00  0.00     0.000 HD 
BRANCH  19  21
HETATM   21  S   UNL     1     -11.766  13.554  69.495  1.00  0.00    -0.323 S  
HETATM   22  O   UNL     1     -12.176  14.936  69.677  1.00  0.00    -0.301 OA 
HETATM   23  O   UNL     1     -10.497  13.089  70.021  1.00  0.00     0.968 OA 
BRANCH  21  24
HETATM   24  C   UNL     1     -11.756  13.206  67.744  1.00  0.00    -0.358 A  
HETATM   25  C   UNL     1     -11.665  11.848  65.744  1.00  0.00    -0.210 A  
HETATM   26  N   UNL     1     -12.182  14.239  67.040  1.00  0.00    -0.390 NA 
HETATM   27  F   UNL     1     -11.003  12.258  62.958  1.00  0.00    -0.435 F  
HETATM   28  C   UNL     1     -12.201  12.682  63.466  1.00  0.00    -0.547 C  
HETATM   29  F   UNL     1     -13.093  11.691  63.166  1.00  0.00    -0.658 F  
HETATM   30  C   UNL     1     -12.359  14.027  65.720  1.00  0.00    -0.480 A  
HETATM   31  F   UNL     1     -12.529  13.695  62.631  1.00  0.00    -0.260 F  
HETATM   32  C   UNL     1     -12.101  12.889  64.961  1.00  0.00    -0.480 A  
HETATM   33  C   UNL     1     -11.503  11.977  67.140  1.00  0.00    -0.401 A  
ENDBRANCH  21  24
ENDBRANCH  19  21
ENDBRANCH  10  19
BRANCH  12  34
HETATM   34  C   UNL     1      -5.717  10.665  67.362  1.00  0.00    -0.044 C  
BRANCH  34  35
HETATM   35  C   UNL     1      -5.390   9.262  67.922  1.00  0.00    -0.034 C  
BRANCH  35  36
HETATM   36  C   UNL     1      -6.069   8.206  67.133  1.00  0.00    -0.054 A  
HETATM   37  C   UNL     1      -7.146   6.073  66.953  1.00  0.00    -0.070 A  
HETATM   38  C   UNL     1      -6.569   7.064  67.750  1.00  0.00    -0.052 A  
HETATM   39  C   UNL     1      -6.742   7.399  64.976  1.00  0.00    -0.044 A  
HETATM   40  C   UNL     1      -7.237   6.242  65.580  1.00  0.00    -0.070 A  
HETATM   41  C   UNL     1      -6.160   8.386  65.757  1.00  0.00    -0.048 A  
ENDBRANCH  35  36
ENDBRANCH  34  35
ENDBRANCH  12  34
BRANCH  12  42
HETATM   42  C   UNL     1      -6.987  12.857  67.831  1.00  0.00    -0.122 C  
BRANCH  42  43
HETATM   43  C   UNL     1      -8.305  13.423  67.255  1.00  0.00    -0.183 C  
HETATM   44  C   UNL     1      -8.564  14.922  67.115  1.00  0.00    -0.248 C  
ENDBRANCH  42  43
ENDBRANCH  12  42
TORSDOF 8
ENDMDL
MODEL       79
REMARK 921   NORMALIZED FREE ENERGY PREDICTED BY IDOCK:   -5.79 KCAL/MOL
REMARK 922        TOTAL FREE ENERGY PREDICTED BY IDOCK:  -10.49 KCAL/MOL
REMARK 923 INTER-LIGAND FREE ENERGY PREDICTED BY IDOCK:   -8.48 KCAL/MOL
REMARK 924 INTRA-LIGAND FREE ENERGY PREDICTED BY IDOCK:   -2.01 KCAL/MOL
REMARK 927      BINDING AFFINITY PREDICTED BY RF-SCORE:    0.00 PKD
ROOT
HETATM    1  C   UNL     1      -6.921   9.772  66.595  1.00  0.00    -0.085 C  
HETATM    2  C   UNL     1      -7.616   8.639  67.398  1.00  0.00    -0.093 A  
HETATM    3  C   UNL     1      -6.885   9.550  65.070  1.00  0.00    -0.097 C  
HETATM    4  C   UNL     1      -7.373  11.219  66.972  1.00  0.00    -0.136 C  
HETATM    5  C   UNL     1      -6.134   8.313  64.605  1.00  0.00    -0.060 C  
HETATM    6  C   UNL     1      -8.975   8.677  67.759  1.00  0.00    -0.140 A  
HETATM    7  C   UNL     1      -6.747  11.991  67.887  1.00  0.00    -0.080 C  
HETATM    8  O   UNL     1      -5.640  11.541  68.588  1.00  0.00    -0.043 OA 
HETATM    9  C   UNL     1      -7.315  13.317  68.428  1.00  0.00    -0.112 C  
HETATM   10  C   UNL     1      -9.546   7.704  68.611  1.00  0.00    -0.152 A  
HETATM   11  C   UNL     1      -8.789   6.628  69.046  1.00  0.00    -0.128 A  
HETATM   12  C   UNL     1      -8.565  13.862  67.737  1.00  0.00    -0.182 C  
HETATM   13  C   UNL     1      -8.564  11.802  66.292  1.00  0.00    -0.062 C  
HETATM   14  H   UNL     1      -5.199  12.084  69.232  1.00  0.00     0.000 HD 
HETATM   15  O   UNL     1      -9.094  12.960  66.740  1.00  0.00    -0.225 OA 
HETATM   16  C   UNL     1      -6.881   7.514  67.832  1.00  0.00    -0.071 A  
HETATM   17  O   UNL     1      -9.096  11.243  65.343  1.00  0.00    -0.205 OA 
HETATM   18  C   UNL     1      -7.465   6.513  68.629  1.00  0.00    -0.088 A  
ENDROOT
BRANCH  10  19
HETATM   19  N   UNL     1     -10.874   7.887  69.116  1.00  0.00    -0.414 N  
HETATM   20  H   UNL     1     -11.665   7.963  68.476  1.00  0.00     0.000 HD 
BRANCH  19  21
HETATM   21  S   UNL     1     -11.117   7.976  70.818  1.00  0.00    -0.259 S  
HETATM   22  O   UNL     1     -12.099   6.959  71.152  1.00  0.00    -0.347 OA 
HETATM   23  O   UNL     1      -9.810   7.969  71.446  1.00  0.00    -0.165 OA 
BRANCH  21  24
HETATM   24  C   UNL     1     -11.839   9.575  71.149  1.00  0.00    -0.358 A  
HETATM   25  C   UNL     1     -13.193  11.209  72.308  1.00  0.00    -0.097 A  
HETATM   26  N   UNL     1     -11.208  10.536  70.500  1.00  0.00    -0.310 NA 
HETATM   27  F   UNL     1     -14.402  13.759  71.677  1.00  0.00    -0.405 F  
HETATM   28  C   UNL     1     -13.060  13.659  71.921  1.00  0.00    -0.387 C  
HETATM   29  F   UNL     1     -12.904  13.996  73.236  1.00  0.00    -0.532 F  
HETATM   30  C   UNL     1     -11.577  11.798  70.802  1.00  0.00     0.503 A  
HETATM   31  F   UNL     1     -12.560  14.717  71.241  1.00  0.00    -0.324 F  
HETATM   32  C   UNL     1     -12.576  12.250  71.659  1.00  0.00    -0.198 A  
HETATM   33  C   UNL     1     -12.828   9.864  72.084  1.00  0.00    -0.435 A  
ENDBRANCH  21  24
ENDBRANCH  19  21
ENDBRANCH  10  19
BRANCH  12  34
HETATM   34  C   UNL     1      -8.039  15.119  67.025  1.00  0.00    -0.240 C  
BRANCH  34  35
HETATM   35  C   UNL     1      -6.777  15.662  67.731  1.00  0.00    -0.180 C  
BRANCH  35  36
HETATM   36  C   UNL     1      -6.936  17.097  68.070  1.00  0.00    -0.175 A  
HETATM   37  C   UNL     1      -8.280  18.980  68.694  1.00  0.00    -0.399 A  
HETATM   38  C   UNL     1      -8.174  17.610  68.443  1.00  0.00    -0.289 A  
HETATM   39  C   UNL     1      -5.929  19.269  68.230  1.00  0.00    -0.238 A  
HETATM   40  C   UNL     1      -7.167  19.800  68.594  1.00  0.00    -0.358 A  
HETATM   41  C   UNL     1      -5.813  17.912  67.971  1.00  0.00    -0.158 A  
ENDBRANCH  35  36
ENDBRANCH  34  35
ENDBRANCH  12  34
BRANCH  12  42
HETATM   42  C   UNL     1      -9.808  14.250  68.685  1.00  0.00    -0.228 C  
BRANCH  42  43
HETATM   43  C   UNL     1     -11.092  14.726  67.968  1.00  0.00    -0.294 C  
HETATM   44  C   UNL     1     -12.225  13.773  67.592  1.00  0.00    -0.229 C  
ENDBRANCH  42  43
ENDBRANCH  12  42
TORSDOF 8
ENDMDL
MODEL       80
REMARK 921   NORMALIZED FREE ENERGY PREDICTED BY IDOCK:   -5.75 KCAL/MOL
REMARK 922        TOTAL FREE ENERGY PREDICTED BY IDOCK:  -10.44 KCAL/MOL
REMARK 923 INTER-LIGAND FREE ENERGY PREDICTED BY IDOCK:   -9.77 KCAL/MOL
REMARK 924 INTRA-LIGAND FREE ENERGY PREDICTED BY IDOCK:   -0.66 KCAL/MOL
REMARK 927      BINDING AFFINITY PREDICTED BY RF-SCORE:    0.00 PKD
ROOT
HETATM    1  C   UNL     1     -11.231  12.667  64.667  1.00  0.00    -0.348 C  
HETATM    2  C   UNL     1     -10.299  11.427  64.682  1.00  0.00    -0.362 A  
HETATM    3  C   UNL     1     -12.732  12.341  64.531  1.00  0.00    -0.336 C  
HETATM    4  C   UNL     1     -10.954  13.713  65.795  1.00  0.00    -0.281 C  
HETATM    5  C   UNL     1     -13.133  11.618  63.255  1.00  0.00     0.246 C  
HETATM    6  C   UNL     1      -9.866  10.805  65.867  1.00  0.00    -0.290 A  
HETATM    7  C   UNL     1     -10.144  14.784  65.646  1.00  0.00    -0.366 C  
HETATM    8  O   UNL     1      -9.470  15.033  64.461  1.00  0.00     0.061 OA 
HETATM    9  C   UNL     1      -9.686  15.685  66.810  1.00  0.00    -0.255 C  
HETATM   10  C   UNL     1      -8.904   9.769  65.857  1.00  0.00    -0.150 A  
HETATM   11  C   UNL     1      -8.423   9.278  64.653  1.00  0.00    -0.192 A  
HETATM   12  C   UNL     1     -10.349  15.446  68.166  1.00  0.00    -0.239 C  
HETATM   13  C   UNL     1     -11.613  13.538  67.119  1.00  0.00    -0.357 C  
HETATM   14  H   UNL     1      -8.900  15.787  64.357  1.00  0.00     0.000 HD 
HETATM   15  O   UNL     1     -11.235  14.304  68.165  1.00  0.00    -0.255 OA 
HETATM   16  C   UNL     1      -9.812  10.882  63.472  1.00  0.00    -0.407 A  
HETATM   17  O   UNL     1     -12.480  12.692  67.295  1.00  0.00    -0.203 OA 
HETATM   18  C   UNL     1      -8.902   9.809  63.458  1.00  0.00    -0.260 A  
ENDROOT
BRANCH  10  19
HETATM   19  N   UNL     1      -8.342   9.301  67.089  1.00  0.00    -0.123 N  
HETATM   20  H   UNL     1      -7.737   8.480  67.102  1.00  0.00     0.000 HD 
BRANCH  19  21
HETATM   21  S   UNL     1      -8.703  10.143  68.545  1.00  0.00    -0.128 S  
HETATM   22  O   UNL     1      -7.484  10.824  68.945  1.00  0.00    -0.097 OA 
HETATM   23  O   UNL     1      -9.925  10.893  68.326  1.00  0.00    -0.165 OA 
BRANCH  21  24
HETATM   24  C   UNL     1      -9.075   8.903  69.775  1.00  0.00    -0.150 A  
HETATM   25  C   UNL     1      -9.100   6.705  70.784  1.00  0.00    -0.151 A  
HETATM   26  N   UNL     1      -9.438   9.449  70.921  1.00  0.00    -0.246 NA 
HETATM   27  F   UNL     1     -10.687   5.326  72.771  1.00  0.00    -0.226 F  
HETATM   28  C   UNL     1      -9.755   6.258  73.138  1.00  0.00    -0.159 C  
HETATM   29  F   UNL     1      -8.634   5.543  73.457  1.00  0.00    -0.115 F  
HETATM   30  C   UNL     1      -9.591   8.603  71.960  1.00  0.00    -0.314 A  
HETATM   31  F   UNL     1     -10.229   6.690  74.330  1.00  0.00    -0.296 F  
HETATM   32  C   UNL     1      -9.483   7.216  72.000  1.00  0.00    -0.151 A  
HETATM   33  C   UNL     1      -8.871   7.531  69.663  1.00  0.00    -0.141 A  
ENDBRANCH  21  24
ENDBRANCH  19  21
ENDBRANCH  10  19
BRANCH  12  34
HETATM   34  C   UNL     1     -11.193  16.715  68.360  1.00  0.00    -0.239 C  
BRANCH  34  35
HETATM   35  C   UNL     1     -10.367  17.823  69.051  1.00  0.00    -0.234 C  
BRANCH  35  36
HETATM   36  C   UNL     1      -9.729  18.711  68.049  1.00  0.00    -0.355 A  
HETATM   37  C   UNL     1      -9.789  19.990  66.024  1.00  0.00    -0.512 A  
HETATM   38  C   UNL     1     -10.453  19.207  66.970  1.00  0.00    -0.530 A  
HETATM   39  C   UNL     1      -7.731  19.788  67.270  1.00  0.00    -0.297 A  
HETATM   40  C   UNL     1      -8.443  20.283  66.176  1.00  0.00    -0.142 A  
HETATM   41  C   UNL     1      -8.379  19.002  68.211  1.00  0.00    -0.369 A  
ENDBRANCH  35  36
ENDBRANCH  34  35
ENDBRANCH  12  34
BRANCH  12  42
HETATM   42  C   UNL     1      -9.369  15.242  69.427  1.00  0.00    -0.228 C  
BRANCH  42  43
HETATM   43  C   UNL     1      -7.862  15.113  69.109  1.00  0.00    -0.199 C  
HETATM   44  C   UNL     1      -6.892  16.286  69.240  1.00  0.00    -0.211 C  
ENDBRANCH  42  43
ENDBRANCH  12  42
TORSDOF 8
ENDMDL
MODEL       81
REMARK 921   NORMALIZED FREE ENERGY PREDICTED BY IDOCK:   -5.74 KCAL/MOL
REMARK 922        TOTAL FREE ENERGY PREDICTED BY IDOCK:  -10.42 KCAL/MOL
REMARK 923 INTER-LIGAND FREE ENERGY PREDICTED BY IDOCK:   -9.39 KCAL/MOL
REMARK 924 INTRA-LIGAND FREE ENERGY PREDICTED BY IDOCK:   -1.04 KCAL/MOL
REMARK 927      BINDING AFFINITY PREDICTED BY RF-SCORE:    0.00 PKD
ROOT
HETATM    1  C   UNL     1     -11.391  11.842  67.866  1.00  0.00    -0.362 C  
HETATM    2  C   UNL     1     -10.670  13.173  68.208  1.00  0.00    -0.261 A  
HETATM    3  C   UNL     1     -11.260  11.400  66.395  1.00  0.00    -0.250 C  
HETATM    4  C   UNL     1     -11.117  10.669  68.862  1.00  0.00    -0.314 C  
HETATM    5  C   UNL     1     -11.842  12.358  65.368  1.00  0.00    -0.460 C  
HETATM    6  C   UNL     1      -9.361  13.228  68.722  1.00  0.00     0.110 A  
HETATM    7  C   UNL     1     -11.898  10.386  69.927  1.00  0.00    -0.238 C  
HETATM    8  O   UNL     1     -13.018  11.142  70.234  1.00  0.00    -0.121 OA 
HETATM    9  C   UNL     1     -11.513   9.388  71.036  1.00  0.00    -0.403 C  
HETATM   10  C   UNL     1      -8.783  14.441  69.159  1.00  0.00     0.095 A  
HETATM   11  C   UNL     1      -9.472  15.635  69.010  1.00  0.00    -0.243 A  
HETATM   12  C   UNL     1     -10.261   8.544  70.796  1.00  0.00    -0.198 C  
HETATM   13  C   UNL     1      -9.928   9.798  68.641  1.00  0.00    -0.167 C  
HETATM   14  H   UNL     1     -13.568  10.943  70.983  1.00  0.00     0.000 HD 
HETATM   15  O   UNL     1      -9.556   8.915  69.591  1.00  0.00    -0.163 OA 
HETATM   16  C   UNL     1     -11.332  14.410  68.042  1.00  0.00    -0.316 A  
HETATM   17  O   UNL     1      -9.257   9.879  67.621  1.00  0.00    -0.133 OA 
HETATM   18  C   UNL     1     -10.733  15.626  68.419  1.00  0.00    -0.271 A  
ENDROOT
BRANCH  10  19
HETATM   19  N   UNL     1      -7.532  14.427  69.857  1.00  0.00    -0.380 N  
HETATM   20  H   UNL     1      -7.481  14.090  70.819  1.00  0.00     0.000 HD 
BRANCH  19  21
HETATM   21  S   UNL     1      -6.118  14.987  69.052  1.00  0.00    -0.100 S  
HETATM   22  O   UNL     1      -5.181  15.388  70.087  1.00  0.00    -0.111 OA 
HETATM   23  O   UNL     1      -5.746  13.983  68.074  1.00  0.00    -0.116 OA 
BRANCH  21  24
HETATM   24  C   UNL     1      -6.593  16.446  68.138  1.00  0.00    -0.128 A  
HETATM   25  C   UNL     1      -7.495  17.721  66.292  1.00  0.00    -0.328 A  
HETATM   26  N   UNL     1      -6.636  17.513  68.915  1.00  0.00    -0.216 NA 
HETATM   27  F   UNL     1      -7.254  20.426  65.295  1.00  0.00    -0.318 F  
HETATM   28  C   UNL     1      -8.018  20.148  66.396  1.00  0.00    -0.260 C  
HETATM   29  F   UNL     1      -9.297  20.030  65.929  1.00  0.00    -0.417 F  
HETATM   30  C   UNL     1      -7.133  18.635  68.356  1.00  0.00    -0.272 A  
HETATM   31  F   UNL     1      -8.008  21.325  67.062  1.00  0.00    -0.257 F  
HETATM   32  C   UNL     1      -7.558  18.864  67.050  1.00  0.00    -0.239 A  
HETATM   33  C   UNL     1      -7.034  16.496  66.819  1.00  0.00    -0.241 A  
ENDBRANCH  21  24
ENDBRANCH  19  21
ENDBRANCH  10  19
BRANCH  12  34
HETATM   34  C   UNL     1     -10.835   7.131  70.609  1.00  0.00    -0.268 C  
BRANCH  34  35
HETATM   35  C   UNL     1     -11.047   6.819  69.110  1.00  0.00    -0.270 C  
BRANCH  35  36
HETATM   36  C   UNL     1     -10.065   5.815  68.634  1.00  0.00    -0.227 A  
HETATM   37  C   UNL     1      -8.921   3.720  68.844  1.00  0.00    -0.178 A  
HETATM   38  C   UNL     1      -9.900   4.605  69.300  1.00  0.00    -0.260 A  
HETATM   39  C   UNL     1      -8.334   5.250  67.071  1.00  0.00    -0.107 A  
HETATM   40  C   UNL     1      -8.149   4.037  67.737  1.00  0.00    -0.090 A  
HETATM   41  C   UNL     1      -9.299   6.140  67.520  1.00  0.00    -0.113 A  
ENDBRANCH  35  36
ENDBRANCH  34  35
ENDBRANCH  12  34
BRANCH  12  42
HETATM   42  C   UNL     1      -9.157   8.535  71.968  1.00  0.00    -0.317 C  
BRANCH  42  43
HETATM   43  C   UNL     1      -9.507   7.718  73.233  1.00  0.00    -0.344 C  
HETATM   44  C   UNL     1      -9.074   6.264  73.418  1.00  0.00    -0.132 C  
ENDBRANCH  42  43
ENDBRANCH  12  42
TORSDOF 8
ENDMDL
MODEL       82
REMARK 921   NORMALIZED FREE ENERGY PREDICTED BY IDOCK:   -5.74 KCAL/MOL
REMARK 922        TOTAL FREE ENERGY PREDICTED BY IDOCK:  -10.42 KCAL/MOL
REMARK 923 INTER-LIGAND FREE ENERGY PREDICTED BY IDOCK:   -7.55 KCAL/MOL
REMARK 924 INTRA-LIGAND FREE ENERGY PREDICTED BY IDOCK:   -2.87 KCAL/MOL
REMARK 927      BINDING AFFINITY PREDICTED BY RF-SCORE:    0.00 PKD
ROOT
HETATM    1  C   UNL     1      -7.997  11.252  67.839  1.00  0.00    -0.118 C  
HETATM    2  C   UNL     1      -9.386  11.796  68.271  1.00  0.00    -0.193 A  
HETATM    3  C   UNL     1      -6.896  11.380  68.911  1.00  0.00    -0.089 C  
HETATM    4  C   UNL     1      -8.020   9.836  67.180  1.00  0.00    -0.102 C  
HETATM    5  C   UNL     1      -6.569  12.798  69.349  1.00  0.00    -0.064 C  
HETATM    6  C   UNL     1     -10.389  10.982  68.831  1.00  0.00    -0.223 A  
HETATM    7  C   UNL     1      -8.102   9.625  65.848  1.00  0.00    -0.112 C  
HETATM    8  O   UNL     1      -8.191  10.673  64.946  1.00  0.00    -0.278 OA 
HETATM    9  C   UNL     1      -8.355   8.246  65.209  1.00  0.00    -0.175 C  
HETATM   10  C   UNL     1     -11.690  11.472  69.081  1.00  0.00    -0.329 A  
HETATM   11  C   UNL     1     -11.989  12.807  68.856  1.00  0.00    -0.286 A  
HETATM   12  C   UNL     1      -8.319   7.038  66.145  1.00  0.00    -0.130 C  
HETATM   13  C   UNL     1      -7.946   8.632  68.055  1.00  0.00    -0.107 C  
HETATM   14  H   UNL     1      -8.249  10.524  64.009  1.00  0.00     0.000 HD 
HETATM   15  O   UNL     1      -8.168   7.407  67.534  1.00  0.00    -0.112 OA 
HETATM   16  C   UNL     1      -9.713  13.157  68.083  1.00  0.00    -0.228 A  
HETATM   17  O   UNL     1      -7.712   8.725  69.253  1.00  0.00    -0.090 OA 
HETATM   18  C   UNL     1     -10.990  13.659  68.390  1.00  0.00    -0.284 A  
ENDROOT
BRANCH  10  19
HETATM   19  N   UNL     1     -12.735  10.567  69.460  1.00  0.00    -0.394 N  
HETATM   20  H   UNL     1     -13.357  10.171  68.755  1.00  0.00     0.000 HD 
BRANCH  19  21
HETATM   21  S   UNL     1     -12.924  10.159  71.121  1.00  0.00    -0.396 S  
HETATM   22  O   UNL     1     -12.432  11.291  71.887  1.00  0.00    -0.138 OA 
HETATM   23  O   UNL     1     -14.283   9.685  71.302  1.00  0.00    -0.013 OA 
BRANCH  21  24
HETATM   24  C   UNL     1     -11.849   8.768  71.433  1.00  0.00    -0.308 A  
HETATM   25  C   UNL     1      -9.836   7.623  72.129  1.00  0.00    -0.226 A  
HETATM   26  N   UNL     1     -12.517   7.629  71.442  1.00  0.00    -0.330 NA 
HETATM   27  F   UNL     1      -8.606   5.052  71.632  1.00  0.00    -0.118 F  
HETATM   28  C   UNL     1      -9.676   5.168  72.477  1.00  0.00    -0.151 C  
HETATM   29  F   UNL     1      -9.141   5.243  73.732  1.00  0.00    -0.123 F  
HETATM   30  C   UNL     1     -11.824   6.537  71.822  1.00  0.00    -0.335 A  
HETATM   31  F   UNL     1     -10.228   3.934  72.419  1.00  0.00    -0.216 F  
HETATM   32  C   UNL     1     -10.478   6.409  72.151  1.00  0.00    -0.234 A  
HETATM   33  C   UNL     1     -10.505   8.818  71.791  1.00  0.00    -0.417 A  
ENDBRANCH  21  24
ENDBRANCH  19  21
ENDBRANCH  10  19
BRANCH  12  34
HETATM   34  C   UNL     1      -7.048   6.299  65.697  1.00  0.00    -0.065 C  
BRANCH  34  35
HETATM   35  C   UNL     1      -6.247   5.795  66.919  1.00  0.00    -0.034 C  
BRANCH  35  36
HETATM   36  C   UNL     1      -6.665   4.423  67.297  1.00  0.00    -0.047 A  
HETATM   37  C   UNL     1      -7.698   2.876  68.807  1.00  0.00    -0.047 A  
HETATM   38  C   UNL     1      -7.381   4.192  68.468  1.00  0.00    -0.056 A  
HETATM   39  C   UNL     1      -6.618   2.077  66.800  1.00  0.00    -0.038 A  
HETATM   40  C   UNL     1      -7.326   1.828  67.978  1.00  0.00    -0.050 A  
HETATM   41  C   UNL     1      -6.291   3.380  66.458  1.00  0.00    -0.032 A  
ENDBRANCH  35  36
ENDBRANCH  34  35
ENDBRANCH  12  34
BRANCH  12  42
HETATM   42  C   UNL     1      -9.581   6.038  66.090  1.00  0.00    -0.091 C  
BRANCH  42  43
HETATM   43  C   UNL     1     -10.812   6.445  66.931  1.00  0.00    -0.428 C  
HETATM   44  C   UNL     1     -11.014   5.978  68.372  1.00  0.00    -0.340 C  
ENDBRANCH  42  43
ENDBRANCH  12  42
TORSDOF 8
ENDMDL
MODEL       83
REMARK 921   NORMALIZED FREE ENERGY PREDICTED BY IDOCK:   -5.73 KCAL/MOL
REMARK 922        TOTAL FREE ENERGY PREDICTED BY IDOCK:  -10.41 KCAL/MOL
REMARK 923 INTER-LIGAND FREE ENERGY PREDICTED BY IDOCK:   -8.86 KCAL/MOL
REMARK 924 INTRA-LIGAND FREE ENERGY PREDICTED BY IDOCK:   -1.55 KCAL/MOL
REMARK 927      BINDING AFFINITY PREDICTED BY RF-SCORE:    0.00 PKD
ROOT
HETATM    1  C   UNL     1      -7.853   9.596  68.137  1.00  0.00    -0.086 C  
HETATM    2  C   UNL     1      -8.122  11.117  67.977  1.00  0.00    -0.123 A  
HETATM    3  C   UNL     1      -8.742   8.894  69.184  1.00  0.00    -0.132 C  
HETATM    4  C   UNL     1      -7.773   8.796  66.797  1.00  0.00    -0.094 C  
HETATM    5  C   UNL     1      -8.601   9.401  70.610  1.00  0.00    -0.247 C  
HETATM    6  C   UNL     1      -8.996  11.645  67.008  1.00  0.00    -0.182 A  
HETATM    7  C   UNL     1      -6.622   8.551  66.133  1.00  0.00    -0.057 C  
HETATM    8  O   UNL     1      -5.400   9.015  66.592  1.00  0.00    -0.037 OA 
HETATM    9  C   UNL     1      -6.558   7.970  64.708  1.00  0.00    -0.048 C  
HETATM   10  C   UNL     1      -9.112  13.036  66.789  1.00  0.00    -0.210 A  
HETATM   11  C   UNL     1      -8.421  13.928  67.594  1.00  0.00    -0.193 A  
HETATM   12  C   UNL     1      -7.874   7.475  64.108  1.00  0.00    -0.130 C  
HETATM   13  C   UNL     1      -9.029   8.263  66.200  1.00  0.00    -0.181 C  
HETATM   14  H   UNL     1      -4.590   8.843  66.125  1.00  0.00     0.000 HD 
HETATM   15  O   UNL     1      -9.015   7.751  64.951  1.00  0.00     0.210 OA 
HETATM   16  C   UNL     1      -7.457  12.053  68.800  1.00  0.00    -0.086 A  
HETATM   17  O   UNL     1     -10.092   8.299  66.806  1.00  0.00    -0.257 OA 
HETATM   18  C   UNL     1      -7.619  13.439  68.623  1.00  0.00    -0.101 A  
ENDROOT
BRANCH  10  19
HETATM   19  N   UNL     1      -9.855  13.524  65.666  1.00  0.00    -0.461 N  
HETATM   20  H   UNL     1      -9.493  13.412  64.718  1.00  0.00     0.000 HD 
BRANCH  19  21
HETATM   21  S   UNL     1     -11.365  14.303  65.937  1.00  0.00    -0.334 S  
HETATM   22  O   UNL     1     -11.940  14.564  64.629  1.00  0.00    -0.425 OA 
HETATM   23  O   UNL     1     -12.093  13.518  66.915  1.00  0.00    -0.390 OA 
BRANCH  21  24
HETATM   24  C   UNL     1     -11.001  15.873  66.706  1.00  0.00    -0.151 A  
HETATM   25  C   UNL     1     -10.635  17.434  68.516  1.00  0.00    -0.340 A  
HETATM   26  N   UNL     1     -10.465  16.722  65.847  1.00  0.00    -0.368 NA 
HETATM   27  F   UNL     1     -10.713  20.305  68.859  1.00  0.00    -0.458 F  
HETATM   28  C   UNL     1      -9.659  19.701  68.230  1.00  0.00    -0.385 C  
HETATM   29  F   UNL     1      -8.697  19.556  69.190  1.00  0.00    -0.396 F  
HETATM   30  C   UNL     1     -10.011  17.882  66.363  1.00  0.00    -0.358 A  
HETATM   31  F   UNL     1      -9.192  20.687  67.430  1.00  0.00    -0.468 F  
HETATM   32  C   UNL     1     -10.075  18.358  67.670  1.00  0.00    -0.378 A  
HETATM   33  C   UNL     1     -11.088  16.178  68.061  1.00  0.00    -0.317 A  
ENDBRANCH  21  24
ENDBRANCH  19  21
ENDBRANCH  10  19
BRANCH  12  34
HETATM   34  C   UNL     1      -7.670   5.953  64.049  1.00  0.00    -0.103 C  
BRANCH  34  35
HETATM   35  C   UNL     1      -8.344   5.357  62.793  1.00  0.00    -0.109 C  
BRANCH  35  36
HETATM   36  C   UNL     1      -8.953   4.038  63.094  1.00  0.00    -0.113 A  
HETATM   37  C   UNL     1      -8.785   1.741  63.754  1.00  0.00    -0.085 A  
HETATM   38  C   UNL     1      -8.172   2.977  63.542  1.00  0.00    -0.085 A  
HETATM   39  C   UNL     1     -10.919   2.664  63.105  1.00  0.00    -0.210 A  
HETATM   40  C   UNL     1     -10.147   1.588  63.543  1.00  0.00    -0.130 A  
HETATM   41  C   UNL     1     -10.319   3.895  62.884  1.00  0.00    -0.186 A  
ENDBRANCH  35  36
ENDBRANCH  34  35
ENDBRANCH  12  34
BRANCH  12  42
HETATM   42  C   UNL     1      -8.261   8.032  62.647  1.00  0.00    -0.129 C  
BRANCH  42  43
HETATM   43  C   UNL     1      -8.294   9.569  62.488  1.00  0.00    -0.169 C  
HETATM   44  C   UNL     1      -9.482  10.417  62.938  1.00  0.00    -0.354 C  
ENDBRANCH  42  43
ENDBRANCH  12  42
TORSDOF 8
ENDMDL
MODEL       84
REMARK 921   NORMALIZED FREE ENERGY PREDICTED BY IDOCK:   -5.72 KCAL/MOL
REMARK 922        TOTAL FREE ENERGY PREDICTED BY IDOCK:  -10.39 KCAL/MOL
REMARK 923 INTER-LIGAND FREE ENERGY PREDICTED BY IDOCK:   -8.67 KCAL/MOL
REMARK 924 INTRA-LIGAND FREE ENERGY PREDICTED BY IDOCK:   -1.73 KCAL/MOL
REMARK 927      BINDING AFFINITY PREDICTED BY RF-SCORE:    0.00 PKD
ROOT
HETATM    1  C   UNL     1      -8.709   5.196  69.723  1.00  0.00    -0.115 C  
HETATM    2  C   UNL     1      -9.480   5.250  71.069  1.00  0.00    -0.211 A  
HETATM    3  C   UNL     1      -9.280   4.196  68.697  1.00  0.00    -0.203 C  
HETATM    4  C   UNL     1      -8.400   6.588  69.084  1.00  0.00    -0.119 C  
HETATM    5  C   UNL     1      -9.280   2.739  69.131  1.00  0.00    -0.215 C  
HETATM    6  C   UNL     1     -10.507   6.177  71.330  1.00  0.00    -0.273 A  
HETATM    7  C   UNL     1      -7.253   7.272  69.286  1.00  0.00    -0.081 C  
HETATM    8  O   UNL     1      -6.247   6.787  70.106  1.00  0.00    -0.033 OA 
HETATM    9  C   UNL     1      -7.034   8.734  68.851  1.00  0.00    -0.062 C  
HETATM   10  C   UNL     1     -11.091   6.300  72.610  1.00  0.00    -0.263 A  
HETATM   11  C   UNL     1     -10.721   5.438  73.632  1.00  0.00    -0.337 A  
HETATM   12  C   UNL     1      -8.121   9.361  67.979  1.00  0.00    -0.106 C  
HETATM   13  C   UNL     1      -9.418   7.215  68.195  1.00  0.00    -0.132 C  
HETATM   14  H   UNL     1      -5.439   7.268  70.248  1.00  0.00     0.000 HD 
HETATM   15  O   UNL     1      -9.265   8.497  67.798  1.00  0.00    -0.135 OA 
HETATM   16  C   UNL     1      -9.148   4.368  72.122  1.00  0.00    -0.152 A  
HETATM   17  O   UNL     1     -10.413   6.604  67.831  1.00  0.00    -0.175 OA 
HETATM   18  C   UNL     1      -9.774   4.449  73.379  1.00  0.00    -0.150 A  
ENDROOT
BRANCH  10  19
HETATM   19  N   UNL     1     -11.986   7.384  72.888  1.00  0.00    -0.549 N  
HETATM   20  H   UNL     1     -11.984   7.835  73.804  1.00  0.00     0.000 HD 
BRANCH  19  21
HETATM   21  S   UNL     1     -13.064   7.915  71.656  1.00  0.00    -0.310 S  
HETATM   22  O   UNL     1     -12.737   7.156  70.462  1.00  0.00    -0.102 OA 
HETATM   23  O   UNL     1     -14.406   7.878  72.205  1.00  0.00    -0.353 OA 
BRANCH  21  24
HETATM   24  C   UNL     1     -12.681   9.631  71.345  1.00  0.00    -0.374 A  
HETATM   25  C   UNL     1     -11.855  11.539  70.112  1.00  0.00    -0.440 A  
HETATM   26  N   UNL     1     -13.316  10.430  72.184  1.00  0.00    -0.381 NA 
HETATM   27  F   UNL     1     -10.962  14.218  70.741  1.00  0.00    -0.050 F  
HETATM   28  C   UNL     1     -12.293  13.903  70.739  1.00  0.00    -0.378 C  
HETATM   29  F   UNL     1     -12.754  14.286  69.510  1.00  0.00    -0.329 F  
HETATM   30  C   UNL     1     -13.217  11.751  71.936  1.00  0.00    -0.362 A  
HETATM   31  F   UNL     1     -12.810  14.817  71.592  1.00  0.00    -0.334 F  
HETATM   32  C   UNL     1     -12.489  12.419  70.955  1.00  0.00    -0.367 A  
HETATM   33  C   UNL     1     -11.952  10.141  70.276  1.00  0.00    -0.315 A  
ENDBRANCH  21  24
ENDBRANCH  19  21
ENDBRANCH  10  19
BRANCH  12  34
HETATM   34  C   UNL     1      -7.417   9.525  66.623  1.00  0.00    -0.093 C  
BRANCH  34  35
HETATM   35  C   UNL     1      -8.327   9.048  65.470  1.00  0.00    -0.138 C  
BRANCH  35  36
HETATM   36  C   UNL     1      -7.711   7.911  64.744  1.00  0.00    -0.118 A  
HETATM   37  C   UNL     1      -6.512   5.837  64.703  1.00  0.00    -0.037 A  
HETATM   38  C   UNL     1      -7.130   6.853  65.435  1.00  0.00    -0.068 A  
HETATM   39  C   UNL     1      -7.098   6.940  62.637  1.00  0.00    -0.054 A  
HETATM   40  C   UNL     1      -6.502   5.877  63.318  1.00  0.00    -0.028 A  
HETATM   41  C   UNL     1      -7.708   7.958  63.354  1.00  0.00    -0.140 A  
ENDBRANCH  35  36
ENDBRANCH  34  35
ENDBRANCH  12  34
BRANCH  12  42
HETATM   42  C   UNL     1      -8.713  10.778  68.463  1.00  0.00    -0.149 C  
BRANCH  42  43
HETATM   43  C   UNL     1      -9.065  11.790  67.348  1.00  0.00    -0.175 C  
HETATM   44  C   UNL     1     -10.413  11.783  66.628  1.00  0.00    -0.259 C  
ENDBRANCH  42  43
ENDBRANCH  12  42
TORSDOF 8
ENDMDL
MODEL       85
REMARK 921   NORMALIZED FREE ENERGY PREDICTED BY IDOCK:   -5.72 KCAL/MOL
REMARK 922        TOTAL FREE ENERGY PREDICTED BY IDOCK:  -10.39 KCAL/MOL
REMARK 923 INTER-LIGAND FREE ENERGY PREDICTED BY IDOCK:   -6.67 KCAL/MOL
REMARK 924 INTRA-LIGAND FREE ENERGY PREDICTED BY IDOCK:   -3.72 KCAL/MOL
REMARK 927      BINDING AFFINITY PREDICTED BY RF-SCORE:    0.00 PKD
ROOT
HETATM    1  C   UNL     1      -7.497  10.430  68.794  1.00  0.00    -0.093 C  
HETATM    2  C   UNL     1      -8.917  10.999  68.534  1.00  0.00    -0.163 A  
HETATM    3  C   UNL     1      -6.689  11.187  69.868  1.00  0.00    -0.098 C  
HETATM    4  C   UNL     1      -7.433   8.881  68.988  1.00  0.00    -0.074 C  
HETATM    5  C   UNL     1      -6.404  12.649  69.565  1.00  0.00    -0.111 C  
HETATM    6  C   UNL     1     -10.070  10.512  69.178  1.00  0.00    -0.240 A  
HETATM    7  C   UNL     1      -7.195   8.005  67.987  1.00  0.00    -0.094 C  
HETATM    8  O   UNL     1      -7.001   8.423  66.680  1.00  0.00    -0.070 OA 
HETATM    9  C   UNL     1      -7.357   6.479  68.123  1.00  0.00    -0.090 C  
HETATM   10  C   UNL     1     -11.365  10.948  68.817  1.00  0.00    -0.292 A  
HETATM   11  C   UNL     1     -11.525  11.943  67.866  1.00  0.00    -0.385 A  
HETATM   12  C   UNL     1      -7.618   5.938  69.528  1.00  0.00    -0.088 C  
HETATM   13  C   UNL     1      -7.642   8.316  70.350  1.00  0.00    -0.075 C  
HETATM   14  H   UNL     1      -6.834   7.807  65.976  1.00  0.00     0.000 HD 
HETATM   15  O   UNL     1      -7.795   6.984  70.509  1.00  0.00    -0.097 OA 
HETATM   16  C   UNL     1      -9.114  12.034  67.592  1.00  0.00    -0.179 A  
HETATM   17  O   UNL     1      -7.707   9.035  71.339  1.00  0.00    -0.247 OA 
HETATM   18  C   UNL     1     -10.398  12.512  67.277  1.00  0.00    -0.228 A  
ENDROOT
BRANCH  10  19
HETATM   19  N   UNL     1     -12.518  10.286  69.351  1.00  0.00    -0.351 N  
HETATM   20  H   UNL     1     -13.195   9.843  68.729  1.00  0.00     0.000 HD 
BRANCH  19  21
HETATM   21  S   UNL     1     -12.745  10.248  71.056  1.00  0.00    -0.417 S  
HETATM   22  O   UNL     1     -11.931  11.318  71.608  1.00  0.00     0.163 OA 
HETATM   23  O   UNL     1     -14.173  10.208  71.306  1.00  0.00     0.377 OA 
BRANCH  21  24
HETATM   24  C   UNL     1     -12.079   8.693  71.628  1.00  0.00    -0.326 A  
HETATM   25  C   UNL     1     -10.494   7.204  72.685  1.00  0.00    -0.269 A  
HETATM   26  N   UNL     1     -13.000   7.746  71.642  1.00  0.00    -0.340 NA 
HETATM   27  F   UNL     1      -9.874   4.381  72.578  1.00  0.00    -0.168 F  
HETATM   28  C   UNL     1     -10.972   4.834  73.257  1.00  0.00    -0.316 C  
HETATM   29  F   UNL     1     -10.578   4.928  74.562  1.00  0.00    -0.280 F  
HETATM   30  C   UNL     1     -12.638   6.575  72.203  1.00  0.00    -0.110 A  
HETATM   31  F   UNL     1     -11.795   3.761  73.229  1.00  0.00    -0.259 F  
HETATM   32  C   UNL     1     -11.408   6.180  72.722  1.00  0.00    -0.259 A  
HETATM   33  C   UNL     1     -10.812   8.475  72.160  1.00  0.00    -0.427 A  
ENDBRANCH  21  24
ENDBRANCH  19  21
ENDBRANCH  10  19
BRANCH  12  34
HETATM   34  C   UNL     1      -6.318   5.184  69.849  1.00  0.00    -0.027 C  
BRANCH  34  35
HETATM   35  C   UNL     1      -5.829   5.518  71.277  1.00  0.00    -0.024 C  
BRANCH  35  36
HETATM   36  C   UNL     1      -6.412   4.582  72.269  1.00  0.00    -0.026 A  
HETATM   37  C   UNL     1      -7.271   4.090  74.451  1.00  0.00    -0.069 A  
HETATM   38  C   UNL     1      -6.782   5.023  73.535  1.00  0.00    -0.069 A  
HETATM   39  C   UNL     1      -7.041   2.332  72.812  1.00  0.00    -0.027 A  
HETATM   40  C   UNL     1      -7.405   2.758  74.090  1.00  0.00    -0.042 A  
HETATM   41  C   UNL     1      -6.547   3.249  71.897  1.00  0.00    -0.015 A  
ENDBRANCH  35  36
ENDBRANCH  34  35
ENDBRANCH  12  34
BRANCH  12  42
HETATM   42  C   UNL     1      -8.879   4.952  69.704  1.00  0.00    -0.117 C  
BRANCH  42  43
HETATM   43  C   UNL     1     -10.087   5.213  68.775  1.00  0.00    -0.231 C  
HETATM   44  C   UNL     1     -10.972   6.452  68.906  1.00  0.00    -0.412 C  
ENDBRANCH  42  43
ENDBRANCH  12  42
TORSDOF 8
ENDMDL
MODEL       86
REMARK 921   NORMALIZED FREE ENERGY PREDICTED BY IDOCK:   -5.70 KCAL/MOL
REMARK 922        TOTAL FREE ENERGY PREDICTED BY IDOCK:  -10.36 KCAL/MOL
REMARK 923 INTER-LIGAND FREE ENERGY PREDICTED BY IDOCK:   -9.70 KCAL/MOL
REMARK 924 INTRA-LIGAND FREE ENERGY PREDICTED BY IDOCK:   -0.66 KCAL/MOL
REMARK 927      BINDING AFFINITY PREDICTED BY RF-SCORE:    0.00 PKD
ROOT
HETATM    1  C   UNL     1     -11.700  12.634  67.150  1.00  0.00    -0.438 C  
HETATM    2  C   UNL     1     -11.118  13.809  67.979  1.00  0.00    -0.284 A  
HETATM    3  C   UNL     1     -11.838  12.919  65.641  1.00  0.00    -0.464 C  
HETATM    4  C   UNL     1     -11.048  11.242  67.431  1.00  0.00    -0.358 C  
HETATM    5  C   UNL     1     -12.764  14.067  65.273  1.00  0.00    -0.468 C  
HETATM    6  C   UNL     1      -9.748  13.933  68.280  1.00  0.00    -0.223 A  
HETATM    7  C   UNL     1     -11.524  10.354  68.331  1.00  0.00    -0.155 C  
HETATM    8  O   UNL     1     -12.644  10.623  69.102  1.00  0.00    -0.734 OA 
HETATM    9  C   UNL     1     -10.765   9.090  68.778  1.00  0.00    -0.140 C  
HETATM   10  C   UNL     1      -9.265  14.932  69.155  1.00  0.00    -0.142 A  
HETATM   11  C   UNL     1     -10.132  15.879  69.678  1.00  0.00    -0.271 A  
HETATM   12  C   UNL     1      -9.491   8.745  68.007  1.00  0.00    -0.143 C  
HETATM   13  C   UNL     1      -9.827  10.851  66.672  1.00  0.00    -0.198 C  
HETATM   14  H   UNL     1     -12.979   9.999  69.735  1.00  0.00     0.000 HD 
HETATM   15  O   UNL     1      -9.131   9.753  67.037  1.00  0.00    -0.136 OA 
HETATM   16  C   UNL     1     -11.968  14.809  68.503  1.00  0.00    -0.284 A  
HETATM   17  O   UNL     1      -9.418  11.518  65.731  1.00  0.00    -0.227 OA 
HETATM   18  C   UNL     1     -11.479  15.840  69.324  1.00  0.00    -0.368 A  
ENDROOT
BRANCH  10  19
HETATM   19  N   UNL     1      -7.902  14.901  69.593  1.00  0.00    -0.392 N  
HETATM   20  H   UNL     1      -7.672  15.035  70.579  1.00  0.00     0.000 HD 
BRANCH  19  21
HETATM   21  S   UNL     1      -6.657  14.638  68.435  1.00  0.00    -0.114 S  
HETATM   22  O   UNL     1      -5.443  14.361  69.184  1.00  0.00    -0.081 OA 
HETATM   23  O   UNL     1      -7.157  13.680  67.467  1.00  0.00    -0.167 OA 
BRANCH  21  24
HETATM   24  C   UNL     1      -6.432  16.180  67.564  1.00  0.00    -0.172 A  
HETATM   25  C   UNL     1      -5.231  17.915  66.384  1.00  0.00    -0.206 A  
HETATM   26  N   UNL     1      -7.584  16.682  67.159  1.00  0.00    -0.167 NA 
HETATM   27  F   UNL     1      -5.629  20.722  65.806  1.00  0.00    -0.206 F  
HETATM   28  C   UNL     1      -6.322  19.758  65.124  1.00  0.00    -0.269 C  
HETATM   29  F   UNL     1      -5.625  19.562  63.965  1.00  0.00    -0.214 F  
HETATM   30  C   UNL     1      -7.512  17.765  66.359  1.00  0.00    -0.279 A  
HETATM   31  F   UNL     1      -7.437  20.420  64.738  1.00  0.00    -0.196 F  
HETATM   32  C   UNL     1      -6.398  18.485  65.936  1.00  0.00    -0.273 A  
HETATM   33  C   UNL     1      -5.222  16.753  67.183  1.00  0.00    -0.168 A  
ENDBRANCH  21  24
ENDBRANCH  19  21
ENDBRANCH  10  19
BRANCH  12  34
HETATM   34  C   UNL     1      -9.886   7.464  67.255  1.00  0.00    -0.230 C  
BRANCH  34  35
HETATM   35  C   UNL     1      -8.634   6.741  66.710  1.00  0.00    -0.119 C  
BRANCH  35  36
HETATM   36  C   UNL     1      -8.999   5.788  65.634  1.00  0.00    -0.122 A  
HETATM   37  C   UNL     1     -10.366   4.029  64.749  1.00  0.00    -0.212 A  
HETATM   38  C   UNL     1     -10.101   4.949  65.767  1.00  0.00    -0.195 A  
HETATM   39  C   UNL     1      -8.463   4.833  63.499  1.00  0.00    -0.127 A  
HETATM   40  C   UNL     1      -9.558   3.977  63.624  1.00  0.00    -0.156 A  
HETATM   41  C   UNL     1      -8.186   5.745  64.507  1.00  0.00    -0.122 A  
ENDBRANCH  35  36
ENDBRANCH  34  35
ENDBRANCH  12  34
BRANCH  12  42
HETATM   42  C   UNL     1      -8.164   8.480  68.880  1.00  0.00    -0.117 C  
BRANCH  42  43
HETATM   43  C   UNL     1      -8.375   7.831  70.267  1.00  0.00    -0.127 C  
HETATM   44  C   UNL     1      -8.414   8.646  71.559  1.00  0.00    -0.238 C  
ENDBRANCH  42  43
ENDBRANCH  12  42
TORSDOF 8
ENDMDL
MODEL       87
REMARK 921   NORMALIZED FREE ENERGY PREDICTED BY IDOCK:   -5.63 KCAL/MOL
REMARK 922        TOTAL FREE ENERGY PREDICTED BY IDOCK:  -10.25 KCAL/MOL
REMARK 923 INTER-LIGAND FREE ENERGY PREDICTED BY IDOCK:   -8.37 KCAL/MOL
REMARK 924 INTRA-LIGAND FREE ENERGY PREDICTED BY IDOCK:   -1.88 KCAL/MOL
REMARK 927      BINDING AFFINITY PREDICTED BY RF-SCORE:    0.00 PKD
ROOT
HETATM    1  C   UNL     1      -7.391  14.372  68.869  1.00  0.00    -0.127 C  
HETATM    2  C   UNL     1      -7.251  12.892  68.426  1.00  0.00    -0.113 A  
HETATM    3  C   UNL     1      -6.052  15.112  69.068  1.00  0.00    -0.098 C  
HETATM    4  C   UNL     1      -8.414  15.215  68.042  1.00  0.00    -0.148 C  
HETATM    5  C   UNL     1      -5.137  14.537  70.137  1.00  0.00    -0.090 C  
HETATM    6  C   UNL     1      -7.283  12.487  67.078  1.00  0.00     0.019 A  
HETATM    7  C   UNL     1      -9.710  15.378  68.388  1.00  0.00    -0.211 C  
HETATM    8  O   UNL     1     -10.246  14.784  69.520  1.00  0.00    -0.352 OA 
HETATM    9  C   UNL     1     -10.774  16.008  67.469  1.00  0.00    -0.314 C  
HETATM   10  C   UNL     1      -7.298  11.123  66.710  1.00  0.00    -0.146 A  
HETATM   11  C   UNL     1      -7.196  10.138  67.681  1.00  0.00    -0.088 A  
HETATM   12  C   UNL     1     -10.272  16.647  66.175  1.00  0.00    -0.348 C  
HETATM   13  C   UNL     1      -7.955  15.887  66.795  1.00  0.00    -0.252 C  
HETATM   14  H   UNL     1     -11.157  14.898  69.763  1.00  0.00     0.000 HD 
HETATM   15  O   UNL     1      -8.857  16.446  65.961  1.00  0.00    -0.373 OA 
HETATM   16  C   UNL     1      -7.116  11.865  69.387  1.00  0.00     0.055 A  
HETATM   17  O   UNL     1      -6.770  15.926  66.489  1.00  0.00    -0.084 OA 
HETATM   18  C   UNL     1      -7.069  10.508  69.017  1.00  0.00    -0.081 A  
ENDROOT
BRANCH  10  19
HETATM   19  N   UNL     1      -7.533  10.752  65.346  1.00  0.00    -0.347 N  
HETATM   20  H   UNL     1      -8.312  11.157  64.827  1.00  0.00     0.000 HD 
BRANCH  19  21
HETATM   21  S   UNL     1      -6.481   9.614  64.597  1.00  0.00    -0.106 S  
HETATM   22  O   UNL     1      -6.687   9.738  63.164  1.00  0.00    -0.106 OA 
HETATM   23  O   UNL     1      -5.161   9.797  65.168  1.00  0.00    -0.041 OA 
BRANCH  21  24
HETATM   24  C   UNL     1      -7.039   7.994  65.099  1.00  0.00    -0.063 A  
HETATM   25  C   UNL     1      -6.857   5.756  65.997  1.00  0.00    -0.058 A  
HETATM   26  N   UNL     1      -8.355   7.942  65.199  1.00  0.00    -0.142 NA 
HETATM   27  F   UNL     1      -8.371   3.297  65.826  1.00  0.00    -0.097 F  
HETATM   28  C   UNL     1      -8.802   4.334  66.607  1.00  0.00    -0.116 C  
HETATM   29  F   UNL     1      -8.366   4.043  67.869  1.00  0.00    -0.091 F  
HETATM   30  C   UNL     1      -8.867   6.809  65.720  1.00  0.00    -0.069 A  
HETATM   31  F   UNL     1     -10.138   4.128  66.656  1.00  0.00    -0.236 F  
HETATM   32  C   UNL     1      -8.221   5.643  66.119  1.00  0.00    -0.110 A  
HETATM   33  C   UNL     1      -6.243   6.928  65.508  1.00  0.00    -0.039 A  
ENDBRANCH  21  24
ENDBRANCH  19  21
ENDBRANCH  10  19
BRANCH  12  34
HETATM   34  C   UNL     1     -10.518  18.144  66.417  1.00  0.00    -0.364 C  
BRANCH  34  35
HETATM   35  C   UNL     1     -10.214  18.520  67.885  1.00  0.00    -0.415 C  
BRANCH  35  36
HETATM   36  C   UNL     1      -8.873  19.142  68.005  1.00  0.00    -0.353 A  
HETATM   37  C   UNL     1      -6.802  19.480  69.162  1.00  0.00    -0.381 A  
HETATM   38  C   UNL     1      -8.029  18.821  69.064  1.00  0.00    -0.193 A  
HETATM   39  C   UNL     1      -7.280  20.716  67.144  1.00  0.00    -0.389 A  
HETATM   40  C   UNL     1      -6.428  20.413  68.207  1.00  0.00    -0.344 A  
HETATM   41  C   UNL     1      -8.505  20.075  67.041  1.00  0.00    -0.390 A  
ENDBRANCH  35  36
ENDBRANCH  34  35
ENDBRANCH  12  34
BRANCH  12  42
HETATM   42  C   UNL     1     -10.993  16.188  64.810  1.00  0.00    -0.330 C  
BRANCH  42  43
HETATM   43  C   UNL     1     -11.420  14.705  64.728  1.00  0.00    -0.410 C  
HETATM   44  C   UNL     1     -10.411  13.557  64.733  1.00  0.00    -0.430 C  
ENDBRANCH  42  43
ENDBRANCH  12  42
TORSDOF 8
ENDMDL
MODEL       88
REMARK 921   NORMALIZED FREE ENERGY PREDICTED BY IDOCK:   -5.58 KCAL/MOL
REMARK 922        TOTAL FREE ENERGY PREDICTED BY IDOCK:  -10.19 KCAL/MOL
REMARK 923 INTER-LIGAND FREE ENERGY PREDICTED BY IDOCK:   -8.54 KCAL/MOL
REMARK 924 INTRA-LIGAND FREE ENERGY PREDICTED BY IDOCK:   -1.64 KCAL/MOL
REMARK 927      BINDING AFFINITY PREDICTED BY RF-SCORE:    0.00 PKD
ROOT
HETATM    1  C   UNL     1      -8.234  10.331  66.729  1.00  0.00    -0.124 C  
HETATM    2  C   UNL     1      -8.735   9.336  67.810  1.00  0.00    -0.120 A  
HETATM    3  C   UNL     1      -9.173  10.489  65.516  1.00  0.00    -0.223 C  
HETATM    4  C   UNL     1      -7.741  11.708  67.279  1.00  0.00    -0.154 C  
HETATM    5  C   UNL     1      -9.417   9.225  64.707  1.00  0.00     0.024 C  
HETATM    6  C   UNL     1      -9.477   9.736  68.938  1.00  0.00    -0.161 A  
HETATM    7  C   UNL     1      -6.455  11.979  67.593  1.00  0.00    -0.108 C  
HETATM    8  O   UNL     1      -5.455  11.028  67.463  1.00  0.00    -0.040 OA 
HETATM    9  C   UNL     1      -6.001  13.244  68.345  1.00  0.00    -0.090 C  
HETATM   10  C   UNL     1      -9.796   8.834  69.977  1.00  0.00    -0.178 A  
HETATM   11  C   UNL     1      -9.455   7.494  69.867  1.00  0.00    -0.160 A  
HETATM   12  C   UNL     1      -7.056  14.326  68.571  1.00  0.00    -0.105 C  
HETATM   13  C   UNL     1      -8.733  12.802  67.476  1.00  0.00    -0.185 C  
HETATM   14  H   UNL     1      -4.551  11.219  67.683  1.00  0.00     0.000 HD 
HETATM   15  O   UNL     1      -8.375  13.924  68.136  1.00  0.00    -0.145 OA 
HETATM   16  C   UNL     1      -8.431   7.960  67.715  1.00  0.00    -0.125 A  
HETATM   17  O   UNL     1      -9.885  12.702  67.074  1.00  0.00    -0.218 OA 
HETATM   18  C   UNL     1      -8.802   7.049  68.720  1.00  0.00    -0.129 A  
ENDROOT
BRANCH  10  19
HETATM   19  N   UNL     1     -10.373   9.320  71.195  1.00  0.00    -0.308 N  
HETATM   20  H   UNL     1      -9.780   9.550  71.993  1.00  0.00     0.000 HD 
BRANCH  19  21
HETATM   21  S   UNL     1     -12.081   9.510  71.293  1.00  0.00    -0.384 S  
HETATM   22  O   UNL     1     -12.629   8.999  70.048  1.00  0.00     0.713 OA 
HETATM   23  O   UNL     1     -12.509   8.959  72.565  1.00  0.00    -0.361 OA 
BRANCH  21  24
HETATM   24  C   UNL     1     -12.398  11.266  71.360  1.00  0.00    -0.203 A  
HETATM   25  C   UNL     1     -12.494  13.543  70.553  1.00  0.00    -0.373 A  
HETATM   26  N   UNL     1     -13.169  11.581  72.385  1.00  0.00    -0.092 NA 
HETATM   27  F   UNL     1     -12.574  16.185  71.729  1.00  0.00    -0.480 F  
HETATM   28  C   UNL     1     -13.686  15.387  71.715  1.00  0.00    -0.511 C  
HETATM   29  F   UNL     1     -14.408  15.789  70.627  1.00  0.00    -0.112 F  
HETATM   30  C   UNL     1     -13.593  12.860  72.437  1.00  0.00    -0.478 A  
HETATM   31  F   UNL     1     -14.388  15.849  72.775  1.00  0.00    -0.663 F  
HETATM   32  C   UNL     1     -13.293  13.931  71.600  1.00  0.00    -0.437 A  
HETATM   33  C   UNL     1     -12.049  12.212  70.402  1.00  0.00    -0.395 A  
ENDBRANCH  21  24
ENDBRANCH  19  21
ENDBRANCH  10  19
BRANCH  12  34
HETATM   34  C   UNL     1      -6.572  15.468  67.664  1.00  0.00    -0.195 C  
BRANCH  34  35
HETATM   35  C   UNL     1      -6.578  16.813  68.425  1.00  0.00    -0.149 C  
BRANCH  35  36
HETATM   36  C   UNL     1      -7.629  17.716  67.897  1.00  0.00    -0.210 A  
HETATM   37  C   UNL     1      -8.427  19.890  67.282  1.00  0.00    -0.375 A  
HETATM   38  C   UNL     1      -7.384  19.074  67.727  1.00  0.00    -0.261 A  
HETATM   39  C   UNL     1      -9.898  17.978  67.161  1.00  0.00    -0.316 A  
HETATM   40  C   UNL     1      -9.670  19.346  66.996  1.00  0.00    -0.425 A  
HETATM   41  C   UNL     1      -8.871  17.161  67.609  1.00  0.00    -0.218 A  
ENDBRANCH  35  36
ENDBRANCH  34  35
ENDBRANCH  12  34
BRANCH  12  42
HETATM   42  C   UNL     1      -7.235  14.863  70.079  1.00  0.00     0.009 C  
BRANCH  42  43
HETATM   43  C   UNL     1      -5.957  14.901  70.948  1.00  0.00    -0.013 C  
HETATM   44  C   UNL     1      -5.715  13.923  72.096  1.00  0.00    -0.066 C  
ENDBRANCH  42  43
ENDBRANCH  12  42
TORSDOF 8
ENDMDL
MODEL       89
REMARK 921   NORMALIZED FREE ENERGY PREDICTED BY IDOCK:   -5.49 KCAL/MOL
REMARK 922        TOTAL FREE ENERGY PREDICTED BY IDOCK:  -10.06 KCAL/MOL
REMARK 923 INTER-LIGAND FREE ENERGY PREDICTED BY IDOCK:   -7.99 KCAL/MOL
REMARK 924 INTRA-LIGAND FREE ENERGY PREDICTED BY IDOCK:   -2.06 KCAL/MOL
REMARK 927      BINDING AFFINITY PREDICTED BY RF-SCORE:    0.00 PKD
ROOT
HETATM    1  C   UNL     1      -9.897   9.803  65.524  1.00  0.00    -0.378 C  
HETATM    2  C   UNL     1      -9.773  10.963  66.548  1.00  0.00    -0.235 A  
HETATM    3  C   UNL     1      -9.533  10.186  64.074  1.00  0.00    -0.341 C  
HETATM    4  C   UNL     1      -9.232   8.460  65.965  1.00  0.00    -0.247 C  
HETATM    5  C   UNL     1     -10.395  11.269  63.446  1.00  0.00    -0.449 C  
HETATM    6  C   UNL     1      -8.616  11.188  67.318  1.00  0.00    -0.140 A  
HETATM    7  C   UNL     1      -9.890   7.468  66.605  1.00  0.00    -0.204 C  
HETATM    8  O   UNL     1     -11.230   7.577  66.940  1.00  0.00    -0.435 OA 
HETATM    9  C   UNL     1      -9.198   6.249  67.244  1.00  0.00    -0.119 C  
HETATM   10  C   UNL     1      -8.582  12.159  68.344  1.00  0.00    -0.141 A  
HETATM   11  C   UNL     1      -9.676  12.982  68.562  1.00  0.00    -0.132 A  
HETATM   12  C   UNL     1      -7.706   6.079  66.960  1.00  0.00    -0.101 C  
HETATM   13  C   UNL     1      -7.789   8.239  65.671  1.00  0.00    -0.104 C  
HETATM   14  H   UNL     1     -11.693   6.879  67.390  1.00  0.00     0.000 HD 
HETATM   15  O   UNL     1      -7.145   7.185  66.218  1.00  0.00    -0.070 OA 
HETATM   16  C   UNL     1     -10.858  11.839  66.775  1.00  0.00    -0.312 A  
HETATM   17  O   UNL     1      -7.155   9.008  64.961  1.00  0.00    -0.085 OA 
HETATM   18  C   UNL     1     -10.802  12.847  67.754  1.00  0.00    -0.248 A  
ENDROOT
BRANCH  10  19
HETATM   19  N   UNL     1      -7.460  12.220  69.234  1.00  0.00    -0.328 N  
HETATM   20  H   UNL     1      -7.104  13.121  69.554  1.00  0.00     0.000 HD 
BRANCH  19  21
HETATM   21  S   UNL     1      -6.724  10.754  69.754  1.00  0.00    -0.141 S  
HETATM   22  O   UNL     1      -6.243  10.083  68.558  1.00  0.00    -0.045 OA 
HETATM   23  O   UNL     1      -5.809  11.082  70.829  1.00  0.00    -0.237 OA 
BRANCH  21  24
HETATM   24  C   UNL     1      -8.020   9.755  70.467  1.00  0.00    -0.022 A  
HETATM   25  C   UNL     1     -10.026   8.405  70.503  1.00  0.00    -0.205 A  
HETATM   26  N   UNL     1      -7.702   9.340  71.680  1.00  0.00    -0.299 NA 
HETATM   27  F   UNL     1     -11.985   7.610  72.478  1.00  0.00    -0.317 F  
HETATM   28  C   UNL     1     -10.747   7.028  72.441  1.00  0.00    -0.231 C  
HETATM   29  F   UNL     1     -10.911   5.871  71.732  1.00  0.00    -0.267 F  
HETATM   30  C   UNL     1      -8.545   8.453  72.244  1.00  0.00    -0.197 A  
HETATM   31  F   UNL     1     -10.580   6.619  73.720  1.00  0.00    -0.273 F  
HETATM   32  C   UNL     1      -9.750   7.943  71.767  1.00  0.00    -0.219 A  
HETATM   33  C   UNL     1      -9.167   9.296  69.826  1.00  0.00    -0.191 A  
ENDBRANCH  21  24
ENDBRANCH  19  21
ENDBRANCH  10  19
BRANCH  12  34
HETATM   34  C   UNL     1      -7.669   4.827  66.069  1.00  0.00    -0.091 C  
BRANCH  34  35
HETATM   35  C   UNL     1      -8.296   5.118  64.688  1.00  0.00    -0.140 C  
BRANCH  35  36
HETATM   36  C   UNL     1      -8.868   3.885  64.095  1.00  0.00    -0.117 A  
HETATM   37  C   UNL     1      -8.632   1.713  63.112  1.00  0.00    -0.072 A  
HETATM   38  C   UNL     1      -8.048   2.826  63.719  1.00  0.00    -0.082 A  
HETATM   39  C   UNL     1     -10.815   2.725  63.306  1.00  0.00    -0.230 A  
HETATM   40  C   UNL     1     -10.003   1.660  62.913  1.00  0.00    -0.100 A  
HETATM   41  C   UNL     1     -10.245   3.839  63.903  1.00  0.00    -0.225 A  
ENDBRANCH  35  36
ENDBRANCH  34  35
ENDBRANCH  12  34
BRANCH  12  42
HETATM   42  C   UNL     1      -6.743   5.872  68.234  1.00  0.00    -0.057 C  
BRANCH  42  43
HETATM   43  C   UNL     1      -7.373   6.144  69.619  1.00  0.00    -0.079 C  
HETATM   44  C   UNL     1      -7.996   5.039  70.471  1.00  0.00    -0.081 C  
ENDBRANCH  42  43
ENDBRANCH  12  42
TORSDOF 8
ENDMDL
MODEL       90
REMARK 921   NORMALIZED FREE ENERGY PREDICTED BY IDOCK:   -5.43 KCAL/MOL
REMARK 922        TOTAL FREE ENERGY PREDICTED BY IDOCK:   -9.97 KCAL/MOL
REMARK 923 INTER-LIGAND FREE ENERGY PREDICTED BY IDOCK:   -8.34 KCAL/MOL
REMARK 924 INTRA-LIGAND FREE ENERGY PREDICTED BY IDOCK:   -1.63 KCAL/MOL
REMARK 927      BINDING AFFINITY PREDICTED BY RF-SCORE:    0.00 PKD
ROOT
HETATM    1  C   UNL     1      -8.616   6.281  67.273  1.00  0.00    -0.107 C  
HETATM    2  C   UNL     1      -8.251   7.518  66.409  1.00  0.00    -0.122 A  
HETATM    3  C   UNL     1      -7.435   5.334  67.569  1.00  0.00    -0.084 C  
HETATM    4  C   UNL     1      -9.456   6.595  68.553  1.00  0.00    -0.123 C  
HETATM    5  C   UNL     1      -6.783   4.700  66.351  1.00  0.00    -0.053 C  
HETATM    6  C   UNL     1      -7.904   8.765  66.961  1.00  0.00    -0.095 A  
HETATM    7  C   UNL     1     -10.806   6.558  68.596  1.00  0.00    -0.295 C  
HETATM    8  O   UNL     1     -11.565   6.247  67.479  1.00  0.00    -0.584 OA 
HETATM    9  C   UNL     1     -11.644   7.085  69.776  1.00  0.00    -0.122 C  
HETATM   10  C   UNL     1      -7.718   9.911  66.154  1.00  0.00    -0.107 A  
HETATM   11  C   UNL     1      -7.791   9.810  64.773  1.00  0.00    -0.134 A  
HETATM   12  C   UNL     1     -10.878   7.494  71.034  1.00  0.00    -0.235 C  
HETATM   13  C   UNL     1      -8.746   6.959  69.811  1.00  0.00    -0.141 C  
HETATM   14  H   UNL     1     -12.515   6.221  67.510  1.00  0.00     0.000 HD 
HETATM   15  O   UNL     1      -9.445   7.431  70.865  1.00  0.00    -0.165 OA 
HETATM   16  C   UNL     1      -8.287   7.443  64.999  1.00  0.00    -0.057 A  
HETATM   17  O   UNL     1      -7.529   6.866  69.908  1.00  0.00    -0.089 OA 
HETATM   18  C   UNL     1      -8.041   8.569  64.192  1.00  0.00    -0.154 A  
ENDROOT
BRANCH  10  19
HETATM   19  N   UNL     1      -7.564  11.198  66.763  1.00  0.00    -0.140 N  
HETATM   20  H   UNL     1      -6.668  11.684  66.726  1.00  0.00     0.000 HD 
BRANCH  19  21
HETATM   21  S   UNL     1      -8.913  11.913  67.558  1.00  0.00    -0.179 S  
HETATM   22  O   UNL     1     -10.065  11.694  66.701  1.00  0.00    -0.203 OA 
HETATM   23  O   UNL     1      -8.916  11.437  68.928  1.00  0.00    -0.122 OA 
BRANCH  21  24
HETATM   24  C   UNL     1      -8.597  13.669  67.623  1.00  0.00    -0.185 A  
HETATM   25  C   UNL     1      -7.494  15.709  68.310  1.00  0.00    -0.116 A  
HETATM   26  N   UNL     1      -9.186  14.306  66.628  1.00  0.00    -0.266 NA 
HETATM   27  F   UNL     1      -8.152  18.525  68.391  1.00  0.00    -0.290 F  
HETATM   28  C   UNL     1      -7.825  17.912  67.212  1.00  0.00    -0.213 C  
HETATM   29  F   UNL     1      -6.496  18.171  67.025  1.00  0.00    -0.171 F  
HETATM   30  C   UNL     1      -8.884  15.614  66.498  1.00  0.00    -0.310 A  
HETATM   31  F   UNL     1      -8.452  18.689  66.297  1.00  0.00    -0.281 F  
HETATM   32  C   UNL     1      -8.083  16.425  67.297  1.00  0.00    -0.198 A  
HETATM   33  C   UNL     1      -7.722  14.327  68.482  1.00  0.00    -0.137 A  
ENDBRANCH  21  24
ENDBRANCH  19  21
ENDBRANCH  10  19
BRANCH  12  34
HETATM   34  C   UNL     1     -11.295   6.420  72.051  1.00  0.00    -0.338 C  
BRANCH  34  35
HETATM   35  C   UNL     1     -10.103   6.020  72.947  1.00  0.00    -0.198 C  
BRANCH  35  36
HETATM   36  C   UNL     1      -9.962   4.545  73.016  1.00  0.00    -0.190 A  
HETATM   37  C   UNL     1      -9.794   2.393  71.975  1.00  0.00    -0.223 A  
HETATM   38  C   UNL     1      -9.865   3.782  71.856  1.00  0.00    -0.248 A  
HETATM   39  C   UNL     1      -9.881   2.574  74.381  1.00  0.00    -0.144 A  
HETATM   40  C   UNL     1      -9.796   1.795  73.226  1.00  0.00    -0.133 A  
HETATM   41  C   UNL     1      -9.961   3.954  74.274  1.00  0.00    -0.189 A  
ENDBRANCH  35  36
ENDBRANCH  34  35
ENDBRANCH  12  34
BRANCH  12  42
HETATM   42  C   UNL     1     -11.187   8.959  71.629  1.00  0.00    -0.415 C  
BRANCH  42  43
HETATM   43  C   UNL     1     -12.473   9.647  71.118  1.00  0.00    -0.421 C  
HETATM   44  C   UNL     1     -13.624  10.032  72.046  1.00  0.00    -0.366 C  
ENDBRANCH  42  43
ENDBRANCH  12  42
TORSDOF 8
ENDMDL
MODEL       91
REMARK 921   NORMALIZED FREE ENERGY PREDICTED BY IDOCK:   -5.40 KCAL/MOL
REMARK 922        TOTAL FREE ENERGY PREDICTED BY IDOCK:   -9.91 KCAL/MOL
REMARK 923 INTER-LIGAND FREE ENERGY PREDICTED BY IDOCK:   -9.16 KCAL/MOL
REMARK 924 INTRA-LIGAND FREE ENERGY PREDICTED BY IDOCK:   -0.75 KCAL/MOL
REMARK 927      BINDING AFFINITY PREDICTED BY RF-SCORE:    0.00 PKD
ROOT
HETATM    1  C   UNL     1      -7.802  11.948  67.669  1.00  0.00    -0.142 C  
HETATM    2  C   UNL     1      -7.832  10.672  68.553  1.00  0.00    -0.115 A  
HETATM    3  C   UNL     1      -7.689  11.676  66.155  1.00  0.00     0.242 C  
HETATM    4  C   UNL     1      -8.904  13.005  67.999  1.00  0.00    -0.191 C  
HETATM    5  C   UNL     1      -6.433  10.944  65.712  1.00  0.00    -0.022 C  
HETATM    6  C   UNL     1      -9.026  10.058  68.976  1.00  0.00    -0.163 A  
HETATM    7  C   UNL     1      -8.725  14.041  68.848  1.00  0.00     0.063 C  
HETATM    8  O   UNL     1      -7.528  14.239  69.517  1.00  0.00    -0.336 OA 
HETATM    9  C   UNL     1      -9.864  14.946  69.354  1.00  0.00    -0.127 C  
HETATM   10  C   UNL     1      -9.027   8.986  69.896  1.00  0.00    -0.164 A  
HETATM   11  C   UNL     1      -7.828   8.452  70.345  1.00  0.00    -0.090 A  
HETATM   12  C   UNL     1     -11.232  14.761  68.698  1.00  0.00    -0.273 C  
HETATM   13  C   UNL     1     -10.239  12.882  67.350  1.00  0.00    -0.230 C  
HETATM   14  H   UNL     1      -7.402  14.967  70.115  1.00  0.00     0.000 HD 
HETATM   15  O   UNL     1     -11.265  13.654  67.770  1.00  0.00    -0.266 OA 
HETATM   16  C   UNL     1      -6.629  10.084  69.004  1.00  0.00    -0.052 A  
HETATM   17  O   UNL     1     -10.443  12.075  66.453  1.00  0.00    -0.224 OA 
HETATM   18  C   UNL     1      -6.628   8.977  69.873  1.00  0.00    -0.042 A  
ENDROOT
BRANCH  10  19
HETATM   19  N   UNL     1     -10.262   8.522  70.454  1.00  0.00    -0.191 N  
HETATM   20  H   UNL     1     -11.032   8.245  69.845  1.00  0.00     0.000 HD 
BRANCH  19  21
HETATM   21  S   UNL     1     -10.428   8.439  72.165  1.00  0.00    -0.342 S  
HETATM   22  O   UNL     1      -9.240   9.057  72.729  1.00  0.00    -0.132 OA 
HETATM   23  O   UNL     1     -11.746   8.941  72.501  1.00  0.00    -0.276 OA 
BRANCH  21  24
HETATM   24  C   UNL     1     -10.411   6.707  72.598  1.00  0.00    -0.196 A  
HETATM   25  C   UNL     1     -10.644   4.766  74.021  1.00  0.00    -0.351 A  
HETATM   26  N   UNL     1     -10.408   5.938  71.524  1.00  0.00    -0.215 NA 
HETATM   27  F   UNL     1      -9.683   2.037  74.021  1.00  0.00    -0.089 F  
HETATM   28  C   UNL     1     -10.698   2.425  73.190  1.00  0.00    -0.163 C  
HETATM   29  F   UNL     1     -11.851   2.078  73.837  1.00  0.00    -0.274 F  
HETATM   30  C   UNL     1     -10.551   4.615  71.741  1.00  0.00    -0.008 A  
HETATM   31  F   UNL     1     -10.601   1.534  72.175  1.00  0.00    -0.224 F  
HETATM   32  C   UNL     1     -10.642   3.916  72.942  1.00  0.00    -0.233 A  
HETATM   33  C   UNL     1     -10.549   6.165  73.873  1.00  0.00    -0.230 A  
ENDBRANCH  21  24
ENDBRANCH  19  21
ENDBRANCH  10  19
BRANCH  12  34
HETATM   34  C   UNL     1     -11.410  16.065  67.906  1.00  0.00    -0.218 C  
BRANCH  34  35
HETATM   35  C   UNL     1     -10.193  16.319  66.988  1.00  0.00    -0.280 C  
BRANCH  35  36
HETATM   36  C   UNL     1      -9.855  17.763  66.943  1.00  0.00    -0.312 A  
HETATM   37  C   UNL     1      -8.357  19.562  66.436  1.00  0.00    -0.364 A  
HETATM   38  C   UNL     1      -8.651  18.198  66.399  1.00  0.00    -0.251 A  
HETATM   39  C   UNL     1     -10.470  20.011  67.514  1.00  0.00    -0.487 A  
HETATM   40  C   UNL     1      -9.260  20.461  66.983  1.00  0.00    -0.483 A  
HETATM   41  C   UNL     1     -10.769  18.657  67.490  1.00  0.00    -0.447 A  
ENDBRANCH  35  36
ENDBRANCH  34  35
ENDBRANCH  12  34
BRANCH  12  42
HETATM   42  C   UNL     1     -12.487  14.544  69.684  1.00  0.00    -0.208 C  
BRANCH  42  43
HETATM   43  C   UNL     1     -12.512  15.415  70.961  1.00  0.00    -0.469 C  
HETATM   44  C   UNL     1     -13.659  15.362  71.969  1.00  0.00    -0.588 C  
ENDBRANCH  42  43
ENDBRANCH  12  42
TORSDOF 8
ENDMDL
MODEL       92
REMARK 921   NORMALIZED FREE ENERGY PREDICTED BY IDOCK:   -5.36 KCAL/MOL
REMARK 922        TOTAL FREE ENERGY PREDICTED BY IDOCK:   -9.87 KCAL/MOL
REMARK 923 INTER-LIGAND FREE ENERGY PREDICTED BY IDOCK:   -8.51 KCAL/MOL
REMARK 924 INTRA-LIGAND FREE ENERGY PREDICTED BY IDOCK:   -1.36 KCAL/MOL
REMARK 927      BINDING AFFINITY PREDICTED BY RF-SCORE:    0.00 PKD
ROOT
HETATM    1  C   UNL     1      -7.329   8.574  68.736  1.00  0.00    -0.090 C  
HETATM    2  C   UNL     1      -7.301   8.052  70.197  1.00  0.00    -0.061 A  
HETATM    3  C   UNL     1      -7.253   7.472  67.659  1.00  0.00    -0.090 C  
HETATM    4  C   UNL     1      -8.448   9.621  68.431  1.00  0.00    -0.118 C  
HETATM    5  C   UNL     1      -5.992   6.624  67.677  1.00  0.00    -0.024 C  
HETATM    6  C   UNL     1      -8.465   7.793  70.944  1.00  0.00    -0.127 A  
HETATM    7  C   UNL     1      -8.271  10.958  68.512  1.00  0.00    -0.140 C  
HETATM    8  O   UNL     1      -7.061  11.514  68.894  1.00  0.00    -0.097 OA 
HETATM    9  C   UNL     1      -9.418  11.984  68.440  1.00  0.00    -0.181 C  
HETATM   10  C   UNL     1      -8.412   7.458  72.315  1.00  0.00    -0.112 A  
HETATM   11  C   UNL     1      -7.188   7.290  72.944  1.00  0.00    -0.075 A  
HETATM   12  C   UNL     1     -10.799  11.446  68.068  1.00  0.00    -0.217 C  
HETATM   13  C   UNL     1      -9.798   9.138  68.026  1.00  0.00    -0.168 C  
HETATM   14  H   UNL     1      -6.936  12.454  68.950  1.00  0.00     0.000 HD 
HETATM   15  O   UNL     1     -10.830  10.005  67.958  1.00  0.00    -0.244 OA 
HETATM   16  C   UNL     1      -6.071   7.841  70.859  1.00  0.00    -0.034 A  
HETATM   17  O   UNL     1     -10.006   7.958  67.776  1.00  0.00    -0.155 OA 
HETATM   18  C   UNL     1      -6.015   7.447  72.208  1.00  0.00    -0.040 A  
ENDROOT
BRANCH  10  19
HETATM   19  N   UNL     1      -9.618   7.400  73.086  1.00  0.00    -0.188 N  
HETATM   20  H   UNL     1      -9.786   8.073  73.834  1.00  0.00     0.000 HD 
BRANCH  19  21
HETATM   21  S   UNL     1     -10.779   6.180  72.732  1.00  0.00    -0.253 S  
HETATM   22  O   UNL     1     -10.838   5.313  73.897  1.00  0.00    -0.287 OA 
HETATM   23  O   UNL     1     -11.975   6.842  72.248  1.00  0.00    -0.275 OA 
BRANCH  21  24
HETATM   24  C   UNL     1     -10.126   5.232  71.368  1.00  0.00    -0.203 A  
HETATM   25  C   UNL     1      -9.078   3.355  70.260  1.00  0.00    -0.201 A  
HETATM   26  N   UNL     1     -10.539   5.706  70.206  1.00  0.00    -0.290 NA 
HETATM   27  F   UNL     1      -7.678   2.902  67.769  1.00  0.00    -0.059 F  
HETATM   28  C   UNL     1      -9.040   3.031  67.797  1.00  0.00    -0.181 C  
HETATM   29  F   UNL     1      -9.525   1.754  67.821  1.00  0.00    -0.192 F  
HETATM   30  C   UNL     1     -10.228   4.969  69.120  1.00  0.00    -0.157 A  
HETATM   31  F   UNL     1      -9.316   3.473  66.548  1.00  0.00    -0.152 F  
HETATM   32  C   UNL     1      -9.476   3.801  69.024  1.00  0.00    -0.233 A  
HETATM   33  C   UNL     1      -9.407   4.043  71.447  1.00  0.00    -0.212 A  
ENDBRANCH  21  24
ENDBRANCH  19  21
ENDBRANCH  10  19
BRANCH  12  34
HETATM   34  C   UNL     1     -11.033  12.045  66.672  1.00  0.00    -0.330 C  
BRANCH  34  35
HETATM   35  C   UNL     1      -9.805  12.862  66.213  1.00  0.00    -0.273 C  
BRANCH  35  36
HETATM   36  C   UNL     1     -10.210  14.210  65.746  1.00  0.00    -0.347 A  
HETATM   37  C   UNL     1     -10.078  16.601  65.837  1.00  0.00    -0.341 A  
HETATM   38  C   UNL     1      -9.618  15.355  66.269  1.00  0.00    -0.342 A  
HETATM   39  C   UNL     1     -11.663  15.528  64.365  1.00  0.00    -0.243 A  
HETATM   40  C   UNL     1     -11.086  16.686  64.889  1.00  0.00    -0.137 A  
HETATM   41  C   UNL     1     -11.219  14.286  64.792  1.00  0.00    -0.387 A  
ENDBRANCH  35  36
ENDBRANCH  34  35
ENDBRANCH  12  34
BRANCH  12  42
HETATM   42  C   UNL     1     -12.019  11.839  69.043  1.00  0.00    -0.341 C  
BRANCH  42  43
HETATM   43  C   UNL     1     -11.918  11.337  70.502  1.00  0.00    -0.467 C  
HETATM   44  C   UNL     1     -11.895   9.852  70.860  1.00  0.00    -0.443 C  
ENDBRANCH  42  43
ENDBRANCH  12  42
TORSDOF 8
ENDMDL
MODEL       93
REMARK 921   NORMALIZED FREE ENERGY PREDICTED BY IDOCK:   -5.28 KCAL/MOL
REMARK 922        TOTAL FREE ENERGY PREDICTED BY IDOCK:   -9.74 KCAL/MOL
REMARK 923 INTER-LIGAND FREE ENERGY PREDICTED BY IDOCK:   -7.93 KCAL/MOL
REMARK 924 INTRA-LIGAND FREE ENERGY PREDICTED BY IDOCK:   -1.81 KCAL/MOL
REMARK 927      BINDING AFFINITY PREDICTED BY RF-SCORE:    0.00 PKD
ROOT
HETATM    1  C   UNL     1     -11.732  13.882  69.896  1.00  0.00    -0.358 C  
HETATM    2  C   UNL     1     -12.048  12.501  70.531  1.00  0.00    -0.361 A  
HETATM    3  C   UNL     1     -10.801  14.778  70.738  1.00  0.00     0.103 C  
HETATM    4  C   UNL     1     -11.305  13.833  68.393  1.00  0.00    -0.326 C  
HETATM    5  C   UNL     1     -11.329  15.165  72.110  1.00  0.00    -0.333 C  
HETATM    6  C   UNL     1     -11.315  11.336  70.241  1.00  0.00    -0.179 A  
HETATM    7  C   UNL     1     -12.165  13.972  67.361  1.00  0.00    -0.254 C  
HETATM    8  O   UNL     1     -13.524  14.155  67.560  1.00  0.00     2.141 OA 
HETATM    9  C   UNL     1     -11.796  13.698  65.890  1.00  0.00    -0.406 C  
HETATM   10  C   UNL     1     -11.712  10.067  70.720  1.00  0.00    -0.350 A  
HETATM   11  C   UNL     1     -12.801   9.953  71.571  1.00  0.00    -0.522 A  
HETATM   12  C   UNL     1     -10.319  13.441  65.589  1.00  0.00    -0.290 C  
HETATM   13  C   UNL     1      -9.869  13.624  68.058  1.00  0.00    -0.244 C  
HETATM   14  H   UNL     1     -14.129  14.253  66.834  1.00  0.00     0.000 HD 
HETATM   15  O   UNL     1      -9.506  13.375  66.782  1.00  0.00    -0.247 OA 
HETATM   16  C   UNL     1     -13.132  12.355  71.425  1.00  0.00    -0.299 A  
HETATM   17  O   UNL     1      -9.001  13.646  68.920  1.00  0.00     0.010 OA 
HETATM   18  C   UNL     1     -13.491  11.101  71.952  1.00  0.00    -0.284 A  
ENDROOT
BRANCH  10  19
HETATM   19  N   UNL     1     -11.061   8.884  70.241  1.00  0.00    -0.271 N  
HETATM   20  H   UNL     1     -11.457   8.355  69.464  1.00  0.00     0.000 HD 
BRANCH  19  21
HETATM   21  S   UNL     1      -9.602   8.369  70.995  1.00  0.00    -0.181 S  
HETATM   22  O   UNL     1      -8.581   8.360  69.961  1.00  0.00    -0.126 OA 
HETATM   23  O   UNL     1      -9.426   9.165  72.194  1.00  0.00    -0.291 OA 
BRANCH  21  24
HETATM   24  C   UNL     1      -9.868   6.686  71.527  1.00  0.00    -0.171 A  
HETATM   25  C   UNL     1      -9.266   4.443  72.202  1.00  0.00    -0.164 A  
HETATM   26  N   UNL     1     -11.097   6.507  71.977  1.00  0.00    -0.246 NA 
HETATM   27  F   UNL     1     -10.564   1.860  72.295  1.00  0.00    -0.227 F  
HETATM   28  C   UNL     1     -10.845   2.822  73.226  1.00  0.00    -0.170 C  
HETATM   29  F   UNL     1     -10.057   2.527  74.303  1.00  0.00    -0.121 F  
HETATM   30  C   UNL     1     -11.352   5.312  72.546  1.00  0.00    -0.179 A  
HETATM   31  F   UNL     1     -12.095   2.488  73.622  1.00  0.00    -0.306 F  
HETATM   32  C   UNL     1     -10.529   4.197  72.682  1.00  0.00    -0.228 A  
HETATM   33  C   UNL     1      -8.906   5.686  71.638  1.00  0.00    -0.140 A  
ENDBRANCH  21  24
ENDBRANCH  19  21
ENDBRANCH  10  19
BRANCH  12  34
HETATM   34  C   UNL     1      -9.912  14.689  64.791  1.00  0.00     0.074 C  
BRANCH  34  35
HETATM   35  C   UNL     1     -10.754  15.912  65.218  1.00  0.00    -0.442 C  
BRANCH  35  36
HETATM   36  C   UNL     1      -9.940  16.863  66.014  1.00  0.00    -0.313 A  
HETATM   37  C   UNL     1      -7.847  17.610  66.910  1.00  0.00    -0.252 A  
HETATM   38  C   UNL     1      -8.559  16.724  66.099  1.00  0.00    -0.299 A  
HETATM   39  C   UNL     1      -9.893  18.754  67.490  1.00  0.00    -0.360 A  
HETATM   40  C   UNL     1      -8.508  18.619  67.594  1.00  0.00    -0.284 A  
HETATM   41  C   UNL     1     -10.610  17.874  66.694  1.00  0.00    -0.243 A  
ENDBRANCH  35  36
ENDBRANCH  34  35
ENDBRANCH  12  34
BRANCH  12  42
HETATM   42  C   UNL     1      -9.971  12.114  64.746  1.00  0.00    -0.224 C  
BRANCH  42  43
HETATM   43  C   UNL     1     -10.531  10.784  65.299  1.00  0.00    -0.282 C  
HETATM   44  C   UNL     1      -9.738   9.892  66.254  1.00  0.00    -0.281 C  
ENDBRANCH  42  43
ENDBRANCH  12  42
TORSDOF 8
ENDMDL
MODEL       94
REMARK 921   NORMALIZED FREE ENERGY PREDICTED BY IDOCK:   -5.27 KCAL/MOL
REMARK 922        TOTAL FREE ENERGY PREDICTED BY IDOCK:   -9.73 KCAL/MOL
REMARK 923 INTER-LIGAND FREE ENERGY PREDICTED BY IDOCK:   -8.29 KCAL/MOL
REMARK 924 INTRA-LIGAND FREE ENERGY PREDICTED BY IDOCK:   -1.44 KCAL/MOL
REMARK 927      BINDING AFFINITY PREDICTED BY RF-SCORE:    0.00 PKD
ROOT
HETATM    1  C   UNL     1     -11.679  14.108  69.831  1.00  0.00    -0.372 C  
HETATM    2  C   UNL     1     -12.097  12.771  70.497  1.00  0.00    -0.369 A  
HETATM    3  C   UNL     1     -10.686  14.953  70.654  1.00  0.00     0.031 C  
HETATM    4  C   UNL     1     -11.256  13.994  68.331  1.00  0.00    -0.292 C  
HETATM    5  C   UNL     1     -11.185  15.410  72.016  1.00  0.00    -0.362 C  
HETATM    6  C   UNL     1     -11.453  11.547  70.236  1.00  0.00    -0.192 A  
HETATM    7  C   UNL     1     -12.103  14.171  67.293  1.00  0.00    -0.372 C  
HETATM    8  O   UNL     1     -13.445  14.460  67.485  1.00  0.00     2.210 OA 
HETATM    9  C   UNL     1     -11.754  13.837  65.831  1.00  0.00    -0.370 C  
HETATM   10  C   UNL     1     -11.943  10.323  70.743  1.00  0.00    -0.360 A  
HETATM   11  C   UNL     1     -13.038  10.310  71.594  1.00  0.00    -0.553 A  
HETATM   12  C   UNL     1     -10.300  13.464  65.539  1.00  0.00    -0.295 C  
HETATM   13  C   UNL     1      -9.839  13.671  68.004  1.00  0.00    -0.244 C  
HETATM   14  H   UNL     1     -14.040  14.585  66.755  1.00  0.00     0.000 HD 
HETATM   15  O   UNL     1      -9.495  13.366  66.735  1.00  0.00    -0.247 OA 
HETATM   16  C   UNL     1     -13.191  12.726  71.392  1.00  0.00    -0.240 A  
HETATM   17  O   UNL     1      -8.972  13.648  68.868  1.00  0.00     0.010 OA 
HETATM   18  C   UNL     1     -13.642  11.515  71.947  1.00  0.00    -0.097 A  
ENDROOT
BRANCH  10  19
HETATM   19  N   UNL     1     -11.381   9.085  70.293  1.00  0.00    -0.390 N  
HETATM   20  H   UNL     1     -10.861   9.041  69.417  1.00  0.00     0.000 HD 
BRANCH  19  21
HETATM   21  S   UNL     1     -11.597   7.672  71.252  1.00  0.00    -0.284 S  
HETATM   22  O   UNL     1     -10.939   7.927  72.522  1.00  0.00    -0.292 OA 
HETATM   23  O   UNL     1     -13.004   7.326  71.210  1.00  0.00    -0.369 OA 
BRANCH  21  24
HETATM   24  C   UNL     1     -10.718   6.354  70.427  1.00  0.00    -0.262 A  
HETATM   25  C   UNL     1      -9.677   4.186  70.180  1.00  0.00    -0.278 A  
HETATM   26  N   UNL     1     -10.700   6.528  69.118  1.00  0.00    -0.248 NA 
HETATM   27  F   UNL     1      -7.691   2.997  68.446  1.00  0.00    -0.055 F  
HETATM   28  C   UNL     1      -8.967   3.217  68.005  1.00  0.00    -0.147 C  
HETATM   29  F   UNL     1      -9.618   2.027  68.168  1.00  0.00    -0.237 F  
HETATM   30  C   UNL     1     -10.195   5.511  68.391  1.00  0.00    -0.180 A  
HETATM   31  F   UNL     1      -8.798   3.329  66.667  1.00  0.00    -0.112 F  
HETATM   32  C   UNL     1      -9.626   4.313  68.814  1.00  0.00    -0.219 A  
HETATM   33  C   UNL     1     -10.235   5.184  71.006  1.00  0.00    -0.295 A  
ENDBRANCH  21  24
ENDBRANCH  19  21
ENDBRANCH  10  19
BRANCH  12  34
HETATM   34  C   UNL     1      -9.801  14.659  64.713  1.00  0.00     0.277 C  
BRANCH  34  35
HETATM   35  C   UNL     1     -10.573  15.944  65.086  1.00  0.00    -0.421 C  
BRANCH  35  36
HETATM   36  C   UNL     1      -9.855  16.708  66.135  1.00  0.00    -0.340 A  
HETATM   37  C   UNL     1      -7.842  17.383  67.246  1.00  0.00    -0.218 A  
HETATM   38  C   UNL     1      -8.465  16.694  66.203  1.00  0.00    -0.308 A  
HETATM   39  C   UNL     1      -9.989  18.098  68.086  1.00  0.00    -0.368 A  
HETATM   40  C   UNL     1      -8.596  18.083  68.174  1.00  0.00    -0.277 A  
HETATM   41  C   UNL     1     -10.619  17.411  67.059  1.00  0.00    -0.238 A  
ENDBRANCH  35  36
ENDBRANCH  34  35
ENDBRANCH  12  34
BRANCH  12  42
HETATM   42  C   UNL     1     -10.051  12.095  64.727  1.00  0.00    -0.276 C  
BRANCH  42  43
HETATM   43  C   UNL     1     -10.154  10.787  65.544  1.00  0.00    -0.335 C  
HETATM   44  C   UNL     1      -9.440   9.501  65.129  1.00  0.00    -0.305 C  
ENDBRANCH  42  43
ENDBRANCH  12  42
TORSDOF 8
ENDMDL
MODEL       95
REMARK 921   NORMALIZED FREE ENERGY PREDICTED BY IDOCK:   -5.23 KCAL/MOL
REMARK 922        TOTAL FREE ENERGY PREDICTED BY IDOCK:   -9.66 KCAL/MOL
REMARK 923 INTER-LIGAND FREE ENERGY PREDICTED BY IDOCK:   -8.26 KCAL/MOL
REMARK 924 INTRA-LIGAND FREE ENERGY PREDICTED BY IDOCK:   -1.41 KCAL/MOL
REMARK 927      BINDING AFFINITY PREDICTED BY RF-SCORE:    0.00 PKD
ROOT
HETATM    1  C   UNL     1      -7.159   9.587  67.153  1.00  0.00    -0.086 C  
HETATM    2  C   UNL     1      -7.950   9.854  65.845  1.00  0.00    -0.115 A  
HETATM    3  C   UNL     1      -6.231  10.740  67.589  1.00  0.00    -0.052 C  
HETATM    4  C   UNL     1      -8.013   9.035  68.339  1.00  0.00    -0.104 C  
HETATM    5  C   UNL     1      -5.127  11.099  66.609  1.00  0.00    -0.097 C  
HETATM    6  C   UNL     1      -9.255  10.381  65.830  1.00  0.00    -0.205 A  
HETATM    7  C   UNL     1      -8.171   7.720  68.607  1.00  0.00    -0.128 C  
HETATM    8  O   UNL     1      -7.587   6.739  67.822  1.00  0.00    -0.102 OA 
HETATM    9  C   UNL     1      -9.187   7.164  69.623  1.00  0.00    -0.146 C  
HETATM   10  C   UNL     1     -10.005  10.479  64.637  1.00  0.00    -0.347 A  
HETATM   11  C   UNL     1      -9.432  10.131  63.423  1.00  0.00    -0.308 A  
HETATM   12  C   UNL     1      -9.911   8.186  70.500  1.00  0.00    -0.186 C  
HETATM   13  C   UNL     1      -8.702   9.999  69.242  1.00  0.00    -0.177 C  
HETATM   14  H   UNL     1      -7.698   5.814  68.010  1.00  0.00     0.000 HD 
HETATM   15  O   UNL     1      -9.604   9.552  70.141  1.00  0.00    -0.216 OA 
HETATM   16  C   UNL     1      -7.385   9.539  64.589  1.00  0.00    -0.113 A  
HETATM   17  O   UNL     1      -8.491  11.203  69.174  1.00  0.00    -0.089 OA 
HETATM   18  C   UNL     1      -8.110   9.694  63.393  1.00  0.00    -0.151 A  
ENDROOT
BRANCH  10  19
HETATM   19  N   UNL     1     -11.393  10.831  64.690  1.00  0.00     0.302 N  
HETATM   20  H   UNL     1     -12.094  10.132  64.937  1.00  0.00     0.000 HD 
BRANCH  19  21
HETATM   21  S   UNL     1     -11.860  12.447  64.331  1.00  0.00    -0.405 S  
HETATM   22  O   UNL     1     -11.255  12.781  63.052  1.00  0.00    -0.142 OA 
HETATM   23  O   UNL     1     -13.296  12.537  64.509  1.00  0.00    -0.780 OA 
BRANCH  21  24
HETATM   24  C   UNL     1     -11.120  13.484  65.582  1.00  0.00    -0.289 A  
HETATM   25  C   UNL     1      -9.663  15.191  66.483  1.00  0.00    -0.290 A  
HETATM   26  N   UNL     1     -11.825  13.477  66.698  1.00  0.00    -0.385 NA 
HETATM   27  F   UNL     1      -8.550  15.848  69.071  1.00  0.00    -0.179 F  
HETATM   28  C   UNL     1      -9.858  16.124  68.777  1.00  0.00    -0.230 C  
HETATM   29  F   UNL     1      -9.873  17.435  68.389  1.00  0.00    -0.259 F  
HETATM   30  C   UNL     1     -11.436  14.347  67.652  1.00  0.00    -0.346 A  
HETATM   31  F   UNL     1     -10.437  16.128  70.000  1.00  0.00    -0.271 F  
HETATM   32  C   UNL     1     -10.355  15.223  67.668  1.00  0.00    -0.250 A  
HETATM   33  C   UNL     1     -10.037  14.344  65.418  1.00  0.00    -0.388 A  
ENDBRANCH  21  24
ENDBRANCH  19  21
ENDBRANCH  10  19
BRANCH  12  34
HETATM   34  C   UNL     1      -9.331   7.907  71.895  1.00  0.00    -0.204 C  
BRANCH  34  35
HETATM   35  C   UNL     1      -7.794   8.063  71.892  1.00  0.00    -0.127 C  
BRANCH  35  36
HETATM   36  C   UNL     1      -7.129   6.760  72.136  1.00  0.00    -0.075 A  
HETATM   37  C   UNL     1      -6.991   4.637  73.238  1.00  0.00    -0.073 A  
HETATM   38  C   UNL     1      -7.688   5.823  72.998  1.00  0.00    -0.100 A  
HETATM   39  C   UNL     1      -5.237   5.339  71.735  1.00  0.00    -0.005 A  
HETATM   40  C   UNL     1      -5.780   4.395  72.608  1.00  0.00    -0.011 A  
HETATM   41  C   UNL     1      -5.917   6.524  71.496  1.00  0.00    -0.036 A  
ENDBRANCH  35  36
ENDBRANCH  34  35
ENDBRANCH  12  34
BRANCH  12  42
HETATM   42  C   UNL     1     -11.518   8.093  70.547  1.00  0.00    -0.179 C  
BRANCH  42  43
HETATM   43  C   UNL     1     -12.236   9.123  71.450  1.00  0.00    -0.407 C  
HETATM   44  C   UNL     1     -12.319  10.607  71.098  1.00  0.00    -0.505 C  
ENDBRANCH  42  43
ENDBRANCH  12  42
TORSDOF 8
ENDMDL
MODEL       96
REMARK 921   NORMALIZED FREE ENERGY PREDICTED BY IDOCK:   -5.19 KCAL/MOL
REMARK 922        TOTAL FREE ENERGY PREDICTED BY IDOCK:   -9.61 KCAL/MOL
REMARK 923 INTER-LIGAND FREE ENERGY PREDICTED BY IDOCK:   -8.40 KCAL/MOL
REMARK 924 INTRA-LIGAND FREE ENERGY PREDICTED BY IDOCK:   -1.21 KCAL/MOL
REMARK 927      BINDING AFFINITY PREDICTED BY RF-SCORE:    0.00 PKD
ROOT
HETATM    1  C   UNL     1      -8.454  11.335  68.915  1.00  0.00    -0.062 C  
HETATM    2  C   UNL     1      -8.412   9.965  68.188  1.00  0.00    -0.114 A  
HETATM    3  C   UNL     1      -7.076  11.999  69.115  1.00  0.00    -0.032 C  
HETATM    4  C   UNL     1      -9.520  12.339  68.369  1.00  0.00    -0.175 C  
HETATM    5  C   UNL     1      -6.086  11.213  69.959  1.00  0.00    -0.134 C  
HETATM    6  C   UNL     1      -8.585   9.826  66.798  1.00  0.00    -0.133 A  
HETATM    7  C   UNL     1     -10.770  12.456  68.867  1.00  0.00    -0.164 C  
HETATM    8  O   UNL     1     -11.218  11.666  69.914  1.00  0.00    -0.457 OA 
HETATM    9  C   UNL     1     -11.892  13.269  68.194  1.00  0.00    -0.388 C  
HETATM   10  C   UNL     1      -8.686   8.559  66.183  1.00  0.00    -0.152 A  
HETATM   11  C   UNL     1      -8.529   7.404  66.934  1.00  0.00    -0.123 A  
HETATM   12  C   UNL     1     -11.492  14.136  67.000  1.00  0.00    -0.352 C  
HETATM   13  C   UNL     1      -9.156  13.229  67.232  1.00  0.00    -0.221 C  
HETATM   14  H   UNL     1     -12.097  11.748  70.264  1.00  0.00     0.000 HD 
HETATM   15  O   UNL     1     -10.112  13.953  66.612  1.00  0.00    -0.261 OA 
HETATM   16  C   UNL     1      -8.224   8.770  68.919  1.00  0.00    -0.118 A  
HETATM   17  O   UNL     1      -8.005  13.305  66.821  1.00  0.00     0.061 OA 
HETATM   18  C   UNL     1      -8.263   7.509  68.298  1.00  0.00    -0.125 A  
ENDROOT
BRANCH  10  19
HETATM   19  N   UNL     1      -9.062   8.460  64.804  1.00  0.00    -0.332 N  
HETATM   20  H   UNL     1     -10.035   8.584  64.523  1.00  0.00     0.000 HD 
BRANCH  19  21
HETATM   21  S   UNL     1      -7.849   8.128  63.629  1.00  0.00    -0.145 S  
HETATM   22  O   UNL     1      -8.434   8.424  62.332  1.00  0.00    -0.196 OA 
HETATM   23  O   UNL     1      -6.634   8.794  64.055  1.00  0.00    -0.078 OA 
BRANCH  21  24
HETATM   24  C   UNL     1      -7.529   6.373  63.704  1.00  0.00    -0.081 A  
HETATM   25  C   UNL     1      -7.585   4.067  62.981  1.00  0.00    -0.058 A  
HETATM   26  N   UNL     1      -6.584   6.090  64.583  1.00  0.00    -0.037 NA 
HETATM   27  F   UNL     1      -7.297   1.470  64.224  1.00  0.00    -0.046 F  
HETATM   28  C   UNL     1      -6.205   2.257  63.978  1.00  0.00    -0.014 C  
HETATM   29  F   UNL     1      -5.694   1.808  62.793  1.00  0.00    -0.006 F  
HETATM   30  C   UNL     1      -6.160   4.811  64.606  1.00  0.00    -0.029 A  
HETATM   31  F   UNL     1      -5.322   1.829  64.910  1.00  0.00    -0.004 F  
HETATM   32  C   UNL     1      -6.610   3.711  63.880  1.00  0.00    -0.038 A  
HETATM   33  C   UNL     1      -8.048   5.394  62.863  1.00  0.00    -0.101 A  
ENDBRANCH  21  24
ENDBRANCH  19  21
ENDBRANCH  10  19
BRANCH  12  34
HETATM   34  C   UNL     1     -11.659  15.563  67.545  1.00  0.00    -0.110 C  
BRANCH  34  35
HETATM   35  C   UNL     1     -10.411  15.994  68.347  1.00  0.00    -0.263 C  
BRANCH  35  36
HETATM   36  C   UNL     1     -10.002  17.374  67.990  1.00  0.00    -0.302 A  
HETATM   37  C   UNL     1      -8.751  19.376  68.402  1.00  0.00    -0.397 A  
HETATM   38  C   UNL     1      -9.057  18.058  68.748  1.00  0.00    -0.224 A  
HETATM   39  C   UNL     1     -10.299  19.272  66.553  1.00  0.00    -0.538 A  
HETATM   40  C   UNL     1      -9.362  19.975  67.311  1.00  0.00    -0.496 A  
HETATM   41  C   UNL     1     -10.617  17.966  66.892  1.00  0.00    -0.271 A  
ENDBRANCH  35  36
ENDBRANCH  34  35
ENDBRANCH  12  34
BRANCH  12  42
HETATM   42  C   UNL     1     -12.355  13.960  65.653  1.00  0.00    -0.511 C  
BRANCH  42  43
HETATM   43  C   UNL     1     -12.294  12.570  64.977  1.00  0.00    -0.522 C  
HETATM   44  C   UNL     1     -12.329  12.392  63.460  1.00  0.00    -0.648 C  
ENDBRANCH  42  43
ENDBRANCH  12  42
TORSDOF 8
ENDMDL
MODEL       97
REMARK 921   NORMALIZED FREE ENERGY PREDICTED BY IDOCK:   -5.11 KCAL/MOL
REMARK 922        TOTAL FREE ENERGY PREDICTED BY IDOCK:   -9.50 KCAL/MOL
REMARK 923 INTER-LIGAND FREE ENERGY PREDICTED BY IDOCK:   -8.65 KCAL/MOL
REMARK 924 INTRA-LIGAND FREE ENERGY PREDICTED BY IDOCK:   -0.85 KCAL/MOL
REMARK 927      BINDING AFFINITY PREDICTED BY RF-SCORE:    0.00 PKD
ROOT
HETATM    1  C   UNL     1      -9.685   9.473  65.397  1.00  0.00    -0.314 C  
HETATM    2  C   UNL     1     -10.319  10.815  65.849  1.00  0.00    -0.302 A  
HETATM    3  C   UNL     1      -8.613   9.607  64.296  1.00  0.00    -0.207 C  
HETATM    4  C   UNL     1      -9.223   8.537  66.560  1.00  0.00    -0.239 C  
HETATM    5  C   UNL     1      -9.095  10.198  62.981  1.00  0.00    -0.296 C  
HETATM    6  C   UNL     1      -9.848  11.555  66.950  1.00  0.00    -0.220 A  
HETATM    7  C   UNL     1      -9.993   7.565  67.097  1.00  0.00    -0.220 C  
HETATM    8  O   UNL     1     -11.285   7.329  66.656  1.00  0.00    -0.392 OA 
HETATM    9  C   UNL     1      -9.637   6.798  68.384  1.00  0.00    -0.125 C  
HETATM   10  C   UNL     1     -10.531  12.697  67.426  1.00  0.00    -0.224 A  
HETATM   11  C   UNL     1     -11.649  13.170  66.757  1.00  0.00    -0.414 A  
HETATM   12  C   UNL     1      -8.243   7.036  68.963  1.00  0.00    -0.125 C  
HETATM   13  C   UNL     1      -7.856   8.711  67.126  1.00  0.00    -0.097 C  
HETATM   14  H   UNL     1     -11.827   6.645  67.033  1.00  0.00     0.000 HD 
HETATM   15  O   UNL     1      -7.509   8.060  68.257  1.00  0.00    -0.096 OA 
HETATM   16  C   UNL     1     -11.442  11.342  65.172  1.00  0.00     0.006 A  
HETATM   17  O   UNL     1      -7.037   9.455  66.603  1.00  0.00    -0.084 OA 
HETATM   18  C   UNL     1     -12.086  12.514  65.609  1.00  0.00    -0.464 A  
ENDROOT
BRANCH  10  19
HETATM   19  N   UNL     1     -10.137  13.302  68.663  1.00  0.00    -0.372 N  
HETATM   20  H   UNL     1      -9.447  12.850  69.264  1.00  0.00     0.000 HD 
BRANCH  19  21
HETATM   21  S   UNL     1     -10.844  14.803  69.123  1.00  0.00    -0.266 S  
HETATM   22  O   UNL     1     -12.205  14.794  68.614  1.00  0.00    -0.206 OA 
HETATM   23  O   UNL     1     -10.591  14.990  70.538  1.00  0.00    -0.153 OA 
BRANCH  21  24
HETATM   24  C   UNL     1      -9.939  16.080  68.264  1.00  0.00    -0.220 A  
HETATM   25  C   UNL     1      -9.581  17.881  66.691  1.00  0.00    -0.311 A  
HETATM   26  N   UNL     1      -8.818  16.386  68.892  1.00  0.00    -0.252 NA 
HETATM   27  F   UNL     1      -7.310  19.105  65.383  1.00  0.00    -0.276 F  
HETATM   28  C   UNL     1      -7.589  19.365  66.697  1.00  0.00    -0.254 C  
HETATM   29  F   UNL     1      -8.292  20.537  66.694  1.00  0.00    -0.315 F  
HETATM   30  C   UNL     1      -8.138  17.446  68.409  1.00  0.00    -0.264 A  
HETATM   31  F   UNL     1      -6.375  19.703  67.192  1.00  0.00    -0.188 F  
HETATM   32  C   UNL     1      -8.404  18.243  67.299  1.00  0.00    -0.246 A  
HETATM   33  C   UNL     1     -10.375  16.816  67.166  1.00  0.00    -0.297 A  
ENDBRANCH  21  24
ENDBRANCH  19  21
ENDBRANCH  10  19
BRANCH  12  34
HETATM   34  C   UNL     1      -7.543   5.688  68.730  1.00  0.00    -0.088 C  
BRANCH  34  35
HETATM   35  C   UNL     1      -6.705   5.722  67.433  1.00  0.00    -0.059 C  
BRANCH  35  36
HETATM   36  C   UNL     1      -7.475   5.176  66.290  1.00  0.00    -0.087 A  
HETATM   37  C   UNL     1      -8.168   5.230  63.997  1.00  0.00    -0.131 A  
HETATM   38  C   UNL     1      -7.376   5.746  65.025  1.00  0.00    -0.075 A  
HETATM   39  C   UNL     1      -9.093   3.588  65.505  1.00  0.00    -0.147 A  
HETATM   40  C   UNL     1      -9.013   4.157  64.233  1.00  0.00    -0.144 A  
HETATM   41  C   UNL     1      -8.317   4.097  66.535  1.00  0.00    -0.104 A  
ENDBRANCH  35  36
ENDBRANCH  34  35
ENDBRANCH  12  34
BRANCH  12  42
HETATM   42  C   UNL     1      -8.162   7.432  70.522  1.00  0.00    -0.127 C  
BRANCH  42  43
HETATM   43  C   UNL     1      -8.932   6.517  71.502  1.00  0.00    -0.140 C  
HETATM   44  C   UNL     1      -8.302   5.968  72.781  1.00  0.00    -0.118 C  
ENDBRANCH  42  43
ENDBRANCH  12  42
TORSDOF 8
ENDMDL
MODEL       98
REMARK 921   NORMALIZED FREE ENERGY PREDICTED BY IDOCK:   -5.11 KCAL/MOL
REMARK 922        TOTAL FREE ENERGY PREDICTED BY IDOCK:   -9.49 KCAL/MOL
REMARK 923 INTER-LIGAND FREE ENERGY PREDICTED BY IDOCK:   -8.34 KCAL/MOL
REMARK 924 INTRA-LIGAND FREE ENERGY PREDICTED BY IDOCK:   -1.15 KCAL/MOL
REMARK 927      BINDING AFFINITY PREDICTED BY RF-SCORE:    0.00 PKD
ROOT
HETATM    1  C   UNL     1     -11.123  12.805  65.115  1.00  0.00    -0.323 C  
HETATM    2  C   UNL     1     -10.220  11.548  64.994  1.00  0.00    -0.328 A  
HETATM    3  C   UNL     1     -12.637  12.517  65.045  1.00  0.00    -0.424 C  
HETATM    4  C   UNL     1     -10.759  13.768  66.290  1.00  0.00    -0.285 C  
HETATM    5  C   UNL     1     -13.125  11.889  63.749  1.00  0.00    -0.156 C  
HETATM    6  C   UNL     1      -9.735  10.840  66.109  1.00  0.00    -0.253 A  
HETATM    7  C   UNL     1      -9.934  14.831  66.166  1.00  0.00    -0.304 C  
HETATM    8  O   UNL     1      -9.322  15.145  64.963  1.00  0.00    -0.077 OA 
HETATM    9  C   UNL     1      -9.390  15.642  67.357  1.00  0.00    -0.214 C  
HETATM   10  C   UNL     1      -8.800   9.790  65.975  1.00  0.00    -0.147 A  
HETATM   11  C   UNL     1      -8.398   9.370  64.716  1.00  0.00    -0.159 A  
HETATM   12  C   UNL     1      -9.981  15.326  68.731  1.00  0.00    -0.215 C  
HETATM   13  C   UNL     1     -11.346  13.517  67.636  1.00  0.00    -0.296 C  
HETATM   14  H   UNL     1      -8.742  15.893  64.875  1.00  0.00     0.000 HD 
HETATM   15  O   UNL     1     -10.891  14.204  68.706  1.00  0.00    -0.244 OA 
HETATM   16  C   UNL     1      -9.815  11.076  63.725  1.00  0.00    -0.379 A  
HETATM   17  O   UNL     1     -12.220  12.678  67.807  1.00  0.00    -0.338 OA 
HETATM   18  C   UNL     1      -8.932   9.990  63.589  1.00  0.00    -0.280 A  
ENDROOT
BRANCH  10  19
HETATM   19  N   UNL     1      -8.180   9.230  67.139  1.00  0.00    -0.116 N  
HETATM   20  H   UNL     1      -7.205   9.436  67.356  1.00  0.00     0.000 HD 
BRANCH  19  21
HETATM   21  S   UNL     1      -9.104   8.203  68.166  1.00  0.00    -0.133 S  
HETATM   22  O   UNL     1      -8.964   8.729  69.514  1.00  0.00    -0.141 OA 
HETATM   23  O   UNL     1     -10.417   8.054  67.569  1.00  0.00    -0.244 OA 
BRANCH  21  24
HETATM   24  C   UNL     1      -8.329   6.596  68.115  1.00  0.00    -0.117 A  
HETATM   25  C   UNL     1      -7.192   4.643  68.978  1.00  0.00    -0.053 A  
HETATM   26  N   UNL     1      -8.625   5.949  67.002  1.00  0.00    -0.111 NA 
HETATM   27  F   UNL     1      -5.562   2.514  67.893  1.00  0.00    -0.015 F  
HETATM   28  C   UNL     1      -6.920   2.518  67.721  1.00  0.00    -0.048 C  
HETATM   29  F   UNL     1      -7.413   1.712  68.709  1.00  0.00    -0.042 F  
HETATM   30  C   UNL     1      -8.216   4.666  66.934  1.00  0.00    -0.106 A  
HETATM   31  F   UNL     1      -7.072   1.793  66.588  1.00  0.00    -0.043 F  
HETATM   32  C   UNL     1      -7.466   3.923  67.841  1.00  0.00    -0.067 A  
HETATM   33  C   UNL     1      -7.629   5.974  69.145  1.00  0.00    -0.090 A  
ENDBRANCH  21  24
ENDBRANCH  19  21
ENDBRANCH  10  19
BRANCH  12  34
HETATM   34  C   UNL     1     -10.783  16.596  69.057  1.00  0.00    -0.343 C  
BRANCH  34  35
HETATM   35  C   UNL     1      -9.839  17.793  69.307  1.00  0.00    -0.047 C  
BRANCH  35  36
HETATM   36  C   UNL     1      -9.837  18.717  68.147  1.00  0.00    -0.396 A  
HETATM   37  C   UNL     1     -10.775  19.531  66.098  1.00  0.00    -0.528 A  
HETATM   38  C   UNL     1     -10.856  18.679  67.201  1.00  0.00    -0.341 A  
HETATM   39  C   UNL     1      -8.701  20.445  66.930  1.00  0.00    -0.345 A  
HETATM   40  C   UNL     1      -9.711  20.410  65.967  1.00  0.00    -0.252 A  
HETATM   41  C   UNL     1      -8.768  19.598  68.026  1.00  0.00    -0.366 A  
ENDBRANCH  35  36
ENDBRANCH  34  35
ENDBRANCH  12  34
BRANCH  12  42
HETATM   42  C   UNL     1      -8.937  15.020  69.918  1.00  0.00     0.247 C  
BRANCH  42  43
HETATM   43  C   UNL     1      -7.515  14.593  69.485  1.00  0.00    -0.074 C  
HETATM   44  C   UNL     1      -6.274  14.900  70.322  1.00  0.00    -0.152 C  
ENDBRANCH  42  43
ENDBRANCH  12  42
TORSDOF 8
ENDMDL
MODEL       99
REMARK 921   NORMALIZED FREE ENERGY PREDICTED BY IDOCK:   -5.05 KCAL/MOL
REMARK 922        TOTAL FREE ENERGY PREDICTED BY IDOCK:   -9.40 KCAL/MOL
REMARK 923 INTER-LIGAND FREE ENERGY PREDICTED BY IDOCK:   -8.28 KCAL/MOL
REMARK 924 INTRA-LIGAND FREE ENERGY PREDICTED BY IDOCK:   -1.12 KCAL/MOL
REMARK 927      BINDING AFFINITY PREDICTED BY RF-SCORE:    0.00 PKD
ROOT
HETATM    1  C   UNL     1     -10.468   8.479  70.524  1.00  0.00    -0.230 C  
HETATM    2  C   UNL     1     -10.883   9.777  69.781  1.00  0.00    -0.285 A  
HETATM    3  C   UNL     1     -11.545   7.374  70.536  1.00  0.00    -0.256 C  
HETATM    4  C   UNL     1      -9.057   7.925  70.147  1.00  0.00    -0.152 C  
HETATM    5  C   UNL     1     -12.851   7.739  71.221  1.00  0.00    -0.265 C  
HETATM    6  C   UNL     1     -10.579  10.018  68.428  1.00  0.00    -0.253 A  
HETATM    7  C   UNL     1      -7.924   8.228  70.818  1.00  0.00    -0.100 C  
HETATM    8  O   UNL     1      -7.926   9.084  71.907  1.00  0.00    -0.348 OA 
HETATM    9  C   UNL     1      -6.509   7.876  70.321  1.00  0.00    -0.037 C  
HETATM   10  C   UNL     1     -10.840  11.264  67.816  1.00  0.00    -0.235 A  
HETATM   11  C   UNL     1     -11.489  12.265  68.523  1.00  0.00    -0.349 A  
HETATM   12  C   UNL     1      -6.417   6.969  69.094  1.00  0.00    -0.040 C  
HETATM   13  C   UNL     1      -8.931   7.006  68.981  1.00  0.00    -0.133 C  
HETATM   14  H   UNL     1      -7.130   9.297  72.380  1.00  0.00     0.000 HD 
HETATM   15  O   UNL     1      -7.708   6.679  68.512  1.00  0.00    -0.101 OA 
HETATM   16  C   UNL     1     -11.571  10.806  70.462  1.00  0.00    -0.425 A  
HETATM   17  O   UNL     1      -9.916   6.554  68.413  1.00  0.00    -0.134 OA 
HETATM   18  C   UNL     1     -11.887  12.025  69.836  1.00  0.00    -0.405 A  
ENDROOT
BRANCH  10  19
HETATM   19  N   UNL     1     -10.337  11.537  66.503  1.00  0.00    -0.224 N  
HETATM   20  H   UNL     1      -9.480  11.090  66.174  1.00  0.00     0.000 HD 
BRANCH  19  21
HETATM   21  S   UNL     1     -11.196  12.630  65.489  1.00  0.00    -0.315 S  
HETATM   22  O   UNL     1     -10.711  12.411  64.137  1.00  0.00    -0.321 OA 
HETATM   23  O   UNL     1     -12.607  12.493  65.794  1.00  0.00    -0.569 OA 
BRANCH  21  24
HETATM   24  C   UNL     1     -10.719  14.276  65.989  1.00  0.00    -0.304 A  
HETATM   25  C   UNL     1     -10.911  16.400  67.129  1.00  0.00    -0.169 A  
HETATM   26  N   UNL     1      -9.442  14.508  65.742  1.00  0.00    -0.203 NA 
HETATM   27  F   UNL     1      -9.808  19.056  66.817  1.00  0.00    -0.308 F  
HETATM   28  C   UNL     1      -9.058  18.041  67.346  1.00  0.00    -0.250 C  
HETATM   29  F   UNL     1      -9.160  18.182  68.701  1.00  0.00    -0.292 F  
HETATM   30  C   UNL     1      -8.945  15.666  66.223  1.00  0.00    -0.342 A  
HETATM   31  F   UNL     1      -7.795  18.433  67.060  1.00  0.00    -0.213 F  
HETATM   32  C   UNL     1      -9.591  16.699  66.897  1.00  0.00    -0.259 A  
HETATM   33  C   UNL     1     -11.492  15.188  66.701  1.00  0.00    -0.185 A  
ENDBRANCH  21  24
ENDBRANCH  19  21
ENDBRANCH  10  19
BRANCH  12  34
HETATM   34  C   UNL     1      -5.842   5.668  69.675  1.00  0.00    -0.020 C  
BRANCH  34  35
HETATM   35  C   UNL     1      -6.024   5.624  71.209  1.00  0.00    -0.029 C  
BRANCH  35  36
HETATM   36  C   UNL     1      -6.856   4.464  71.611  1.00  0.00    -0.031 A  
HETATM   37  C   UNL     1      -7.096   2.226  72.433  1.00  0.00    -0.027 A  
HETATM   38  C   UNL     1      -6.272   3.311  72.126  1.00  0.00    -0.014 A  
HETATM   39  C   UNL     1      -9.040   3.480  71.743  1.00  0.00    -0.168 A  
HETATM   40  C   UNL     1      -8.467   2.312  72.249  1.00  0.00    -0.063 A  
HETATM   41  C   UNL     1      -8.231   4.561  71.427  1.00  0.00    -0.100 A  
ENDBRANCH  35  36
ENDBRANCH  34  35
ENDBRANCH  12  34
BRANCH  12  42
HETATM   42  C   UNL     1      -5.492   7.482  67.880  1.00  0.00    -0.027 C  
BRANCH  42  43
HETATM   43  C   UNL     1      -6.131   8.512  66.920  1.00  0.00    -0.054 C  
HETATM   44  C   UNL     1      -5.764   8.592  65.439  1.00  0.00    -0.047 C  
ENDBRANCH  42  43
ENDBRANCH  12  42
TORSDOF 8
ENDMDL
MODEL      100
REMARK 921   NORMALIZED FREE ENERGY PREDICTED BY IDOCK:   -5.05 KCAL/MOL
REMARK 922        TOTAL FREE ENERGY PREDICTED BY IDOCK:   -9.40 KCAL/MOL
REMARK 923 INTER-LIGAND FREE ENERGY PREDICTED BY IDOCK:   -7.12 KCAL/MOL
REMARK 924 INTRA-LIGAND FREE ENERGY PREDICTED BY IDOCK:   -2.27 KCAL/MOL
REMARK 927      BINDING AFFINITY PREDICTED BY RF-SCORE:    0.00 PKD
ROOT
HETATM    1  C   UNL     1      -9.366   8.500  70.176  1.00  0.00    -0.164 C  
HETATM    2  C   UNL     1      -8.896   7.364  69.229  1.00  0.00    -0.136 A  
HETATM    3  C   UNL     1      -8.851   8.384  71.625  1.00  0.00    -0.246 C  
HETATM    4  C   UNL     1      -9.201   9.945  69.605  1.00  0.00    -0.246 C  
HETATM    5  C   UNL     1      -9.282   7.135  72.376  1.00  0.00    -0.154 C  
HETATM    6  C   UNL     1      -7.755   7.468  68.412  1.00  0.00    -0.120 A  
HETATM    7  C   UNL     1     -10.171  10.607  68.936  1.00  0.00    -0.201 C  
HETATM    8  O   UNL     1     -11.409  10.035  68.688  1.00  0.00    -0.460 OA 
HETATM    9  C   UNL     1      -9.946  11.927  68.176  1.00  0.00    -0.197 C  
HETATM   10  C   UNL     1      -7.431   6.480  67.456  1.00  0.00    -0.096 A  
HETATM   11  C   UNL     1      -8.195   5.327  67.359  1.00  0.00    -0.103 A  
HETATM   12  C   UNL     1      -8.587  12.603  68.360  1.00  0.00    -0.122 C  
HETATM   13  C   UNL     1      -7.905  10.654  69.798  1.00  0.00     0.045 C  
HETATM   14  H   UNL     1     -12.091  10.500  68.218  1.00  0.00     0.000 HD 
HETATM   15  O   UNL     1      -7.667  11.810  69.144  1.00  0.00    -0.026 OA 
HETATM   16  C   UNL     1      -9.634   6.164  69.128  1.00  0.00    -0.154 A  
HETATM   17  O   UNL     1      -7.030  10.199  70.522  1.00  0.00    -0.244 OA 
HETATM   18  C   UNL     1      -9.276   5.151  68.219  1.00  0.00    -0.139 A  
ENDROOT
BRANCH  10  19
HETATM   19  N   UNL     1      -6.382   6.716  66.509  1.00  0.00    -0.041 N  
HETATM   20  H   UNL     1      -5.413   6.794  66.819  1.00  0.00     0.000 HD 
BRANCH  19  21
HETATM   21  S   UNL     1      -6.779   6.866  64.841  1.00  0.00    -0.047 S  
HETATM   22  O   UNL     1      -5.577   7.327  64.167  1.00  0.00    -0.032 OA 
HETATM   23  O   UNL     1      -7.423   5.633  64.432  1.00  0.00    -0.065 OA 
BRANCH  21  24
HETATM   24  C   UNL     1      -8.011   8.153  64.722  1.00  0.00    -0.147 A  
HETATM   25  C   UNL     1      -9.596   9.798  65.515  1.00  0.00    -0.348 A  
HETATM   26  N   UNL     1      -8.043   8.684  63.513  1.00  0.00    -0.165 NA 
HETATM   27  F   UNL     1     -11.903  11.176  64.444  1.00  0.00    -0.124 F  
HETATM   28  C   UNL     1     -10.635  11.541  64.081  1.00  0.00    -0.363 C  
HETATM   29  F   UNL     1     -10.313  12.593  64.892  1.00  0.00    -0.286 F  
HETATM   30  C   UNL     1      -8.830   9.768  63.361  1.00  0.00    -0.241 A  
HETATM   31  F   UNL     1     -10.830  12.100  62.864  1.00  0.00    -0.360 F  
HETATM   32  C   UNL     1      -9.674  10.389  64.278  1.00  0.00    -0.389 A  
HETATM   33  C   UNL     1      -8.757   8.692  65.766  1.00  0.00    -0.212 A  
ENDBRANCH  21  24
ENDBRANCH  19  21
ENDBRANCH  10  19
BRANCH  12  34
HETATM   34  C   UNL     1      -8.941  13.867  69.158  1.00  0.00     0.362 C  
BRANCH  34  35
HETATM   35  C   UNL     1     -10.097  14.638  68.480  1.00  0.00    -0.238 C  
BRANCH  35  36
HETATM   36  C   UNL     1      -9.713  16.047  68.219  1.00  0.00    -0.214 A  
HETATM   37  C   UNL     1      -8.286  17.941  68.562  1.00  0.00    -0.300 A  
HETATM   38  C   UNL     1      -8.569  16.593  68.793  1.00  0.00    -0.261 A  
HETATM   39  C   UNL     1     -10.255  18.139  67.179  1.00  0.00    -0.376 A  
HETATM   40  C   UNL     1      -9.118  18.705  67.757  1.00  0.00    -0.303 A  
HETATM   41  C   UNL     1     -10.550  16.804  67.408  1.00  0.00    -0.291 A  
ENDBRANCH  35  36
ENDBRANCH  34  35
ENDBRANCH  12  34
BRANCH  12  42
HETATM   42  C   UNL     1      -7.789  13.007  67.021  1.00  0.00     0.015 C  
BRANCH  42  43
HETATM   43  C   UNL     1      -6.375  12.404  66.859  1.00  0.00     0.166 C  
HETATM   44  C   UNL     1      -6.140  10.917  66.593  1.00  0.00    -0.101 C  
ENDBRANCH  42  43
ENDBRANCH  12  42
TORSDOF 8
ENDMDL
MODEL      101
REMARK 921   NORMALIZED FREE ENERGY PREDICTED BY IDOCK:   -5.03 KCAL/MOL
REMARK 922        TOTAL FREE ENERGY PREDICTED BY IDOCK:   -9.37 KCAL/MOL
REMARK 923 INTER-LIGAND FREE ENERGY PREDICTED BY IDOCK:   -8.28 KCAL/MOL
REMARK 924 INTRA-LIGAND FREE ENERGY PREDICTED BY IDOCK:   -1.10 KCAL/MOL
REMARK 927      BINDING AFFINITY PREDICTED BY RF-SCORE:    0.00 PKD
ROOT
HETATM    1  C   UNL     1      -9.785  17.133  66.631  1.00  0.00    -0.285 C  
HETATM    2  C   UNL     1     -10.704  16.011  66.080  1.00  0.00    -0.271 A  
HETATM    3  C   UNL     1     -10.534  18.354  67.202  1.00  0.00    -0.434 C  
HETATM    4  C   UNL     1      -8.644  16.643  67.580  1.00  0.00    -0.199 C  
HETATM    5  C   UNL     1     -11.409  19.107  66.213  1.00  0.00     0.621 C  
HETATM    6  C   UNL     1     -11.112  14.904  66.848  1.00  0.00    -0.337 A  
HETATM    7  C   UNL     1      -7.395  16.338  67.162  1.00  0.00    -0.209 C  
HETATM    8  O   UNL     1      -7.029  16.423  65.829  1.00  0.00     0.600 OA 
HETATM    9  C   UNL     1      -6.340  15.641  68.042  1.00  0.00    -0.147 C  
HETATM   10  C   UNL     1     -11.829  13.827  66.281  1.00  0.00    -0.398 A  
HETATM   11  C   UNL     1     -12.227  13.876  64.954  1.00  0.00    -0.445 A  
HETATM   12  C   UNL     1      -6.685  15.466  69.521  1.00  0.00    -0.174 C  
HETATM   13  C   UNL     1      -8.928  16.498  69.035  1.00  0.00    -0.225 C  
HETATM   14  H   UNL     1      -6.151  16.208  65.535  1.00  0.00     0.000 HD 
HETATM   15  O   UNL     1      -8.031  15.887  69.838  1.00  0.00     0.057 OA 
HETATM   16  C   UNL     1     -11.153  16.044  64.740  1.00  0.00    -0.378 A  
HETATM   17  O   UNL     1      -9.975  16.899  69.525  1.00  0.00    -0.154 OA 
HETATM   18  C   UNL     1     -11.919  15.001  64.191  1.00  0.00    -0.221 A  
ENDROOT
BRANCH  10  19
HETATM   19  N   UNL     1     -12.049  12.633  67.042  1.00  0.00    -0.248 N  
HETATM   20  H   UNL     1     -12.989  12.382  67.349  1.00  0.00     0.000 HD 
BRANCH  19  21
HETATM   21  S   UNL     1     -10.706  11.630  67.431  1.00  0.00    -0.247 S  
HETATM   22  O   UNL     1     -10.464  10.790  66.270  1.00  0.00    -0.250 OA 
HETATM   23  O   UNL     1      -9.657  12.486  67.950  1.00  0.00    -0.193 OA 
BRANCH  21  24
HETATM   24  C   UNL     1     -11.226  10.578  68.778  1.00  0.00    -0.262 A  
HETATM   25  C   UNL     1     -11.134   8.702  70.300  1.00  0.00    -0.230 A  
HETATM   26  N   UNL     1     -12.111  11.181  69.551  1.00  0.00    -0.333 NA 
HETATM   27  F   UNL     1     -13.000   7.278  71.991  1.00  0.00    -0.324 F  
HETATM   28  C   UNL     1     -12.514   8.504  72.356  1.00  0.00    -0.353 C  
HETATM   29  F   UNL     1     -11.469   8.244  73.197  1.00  0.00    -0.397 F  
HETATM   30  C   UNL     1     -12.451  10.531  70.682  1.00  0.00    -0.366 A  
HETATM   31  F   UNL     1     -13.490   8.974  73.167  1.00  0.00    -0.406 F  
HETATM   32  C   UNL     1     -12.055   9.277  71.140  1.00  0.00    -0.389 A  
HETATM   33  C   UNL     1     -10.690   9.341  69.123  1.00  0.00    -0.202 A  
ENDBRANCH  21  24
ENDBRANCH  19  21
ENDBRANCH  10  19
BRANCH  12  34
HETATM   34  C   UNL     1      -5.701  16.421  70.214  1.00  0.00    -0.155 C  
BRANCH  34  35
HETATM   35  C   UNL     1      -5.128  17.445  69.209  1.00  0.00    -0.165 C  
BRANCH  35  36
HETATM   36  C   UNL     1      -5.256  18.828  69.730  1.00  0.00    -0.198 A  
HETATM   37  C   UNL     1      -5.340  21.201  69.411  1.00  0.00    -0.306 A  
HETATM   38  C   UNL     1      -5.278  19.917  68.865  1.00  0.00    -0.216 A  
HETATM   39  C   UNL     1      -5.391  20.273  71.640  1.00  0.00    -0.404 A  
HETATM   40  C   UNL     1      -5.402  21.377  70.785  1.00  0.00     0.563 A  
HETATM   41  C   UNL     1      -5.321  18.994  71.108  1.00  0.00    -0.271 A  
ENDBRANCH  35  36
ENDBRANCH  34  35
ENDBRANCH  12  34
BRANCH  12  42
HETATM   42  C   UNL     1      -6.532  13.984  70.132  1.00  0.00    -0.055 C  
BRANCH  42  43
HETATM   43  C   UNL     1      -5.402  13.785  71.169  1.00  0.00    -0.179 C  
HETATM   44  C   UNL     1      -5.563  14.158  72.642  1.00  0.00    -0.093 C  
ENDBRANCH  42  43
ENDBRANCH  12  42
TORSDOF 8
ENDMDL
MODEL      102
REMARK 921   NORMALIZED FREE ENERGY PREDICTED BY IDOCK:   -5.02 KCAL/MOL
REMARK 922        TOTAL FREE ENERGY PREDICTED BY IDOCK:   -9.36 KCAL/MOL
REMARK 923 INTER-LIGAND FREE ENERGY PREDICTED BY IDOCK:   -7.25 KCAL/MOL
REMARK 924 INTRA-LIGAND FREE ENERGY PREDICTED BY IDOCK:   -2.11 KCAL/MOL
REMARK 927      BINDING AFFINITY PREDICTED BY RF-SCORE:    0.00 PKD
ROOT
HETATM    1  C   UNL     1     -10.131   7.963  69.272  1.00  0.00    -0.197 C  
HETATM    2  C   UNL     1     -10.884   9.288  69.564  1.00  0.00    -0.211 A  
HETATM    3  C   UNL     1     -11.029   6.709  69.228  1.00  0.00    -0.346 C  
HETATM    4  C   UNL     1      -9.138   8.021  68.067  1.00  0.00    -0.130 C  
HETATM    5  C   UNL     1     -11.767   6.386  70.517  1.00  0.00    -0.385 C  
HETATM    6  C   UNL     1     -11.353  10.145  68.551  1.00  0.00    -0.172 A  
HETATM    7  C   UNL     1      -7.823   8.308  68.187  1.00  0.00    -0.118 C  
HETATM    8  O   UNL     1      -7.246   8.595  69.413  1.00  0.00    -0.056 OA 
HETATM    9  C   UNL     1      -6.892   8.593  66.993  1.00  0.00    -0.067 C  
HETATM   10  C   UNL     1     -11.906  11.411  68.844  1.00  0.00    -0.347 A  
HETATM   11  C   UNL     1     -12.081  11.808  70.161  1.00  0.00    -0.398 A  
HETATM   12  C   UNL     1      -7.467   8.345  65.598  1.00  0.00    -0.081 C  
HETATM   13  C   UNL     1      -9.651   7.746  66.696  1.00  0.00    -0.220 C  
HETATM   14  H   UNL     1      -6.321   8.797  69.497  1.00  0.00     0.000 HD 
HETATM   15  O   UNL     1      -8.868   7.989  65.623  1.00  0.00    -0.156 OA 
HETATM   16  C   UNL     1     -11.105   9.709  70.895  1.00  0.00    -0.422 A  
HETATM   17  O   UNL     1     -10.785   7.326  66.510  1.00  0.00    -0.128 OA 
HETATM   18  C   UNL     1     -11.713  10.943  71.189  1.00  0.00    -0.038 A  
ENDROOT
BRANCH  10  19
HETATM   19  N   UNL     1     -12.185  12.333  67.784  1.00  0.00     0.065 N  
HETATM   20  H   UNL     1     -13.068  12.845  67.762  1.00  0.00     0.000 HD 
BRANCH  19  21
HETATM   21  S   UNL     1     -11.011  12.566  66.548  1.00  0.00    -0.278 S  
HETATM   22  O   UNL     1     -10.663  11.246  66.050  1.00  0.00    -0.267 OA 
HETATM   23  O   UNL     1     -11.521  13.580  65.645  1.00  0.00    -0.308 OA 
BRANCH  21  24
HETATM   24  C   UNL     1      -9.567  13.259  67.337  1.00  0.00    -0.223 A  
HETATM   25  C   UNL     1      -7.215  13.540  67.825  1.00  0.00    -0.157 A  
HETATM   26  N   UNL     1      -9.842  14.407  67.931  1.00  0.00    -0.220 NA 
HETATM   27  F   UNL     1      -5.637  14.627  69.992  1.00  0.00    -0.097 F  
HETATM   28  C   UNL     1      -6.273  15.450  69.103  1.00  0.00    -0.110 C  
HETATM   29  F   UNL     1      -5.327  15.781  68.174  1.00  0.00    -0.087 F  
HETATM   30  C   UNL     1      -8.788  15.087  68.424  1.00  0.00    -0.178 A  
HETATM   31  F   UNL     1      -6.446  16.581  69.826  1.00  0.00    -0.205 F  
HETATM   32  C   UNL     1      -7.441  14.737  68.460  1.00  0.00    -0.117 A  
HETATM   33  C   UNL     1      -8.260  12.793  67.240  1.00  0.00    -0.181 A  
ENDBRANCH  21  24
ENDBRANCH  19  21
ENDBRANCH  10  19
BRANCH  12  34
HETATM   34  C   UNL     1      -6.665   7.128  65.111  1.00  0.00    -0.047 C  
BRANCH  34  35
HETATM   35  C   UNL     1      -6.328   6.186  66.288  1.00  0.00    -0.042 C  
BRANCH  35  36
HETATM   36  C   UNL     1      -7.360   5.131  66.435  1.00  0.00    -0.086 A  
HETATM   37  C   UNL     1      -8.988   3.632  65.516  1.00  0.00    -0.138 A  
HETATM   38  C   UNL     1      -7.981   4.579  65.319  1.00  0.00    -0.098 A  
HETATM   39  C   UNL     1      -8.700   3.793  67.908  1.00  0.00    -0.124 A  
HETATM   40  C   UNL     1      -9.339   3.238  66.798  1.00  0.00    -0.171 A  
HETATM   41  C   UNL     1      -7.704   4.740  67.724  1.00  0.00    -0.083 A  
ENDBRANCH  35  36
ENDBRANCH  34  35
ENDBRANCH  12  34
BRANCH  12  42
HETATM   42  C   UNL     1      -7.338   9.547  64.535  1.00  0.00    -0.114 C  
BRANCH  42  43
HETATM   43  C   UNL     1      -8.557   9.779  63.613  1.00  0.00    -0.207 C  
HETATM   44  C   UNL     1      -8.510  10.720  62.409  1.00  0.00    -0.308 C  
ENDBRANCH  42  43
ENDBRANCH  12  42
TORSDOF 8
ENDMDL
MODEL      103
REMARK 921   NORMALIZED FREE ENERGY PREDICTED BY IDOCK:   -4.98 KCAL/MOL
REMARK 922        TOTAL FREE ENERGY PREDICTED BY IDOCK:   -9.29 KCAL/MOL
REMARK 923 INTER-LIGAND FREE ENERGY PREDICTED BY IDOCK:   -8.30 KCAL/MOL
REMARK 924 INTRA-LIGAND FREE ENERGY PREDICTED BY IDOCK:   -0.99 KCAL/MOL
REMARK 927      BINDING AFFINITY PREDICTED BY RF-SCORE:    0.00 PKD
ROOT
HETATM    1  C   UNL     1      -9.037   9.913  64.804  1.00  0.00    -0.283 C  
HETATM    2  C   UNL     1     -10.009  11.122  64.861  1.00  0.00    -0.331 A  
HETATM    3  C   UNL     1      -7.785  10.137  63.931  1.00  0.00    -0.140 C  
HETATM    4  C   UNL     1      -8.686   9.283  66.190  1.00  0.00    -0.169 C  
HETATM    5  C   UNL     1      -8.053  10.410  62.459  1.00  0.00    -0.186 C  
HETATM    6  C   UNL     1      -9.962  12.098  65.875  1.00  0.00    -0.267 A  
HETATM    7  C   UNL     1      -9.354   8.244  66.736  1.00  0.00    -0.182 C  
HETATM    8  O   UNL     1     -10.436   7.655  66.101  1.00  0.00    -0.301 OA 
HETATM    9  C   UNL     1      -9.166   7.768  68.189  1.00  0.00    -0.138 C  
HETATM   10  C   UNL     1     -10.947  13.105  65.984  1.00  0.00    -0.279 A  
HETATM   11  C   UNL     1     -11.949  13.207  65.031  1.00  0.00    -0.423 A  
HETATM   12  C   UNL     1      -8.020   8.402  68.977  1.00  0.00    -0.111 C  
HETATM   13  C   UNL     1      -7.550   9.846  66.971  1.00  0.00    -0.092 C  
HETATM   14  H   UNL     1     -10.906   6.923  66.486  1.00  0.00     0.000 HD 
HETATM   15  O   UNL     1      -7.356   9.459  68.250  1.00  0.00    -0.077 OA 
HETATM   16  C   UNL     1     -11.023  11.273  63.890  1.00  0.00    -0.382 A  
HETATM   17  O   UNL     1      -6.793  10.679  66.490  1.00  0.00    -0.107 OA 
HETATM   18  C   UNL     1     -11.968  12.313  63.963  1.00  0.00    -0.551 A  
ENDROOT
BRANCH  10  19
HETATM   19  N   UNL     1     -10.979  13.952  67.139  1.00  0.00    -0.287 N  
HETATM   20  H   UNL     1     -11.570  14.785  67.153  1.00  0.00     0.000 HD 
BRANCH  19  21
HETATM   21  S   UNL     1     -10.007  13.548  68.500  1.00  0.00    -0.159 S  
HETATM   22  O   UNL     1      -8.838  12.856  67.986  1.00  0.00    -0.180 OA 
HETATM   23  O   UNL     1      -9.857  14.747  69.302  1.00  0.00    -0.197 OA 
BRANCH  21  24
HETATM   24  C   UNL     1     -10.952  12.390  69.478  1.00  0.00     0.077 A  
HETATM   25  C   UNL     1     -12.839  11.566  70.744  1.00  0.00    -0.222 A  
HETATM   26  N   UNL     1     -10.450  11.170  69.405  1.00  0.00    -0.152 NA 
HETATM   27  F   UNL     1     -13.291   9.537  72.757  1.00  0.00    -0.448 F  
HETATM   28  C   UNL     1     -13.126   9.199  71.441  1.00  0.00    -0.304 C  
HETATM   29  F   UNL     1     -14.391   9.062  70.940  1.00  0.00    -0.338 F  
HETATM   30  C   UNL     1     -11.178  10.193  69.982  1.00  0.00    -0.299 A  
HETATM   31  F   UNL     1     -12.658   7.932  71.523  1.00  0.00    -0.299 F  
HETATM   32  C   UNL     1     -12.364  10.278  70.706  1.00  0.00    -0.445 A  
HETATM   33  C   UNL     1     -12.161  12.635  70.122  1.00  0.00    -0.368 A  
ENDBRANCH  21  24
ENDBRANCH  19  21
ENDBRANCH  10  19
BRANCH  12  34
HETATM   34  C   UNL     1      -7.035   7.234  69.144  1.00  0.00    -0.074 C  
BRANCH  34  35
HETATM   35  C   UNL     1      -7.790   5.889  69.235  1.00  0.00    -0.095 C  
BRANCH  35  36
HETATM   36  C   UNL     1      -7.039   4.914  70.063  1.00  0.00    -0.053 A  
HETATM   37  C   UNL     1      -6.740   2.727  70.995  1.00  0.00    -0.032 A  
HETATM   38  C   UNL     1      -7.449   3.588  70.154  1.00  0.00    -0.041 A  
HETATM   39  C   UNL     1      -5.232   4.516  71.590  1.00  0.00    -0.004 A  
HETATM   40  C   UNL     1      -5.639   3.185  71.701  1.00  0.00    -0.008 A  
HETATM   41  C   UNL     1      -5.933   5.381  70.765  1.00  0.00    -0.021 A  
ENDBRANCH  35  36
ENDBRANCH  34  35
ENDBRANCH  12  34
BRANCH  12  42
HETATM   42  C   UNL     1      -8.384   9.021  70.419  1.00  0.00    -0.180 C  
BRANCH  42  43
HETATM   43  C   UNL     1      -7.344   8.799  71.541  1.00  0.00    -0.109 C  
HETATM   44  C   UNL     1      -7.745   8.516  72.988  1.00  0.00    -0.048 C  
ENDBRANCH  42  43
ENDBRANCH  12  42
TORSDOF 8
ENDMDL
MODEL      104
REMARK 921   NORMALIZED FREE ENERGY PREDICTED BY IDOCK:   -4.97 KCAL/MOL
REMARK 922        TOTAL FREE ENERGY PREDICTED BY IDOCK:   -9.28 KCAL/MOL
REMARK 923 INTER-LIGAND FREE ENERGY PREDICTED BY IDOCK:   -7.86 KCAL/MOL
REMARK 924 INTRA-LIGAND FREE ENERGY PREDICTED BY IDOCK:   -1.43 KCAL/MOL
REMARK 927      BINDING AFFINITY PREDICTED BY RF-SCORE:    0.00 PKD
ROOT
HETATM    1  C   UNL     1      -7.582   4.705  66.960  1.00  0.00    -0.086 C  
HETATM    2  C   UNL     1      -7.696   5.190  65.490  1.00  0.00    -0.087 A  
HETATM    3  C   UNL     1      -6.137   4.497  67.458  1.00  0.00    -0.031 C  
HETATM    4  C   UNL     1      -8.452   5.501  67.986  1.00  0.00    -0.098 C  
HETATM    5  C   UNL     1      -5.329   3.451  66.707  1.00  0.00    -0.013 C  
HETATM    6  C   UNL     1      -7.799   6.548  65.135  1.00  0.00    -0.111 A  
HETATM    7  C   UNL     1      -9.700   5.140  68.355  1.00  0.00    -0.147 C  
HETATM    8  O   UNL     1     -10.325   4.021  67.829  1.00  0.00     0.149 OA 
HETATM    9  C   UNL     1     -10.645   6.034  69.182  1.00  0.00    -0.362 C  
HETATM   10  C   UNL     1      -8.046   6.952  63.804  1.00  0.00     0.007 A  
HETATM   11  C   UNL     1      -8.109   6.010  62.789  1.00  0.00    -0.097 A  
HETATM   12  C   UNL     1     -10.046   7.314  69.763  1.00  0.00    -0.194 C  
HETATM   13  C   UNL     1      -7.889   6.733  68.606  1.00  0.00    -0.118 C  
HETATM   14  H   UNL     1     -11.203   3.768  68.088  1.00  0.00     0.000 HD 
HETATM   15  O   UNL     1      -8.687   7.545  69.332  1.00  0.00    -0.136 OA 
HETATM   16  C   UNL     1      -7.733   4.258  64.429  1.00  0.00    -0.084 A  
HETATM   17  O   UNL     1      -6.716   7.047  68.454  1.00  0.00    -0.059 OA 
HETATM   18  C   UNL     1      -7.917   4.665  63.095  1.00  0.00    -0.082 A  
ENDROOT
BRANCH  10  19
HETATM   19  N   UNL     1      -8.344   8.324  63.516  1.00  0.00    -0.368 N  
HETATM   20  H   UNL     1      -8.955   8.568  62.735  1.00  0.00     0.000 HD 
BRANCH  19  21
HETATM   21  S   UNL     1      -7.658   9.554  64.505  1.00  0.00    -0.121 S  
HETATM   22  O   UNL     1      -7.505   8.983  65.832  1.00  0.00    -0.092 OA 
HETATM   23  O   UNL     1      -6.510  10.091  63.800  1.00  0.00    -0.122 OA 
BRANCH  21  24
HETATM   24  C   UNL     1      -8.864  10.867  64.601  1.00  0.00    -0.085 A  
HETATM   25  C   UNL     1     -10.871  12.092  64.036  1.00  0.00    -0.433 A  
HETATM   26  N   UNL     1      -8.733  11.566  65.713  1.00  0.00    -0.078 NA 
HETATM   27  F   UNL     1     -11.824  14.807  64.329  1.00  0.00    -0.410 F  
HETATM   28  C   UNL     1     -11.801  13.951  65.396  1.00  0.00    -0.355 C  
HETATM   29  F   UNL     1     -13.065  13.440  65.479  1.00  0.00    -0.495 F  
HETATM   30  C   UNL     1      -9.692  12.482  65.955  1.00  0.00    -0.241 A  
HETATM   31  F   UNL     1     -11.710  14.799  66.447  1.00  0.00    -0.360 F  
HETATM   32  C   UNL     1     -10.783  12.854  65.175  1.00  0.00    -0.326 A  
HETATM   33  C   UNL     1      -9.934  11.080  63.737  1.00  0.00    -0.404 A  
ENDBRANCH  21  24
ENDBRANCH  19  21
ENDBRANCH  10  19
BRANCH  12  34
HETATM   34  C   UNL     1     -10.036   7.029  71.273  1.00  0.00    -0.196 C  
BRANCH  34  35
HETATM   35  C   UNL     1     -11.059   5.928  71.631  1.00  0.00    -0.319 C  
BRANCH  35  36
HETATM   36  C   UNL     1     -10.427   4.863  72.447  1.00  0.00    -0.269 A  
HETATM   37  C   UNL     1      -8.794   3.138  72.763  1.00  0.00    -0.096 A  
HETATM   38  C   UNL     1      -9.314   4.171  71.980  1.00  0.00    -0.184 A  
HETATM   39  C   UNL     1     -10.475   3.540  74.448  1.00  0.00    -0.258 A  
HETATM   40  C   UNL     1      -9.365   2.830  73.988  1.00  0.00    -0.098 A  
HETATM   41  C   UNL     1     -11.004   4.563  73.676  1.00  0.00    -0.382 A  
ENDBRANCH  35  36
ENDBRANCH  34  35
ENDBRANCH  12  34
BRANCH  12  42
HETATM   42  C   UNL     1     -10.839   8.685  69.471  1.00  0.00    -0.138 C  
BRANCH  42  43
HETATM   43  C   UNL     1     -10.448   9.440  68.180  1.00  0.00    -0.267 C  
HETATM   44  C   UNL     1     -10.659   8.849  66.786  1.00  0.00    -0.212 C  
ENDBRANCH  42  43
ENDBRANCH  12  42
TORSDOF 8
ENDMDL
MODEL      105
REMARK 921   NORMALIZED FREE ENERGY PREDICTED BY IDOCK:   -4.97 KCAL/MOL
REMARK 922        TOTAL FREE ENERGY PREDICTED BY IDOCK:   -9.28 KCAL/MOL
REMARK 923 INTER-LIGAND FREE ENERGY PREDICTED BY IDOCK:   -6.63 KCAL/MOL
REMARK 924 INTRA-LIGAND FREE ENERGY PREDICTED BY IDOCK:   -2.65 KCAL/MOL
REMARK 927      BINDING AFFINITY PREDICTED BY RF-SCORE:    0.00 PKD
ROOT
HETATM    1  C   UNL     1      -8.613  11.343  66.402  1.00  0.00    -0.174 C  
HETATM    2  C   UNL     1      -9.399  10.388  67.339  1.00  0.00    -0.162 A  
HETATM    3  C   UNL     1      -9.435  11.910  65.226  1.00  0.00    -0.089 C  
HETATM    4  C   UNL     1      -7.784  12.448  67.131  1.00  0.00    -0.122 C  
HETATM    5  C   UNL     1      -9.986  10.880  64.254  1.00  0.00    -0.392 C  
HETATM    6  C   UNL     1     -10.041  10.822  68.515  1.00  0.00    -0.187 A  
HETATM    7  C   UNL     1      -6.484  12.314  67.472  1.00  0.00    -0.137 C  
HETATM    8  O   UNL     1      -5.775  11.153  67.208  1.00  0.00    -0.047 OA 
HETATM    9  C   UNL     1      -5.728  13.296  68.387  1.00  0.00    -0.084 C  
HETATM   10  C   UNL     1     -10.626   9.911  69.423  1.00  0.00    -0.229 A  
HETATM   11  C   UNL     1     -10.656   8.557  69.130  1.00  0.00    -0.188 A  
HETATM   12  C   UNL     1      -6.458  14.585  68.764  1.00  0.00    -0.089 C  
HETATM   13  C   UNL     1      -8.448  13.735  67.480  1.00  0.00    -0.196 C  
HETATM   14  H   UNL     1      -4.860  11.059  67.448  1.00  0.00     0.000 HD 
HETATM   15  O   UNL     1      -7.821  14.619  68.286  1.00  0.00    -0.115 OA 
HETATM   16  C   UNL     1      -9.476   9.006  67.055  1.00  0.00    -0.212 A  
HETATM   17  O   UNL     1      -9.571  14.007  67.075  1.00  0.00    -0.236 OA 
HETATM   18  C   UNL     1     -10.112   8.106  67.929  1.00  0.00    -0.246 A  
ENDROOT
BRANCH  10  19
HETATM   19  N   UNL     1     -11.088  10.370  70.699  1.00  0.00    -0.406 N  
HETATM   20  H   UNL     1     -10.575  10.137  71.550  1.00  0.00     0.000 HD 
BRANCH  19  21
HETATM   21  S   UNL     1     -12.522  11.319  70.777  1.00  0.00    -0.352 S  
HETATM   22  O   UNL     1     -13.390  10.848  69.711  1.00  0.00     0.156 OA 
HETATM   23  O   UNL     1     -12.978  11.310  72.153  1.00  0.00    -0.393 OA 
BRANCH  21  24
HETATM   24  C   UNL     1     -12.045  12.999  70.403  1.00  0.00    -0.314 A  
HETATM   25  C   UNL     1     -10.913  15.113  70.712  1.00  0.00    -0.253 A  
HETATM   26  N   UNL     1     -12.330  13.317  69.153  1.00  0.00    -0.102 NA 
HETATM   27  F   UNL     1     -11.273  17.837  69.808  1.00  0.00     0.583 F  
HETATM   28  C   UNL     1     -10.760  16.881  68.974  1.00  0.00    -0.308 C  
HETATM   29  F   UNL     1      -9.403  17.026  69.047  1.00  0.00    -0.258 F  
HETATM   30  C   UNL     1     -11.871  14.511  68.725  1.00  0.00    -0.315 A  
HETATM   31  F   UNL     1     -11.084  17.359  67.750  1.00  0.00    -0.346 F  
HETATM   32  C   UNL     1     -11.185  15.501  69.423  1.00  0.00    -0.302 A  
HETATM   33  C   UNL     1     -11.317  13.859  71.218  1.00  0.00     1.103 A  
ENDBRANCH  21  24
ENDBRANCH  19  21
ENDBRANCH  10  19
BRANCH  12  34
HETATM   34  C   UNL     1      -5.654  15.661  68.019  1.00  0.00    -0.140 C  
BRANCH  34  35
HETATM   35  C   UNL     1      -5.764  17.025  68.738  1.00  0.00    -0.144 C  
BRANCH  35  36
HETATM   36  C   UNL     1      -6.459  18.019  67.884  1.00  0.00    -0.188 A  
HETATM   37  C   UNL     1      -7.653  20.075  67.588  1.00  0.00    -0.327 A  
HETATM   38  C   UNL     1      -6.955  19.201  68.424  1.00  0.00    -0.303 A  
HETATM   39  C   UNL     1      -7.310  18.590  65.715  1.00  0.00    -0.179 A  
HETATM   40  C   UNL     1      -7.823  19.776  66.245  1.00  0.00    -0.340 A  
HETATM   41  C   UNL     1      -6.622  17.712  66.538  1.00  0.00    -0.262 A  
ENDBRANCH  35  36
ENDBRANCH  34  35
ENDBRANCH  12  34
BRANCH  12  42
HETATM   42  C   UNL     1      -6.533  14.945  70.332  1.00  0.00    -0.075 C  
BRANCH  42  43
HETATM   43  C   UNL     1      -5.572  14.167  71.260  1.00  0.00    -0.217 C  
HETATM   44  C   UNL     1      -5.568  14.349  72.777  1.00  0.00    -0.045 C  
ENDBRANCH  42  43
ENDBRANCH  12  42
TORSDOF 8
ENDMDL
MODEL      106
REMARK 921   NORMALIZED FREE ENERGY PREDICTED BY IDOCK:   -4.88 KCAL/MOL
REMARK 922        TOTAL FREE ENERGY PREDICTED BY IDOCK:   -9.16 KCAL/MOL
REMARK 923 INTER-LIGAND FREE ENERGY PREDICTED BY IDOCK:   -7.74 KCAL/MOL
REMARK 924 INTRA-LIGAND FREE ENERGY PREDICTED BY IDOCK:   -1.42 KCAL/MOL
REMARK 927      BINDING AFFINITY PREDICTED BY RF-SCORE:    0.00 PKD
ROOT
HETATM    1  C   UNL     1     -10.094  14.600  69.538  1.00  0.00     0.004 C  
HETATM    2  C   UNL     1     -10.355  15.442  68.260  1.00  0.00    -0.238 A  
HETATM    3  C   UNL     1     -11.341  14.357  70.413  1.00  0.00    -0.148 C  
HETATM    4  C   UNL     1      -9.269  13.293  69.309  1.00  0.00     0.820 C  
HETATM    5  C   UNL     1     -12.001  15.606  70.975  1.00  0.00    -0.445 C  
HETATM    6  C   UNL     1     -10.636  14.868  67.006  1.00  0.00    -0.289 A  
HETATM    7  C   UNL     1      -7.926  13.217  69.435  1.00  0.00     0.747 C  
HETATM    8  O   UNL     1      -7.160  14.323  69.769  1.00  0.00    -0.331 OA 
HETATM    9  C   UNL     1      -7.087  12.004  68.991  1.00  0.00    -0.077 C  
HETATM   10  C   UNL     1     -10.727  15.650  65.833  1.00  0.00    -0.329 A  
HETATM   11  C   UNL     1     -10.625  17.031  65.906  1.00  0.00    -0.221 A  
HETATM   12  C   UNL     1      -7.857  10.756  68.563  1.00  0.00    -0.122 C  
HETATM   13  C   UNL     1      -9.987  12.044  68.929  1.00  0.00     0.023 C  
HETATM   14  H   UNL     1      -6.215  14.269  69.858  1.00  0.00     0.000 HD 
HETATM   15  O   UNL     1      -9.287  10.962  68.528  1.00  0.00    -0.166 OA 
HETATM   16  C   UNL     1     -10.288  16.852  68.305  1.00  0.00    -0.335 A  
HETATM   17  O   UNL     1     -11.209  11.978  68.945  1.00  0.00    -0.227 OA 
HETATM   18  C   UNL     1     -10.440  17.636  67.147  1.00  0.00    -0.319 A  
ENDROOT
BRANCH  10  19
HETATM   19  N   UNL     1     -10.813  15.014  64.552  1.00  0.00    -0.633 N  
HETATM   20  H   UNL     1     -10.225  15.326  63.779  1.00  0.00     0.000 HD 
BRANCH  19  21
HETATM   21  S   UNL     1     -11.921  13.715  64.337  1.00  0.00    -0.447 S  
HETATM   22  O   UNL     1     -12.632  13.562  65.595  1.00  0.00    -0.469 OA 
HETATM   23  O   UNL     1     -12.648  13.960  63.107  1.00  0.00    -0.775 OA 
BRANCH  21  24
HETATM   24  C   UNL     1     -10.942  12.245  64.072  1.00  0.00    -0.383 A  
HETATM   25  C   UNL     1      -9.332  10.809  62.979  1.00  0.00    -0.344 A  
HETATM   26  N   UNL     1     -10.921  11.475  65.145  1.00  0.00    -0.267 NA 
HETATM   27  F   UNL     1      -8.769   7.973  62.892  1.00  0.00    -0.065 F  
HETATM   28  C   UNL     1      -8.414   8.728  63.977  1.00  0.00    -0.107 C  
HETATM   29  F   UNL     1      -7.101   9.051  63.780  1.00  0.00    -0.091 F  
HETATM   30  C   UNL     1     -10.085  10.418  65.102  1.00  0.00    -0.308 A  
HETATM   31  F   UNL     1      -8.391   7.812  64.973  1.00  0.00    -0.136 F  
HETATM   32  C   UNL     1      -9.273   9.969  64.064  1.00  0.00    -0.318 A  
HETATM   33  C   UNL     1     -10.145  11.963  62.967  1.00  0.00    -0.194 A  
ENDBRANCH  21  24
ENDBRANCH  19  21
ENDBRANCH  10  19
BRANCH  12  34
HETATM   34  C   UNL     1      -7.537   9.756  69.685  1.00  0.00    -0.120 C  
BRANCH  34  35
HETATM   35  C   UNL     1      -8.833   9.150  70.266  1.00  0.00    -0.238 C  
BRANCH  35  36
HETATM   36  C   UNL     1      -8.525   8.154  71.322  1.00  0.00    -0.154 A  
HETATM   37  C   UNL     1      -7.369   6.211  72.115  1.00  0.00    -0.093 A  
HETATM   38  C   UNL     1      -7.578   7.158  71.110  1.00  0.00    -0.085 A  
HETATM   39  C   UNL     1      -9.017   7.296  73.508  1.00  0.00    -0.215 A  
HETATM   40  C   UNL     1      -8.077   6.283  73.305  1.00  0.00    -0.109 A  
HETATM   41  C   UNL     1      -9.237   8.237  72.513  1.00  0.00    -0.339 A  
ENDBRANCH  35  36
ENDBRANCH  34  35
ENDBRANCH  12  34
BRANCH  12  42
HETATM   42  C   UNL     1      -7.470  10.118  67.135  1.00  0.00    -0.091 C  
BRANCH  42  43
HETATM   43  C   UNL     1      -6.121   9.367  67.065  1.00  0.00    -0.064 C  
HETATM   44  C   UNL     1      -5.902   8.005  67.723  1.00  0.00    -0.042 C  
ENDBRANCH  42  43
ENDBRANCH  12  42
TORSDOF 8
ENDMDL
MODEL      107
REMARK 921   NORMALIZED FREE ENERGY PREDICTED BY IDOCK:   -4.86 KCAL/MOL
REMARK 922        TOTAL FREE ENERGY PREDICTED BY IDOCK:   -9.12 KCAL/MOL
REMARK 923 INTER-LIGAND FREE ENERGY PREDICTED BY IDOCK:   -8.83 KCAL/MOL
REMARK 924 INTRA-LIGAND FREE ENERGY PREDICTED BY IDOCK:   -0.29 KCAL/MOL
REMARK 927      BINDING AFFINITY PREDICTED BY RF-SCORE:    0.00 PKD
ROOT
HETATM    1  C   UNL     1     -11.202  11.668  66.080  1.00  0.00    -0.299 C  
HETATM    2  C   UNL     1     -10.917  13.105  66.592  1.00  0.00    -0.301 A  
HETATM    3  C   UNL     1     -11.316  11.543  64.547  1.00  0.00    -0.250 C  
HETATM    4  C   UNL     1     -10.295  10.555  66.698  1.00  0.00    -0.295 C  
HETATM    5  C   UNL     1     -12.436  12.345  63.905  1.00  0.00    -0.573 C  
HETATM    6  C   UNL     1      -9.619  13.584  66.854  1.00  0.00    -0.258 A  
HETATM    7  C   UNL     1     -10.626   9.832  67.789  1.00  0.00    -0.266 C  
HETATM    8  O   UNL     1     -11.817  10.037  68.469  1.00  0.00    -0.575 OA 
HETATM    9  C   UNL     1      -9.650   8.903  68.536  1.00  0.00    -0.165 C  
HETATM   10  C   UNL     1      -9.398  14.843  67.454  1.00  0.00    -0.199 A  
HETATM   11  C   UNL     1     -10.466  15.684  67.725  1.00  0.00    -0.273 A  
HETATM   12  C   UNL     1      -8.293   8.659  67.875  1.00  0.00    -0.123 C  
HETATM   13  C   UNL     1      -8.982  10.259  66.059  1.00  0.00    -0.152 C  
HETATM   14  H   UNL     1     -12.050   9.528  69.236  1.00  0.00     0.000 HD 
HETATM   15  O   UNL     1      -8.096   9.455  66.686  1.00  0.00    -0.107 OA 
HETATM   16  C   UNL     1     -11.980  13.998  66.851  1.00  0.00    -0.479 A  
HETATM   17  O   UNL     1      -8.668  10.749  64.983  1.00  0.00    -0.191 OA 
HETATM   18  C   UNL     1     -11.756  15.277  67.392  1.00  0.00    -0.120 A  
ENDROOT
BRANCH  10  19
HETATM   19  N   UNL     1      -8.082  15.209  67.887  1.00  0.00    -0.131 N  
HETATM   20  H   UNL     1      -7.295  14.575  67.743  1.00  0.00     0.000 HD 
BRANCH  19  21
HETATM   21  S   UNL     1      -7.846  16.732  68.653  1.00  0.00    -0.250 S  
HETATM   22  O   UNL     1      -9.160  17.201  69.058  1.00  0.00    -0.230 OA 
HETATM   23  O   UNL     1      -6.790  16.569  69.633  1.00  0.00    -0.215 OA 
BRANCH  21  24
HETATM   24  C   UNL     1      -7.222  17.843  67.403  1.00  0.00    -0.184 A  
HETATM   25  C   UNL     1      -5.650  18.720  65.789  1.00  0.00    -0.202 A  
HETATM   26  N   UNL     1      -8.183  18.593  66.895  1.00  0.00    -0.254 NA 
HETATM   27  F   UNL     1      -5.169  21.262  64.495  1.00  0.00    -0.235 F  
HETATM   28  C   UNL     1      -6.204  20.458  64.102  1.00  0.00    -0.254 C  
HETATM   29  F   UNL     1      -5.732  19.759  63.027  1.00  0.00    -0.285 F  
HETATM   30  C   UNL     1      -7.845  19.356  65.837  1.00  0.00    -0.215 A  
HETATM   31  F   UNL     1      -7.077  21.345  63.571  1.00  0.00    -0.234 F  
HETATM   32  C   UNL     1      -6.607  19.526  65.223  1.00  0.00    -0.309 A  
HETATM   33  C   UNL     1      -5.938  17.857  66.867  1.00  0.00    -0.176 A  
ENDBRANCH  21  24
ENDBRANCH  19  21
ENDBRANCH  10  19
BRANCH  12  34
HETATM   34  C   UNL     1      -8.377   7.181  67.463  1.00  0.00    -0.116 C  
BRANCH  34  35
HETATM   35  C   UNL     1      -7.213   6.808  66.518  1.00  0.00    -0.073 C  
BRANCH  35  36
HETATM   36  C   UNL     1      -7.681   5.920  65.426  1.00  0.00    -0.093 A  
HETATM   37  C   UNL     1      -8.348   3.775  64.593  1.00  0.00    -0.097 A  
HETATM   38  C   UNL     1      -7.967   4.580  65.668  1.00  0.00    -0.095 A  
HETATM   39  C   UNL     1      -8.180   5.660  63.094  1.00  0.00    -0.091 A  
HETATM   40  C   UNL     1      -8.459   4.311  63.319  1.00  0.00    -0.104 A  
HETATM   41  C   UNL     1      -7.794   6.468  64.153  1.00  0.00    -0.111 A  
ENDBRANCH  35  36
ENDBRANCH  34  35
ENDBRANCH  12  34
BRANCH  12  42
HETATM   42  C   UNL     1      -6.988   8.899  68.787  1.00  0.00    -0.063 C  
BRANCH  42  43
HETATM   43  C   UNL     1      -6.509  10.363  68.925  1.00  0.00    -0.052 C  
HETATM   44  C   UNL     1      -6.279  11.028  70.281  1.00  0.00    -0.139 C  
ENDBRANCH  42  43
ENDBRANCH  12  42
TORSDOF 8
ENDMDL
MODEL      108
REMARK 921   NORMALIZED FREE ENERGY PREDICTED BY IDOCK:   -4.85 KCAL/MOL
REMARK 922        TOTAL FREE ENERGY PREDICTED BY IDOCK:   -9.11 KCAL/MOL
REMARK 923 INTER-LIGAND FREE ENERGY PREDICTED BY IDOCK:   -6.87 KCAL/MOL
REMARK 924 INTRA-LIGAND FREE ENERGY PREDICTED BY IDOCK:   -2.24 KCAL/MOL
REMARK 927      BINDING AFFINITY PREDICTED BY RF-SCORE:    0.00 PKD
ROOT
HETATM    1  C   UNL     1     -10.498   9.013  69.161  1.00  0.00    -0.239 C  
HETATM    2  C   UNL     1     -10.110   7.626  68.582  1.00  0.00    -0.201 A  
HETATM    3  C   UNL     1     -10.811   9.013  70.671  1.00  0.00    -0.295 C  
HETATM    4  C   UNL     1      -9.549  10.186  68.754  1.00  0.00    -0.170 C  
HETATM    5  C   UNL     1     -11.983   8.144  71.097  1.00  0.00    -0.296 C  
HETATM    6  C   UNL     1      -8.777   7.191  68.456  1.00  0.00    -0.126 A  
HETATM    7  C   UNL     1      -9.757  10.988  67.687  1.00  0.00    -0.168 C  
HETATM    8  O   UNL     1     -10.844  10.817  66.844  1.00  0.00    -0.263 OA 
HETATM    9  C   UNL     1      -8.718  11.989  67.148  1.00  0.00    -0.183 C  
HETATM   10  C   UNL     1      -8.446   5.987  67.795  1.00  0.00    -0.107 A  
HETATM   11  C   UNL     1      -9.447   5.153  67.323  1.00  0.00    -0.141 A  
HETATM   12  C   UNL     1      -7.465  12.204  67.996  1.00  0.00    -0.116 C  
HETATM   13  C   UNL     1      -8.338  10.453  69.579  1.00  0.00    -0.113 C  
HETATM   14  H   UNL     1     -10.990  11.382  66.094  1.00  0.00     0.000 HD 
HETATM   15  O   UNL     1      -7.401  11.319  69.137  1.00  0.00    -0.119 OA 
HETATM   16  C   UNL     1     -11.107   6.738  68.119  1.00  0.00    -0.229 A  
HETATM   17  O   UNL     1      -8.152   9.884  70.647  1.00  0.00    -0.240 OA 
HETATM   18  C   UNL     1     -10.780   5.510  67.515  1.00  0.00    -0.211 A  
ENDROOT
BRANCH  10  19
HETATM   19  N   UNL     1      -7.076   5.680  67.511  1.00  0.00    -0.072 N  
HETATM   20  H   UNL     1      -6.678   5.886  66.594  1.00  0.00     0.000 HD 
BRANCH  19  21
HETATM   21  S   UNL     1      -6.110   4.957  68.738  1.00  0.00    -0.031 S  
HETATM   22  O   UNL     1      -5.629   3.695  68.200  1.00  0.00    -0.016 OA 
HETATM   23  O   UNL     1      -5.173   5.960  69.205  1.00  0.00    -0.004 OA 
BRANCH  21  24
HETATM   24  C   UNL     1      -7.202   4.597  70.104  1.00  0.00    -0.050 A  
HETATM   25  C   UNL     1      -8.556   5.060  72.053  1.00  0.00    -0.127 A  
HETATM   26  N   UNL     1      -7.772   3.413  69.972  1.00  0.00    -0.044 NA 
HETATM   27  F   UNL     1      -9.616   3.548  74.280  1.00  0.00    -0.106 F  
HETATM   28  C   UNL     1     -10.181   3.459  73.037  1.00  0.00    -0.160 C  
HETATM   29  F   UNL     1     -11.235   4.329  73.054  1.00  0.00    -0.275 F  
HETATM   30  C   UNL     1      -8.731   3.112  70.871  1.00  0.00    -0.075 A  
HETATM   31  F   UNL     1     -10.755   2.234  73.065  1.00  0.00    -0.207 F  
HETATM   32  C   UNL     1      -9.179   3.839  71.970  1.00  0.00    -0.175 A  
HETATM   33  C   UNL     1      -7.578   5.469  71.122  1.00  0.00    -0.102 A  
ENDBRANCH  21  24
ENDBRANCH  19  21
ENDBRANCH  10  19
BRANCH  12  34
HETATM   34  C   UNL     1      -7.641  13.642  68.506  1.00  0.00    -0.130 C  
BRANCH  34  35
HETATM   35  C   UNL     1      -6.654  14.599  67.800  1.00  0.00    -0.189 C  
BRANCH  35  36
HETATM   36  C   UNL     1      -7.360  15.789  67.265  1.00  0.00    -0.257 A  
HETATM   37  C   UNL     1      -7.384  18.059  66.499  1.00  0.00    -0.273 A  
HETATM   38  C   UNL     1      -6.663  16.949  66.944  1.00  0.00    -0.252 A  
HETATM   39  C   UNL     1      -9.447  16.817  66.677  1.00  0.00    -0.275 A  
HETATM   40  C   UNL     1      -8.762  17.992  66.361  1.00  0.00    -0.249 A  
HETATM   41  C   UNL     1      -8.742  15.711  67.126  1.00  0.00    -0.233 A  
ENDBRANCH  35  36
ENDBRANCH  34  35
ENDBRANCH  12  34
BRANCH  12  42
HETATM   42  C   UNL     1      -6.046  12.058  67.247  1.00  0.00    -0.147 C  
BRANCH  42  43
HETATM   43  C   UNL     1      -5.955  10.961  66.163  1.00  0.00    -0.141 C  
HETATM   44  C   UNL     1      -6.108   9.474  66.482  1.00  0.00    -0.060 C  
ENDBRANCH  42  43
ENDBRANCH  12  42
TORSDOF 8
ENDMDL
MODEL      109
REMARK 921   NORMALIZED FREE ENERGY PREDICTED BY IDOCK:   -4.84 KCAL/MOL
REMARK 922        TOTAL FREE ENERGY PREDICTED BY IDOCK:   -9.09 KCAL/MOL
REMARK 923 INTER-LIGAND FREE ENERGY PREDICTED BY IDOCK:   -7.83 KCAL/MOL
REMARK 924 INTRA-LIGAND FREE ENERGY PREDICTED BY IDOCK:   -1.26 KCAL/MOL
REMARK 927      BINDING AFFINITY PREDICTED BY RF-SCORE:    0.00 PKD
ROOT
HETATM    1  C   UNL     1      -6.727  11.151  68.215  1.00  0.00    -0.059 C  
HETATM    2  C   UNL     1      -7.274  12.554  68.591  1.00  0.00    -0.103 A  
HETATM    3  C   UNL     1      -6.877  10.086  69.321  1.00  0.00    -0.059 C  
HETATM    4  C   UNL     1      -7.179  10.620  66.817  1.00  0.00    -0.119 C  
HETATM    5  C   UNL     1      -6.147  10.383  70.620  1.00  0.00    -0.096 C  
HETATM    6  C   UNL     1      -8.577  12.980  68.275  1.00  0.00    -0.167 A  
HETATM    7  C   UNL     1      -6.470  10.791  65.680  1.00  0.00    -0.042 C  
HETATM    8  O   UNL     1      -5.268  11.480  65.664  1.00  0.00    -0.479 OA 
HETATM    9  C   UNL     1      -7.012  10.476  64.273  1.00  0.00     0.121 C  
HETATM   10  C   UNL     1      -9.001  14.310  68.499  1.00  0.00    -0.185 A  
HETATM   11  C   UNL     1      -8.157  15.214  69.125  1.00  0.00    -0.214 A  
HETATM   12  C   UNL     1      -8.358   9.755  64.199  1.00  0.00    -0.168 C  
HETATM   13  C   UNL     1      -8.466   9.877  66.710  1.00  0.00    -0.125 C  
HETATM   14  H   UNL     1      -4.769  11.600  64.865  1.00  0.00     0.000 HD 
HETATM   15  O   UNL     1      -8.977   9.588  65.494  1.00  0.00    -0.166 OA 
HETATM   16  C   UNL     1      -6.450  13.491  69.255  1.00  0.00    -0.111 A  
HETATM   17  O   UNL     1      -9.095   9.539  67.705  1.00  0.00    -0.122 OA 
HETATM   18  C   UNL     1      -6.893  14.796  69.535  1.00  0.00    -0.169 A  
ENDROOT
BRANCH  10  19
HETATM   19  N   UNL     1     -10.261  14.757  67.983  1.00  0.00    -0.224 N  
HETATM   20  H   UNL     1     -10.488  15.751  67.963  1.00  0.00     0.000 HD 
BRANCH  19  21
HETATM   21  S   UNL     1     -11.384  13.593  67.395  1.00  0.00    -0.332 S  
HETATM   22  O   UNL     1     -12.621  14.307  67.127  1.00  0.00    -0.134 OA 
HETATM   23  O   UNL     1     -10.726  12.843  66.343  1.00  0.00    -0.266 OA 
BRANCH  21  24
HETATM   24  C   UNL     1     -11.683  12.449  68.734  1.00  0.00    -0.332 A  
HETATM   25  C   UNL     1     -12.268  11.745  70.972  1.00  0.00    -0.303 A  
HETATM   26  N   UNL     1     -11.819  11.211  68.293  1.00  0.00    -0.577 NA 
HETATM   27  F   UNL     1     -11.820   9.412  72.622  1.00  0.00    -0.183 F  
HETATM   28  C   UNL     1     -12.746   9.394  71.615  1.00  0.00    -0.374 C  
HETATM   29  F   UNL     1     -13.943   9.659  72.219  1.00  0.00    -0.423 F  
HETATM   30  C   UNL     1     -12.200  10.295  69.206  1.00  0.00     0.279 A  
HETATM   31  F   UNL     1     -12.811   8.079  71.303  1.00  0.00    -0.317 F  
HETATM   32  C   UNL     1     -12.419  10.440  70.573  1.00  0.00    -0.403 A  
HETATM   33  C   UNL     1     -11.919  12.770  70.067  1.00  0.00    -0.371 A  
ENDBRANCH  21  24
ENDBRANCH  19  21
ENDBRANCH  10  19
BRANCH  12  34
HETATM   34  C   UNL     1      -7.972   8.368  63.662  1.00  0.00    -0.159 C  
BRANCH  34  35
HETATM   35  C   UNL     1      -8.504   7.253  64.590  1.00  0.00     0.144 C  
BRANCH  35  36
HETATM   36  C   UNL     1      -7.481   6.862  65.589  1.00  0.00    -0.085 A  
HETATM   37  C   UNL     1      -6.845   6.144  67.785  1.00  0.00    -0.063 A  
HETATM   38  C   UNL     1      -7.850   6.444  66.864  1.00  0.00    -0.104 A  
HETATM   39  C   UNL     1      -5.155   6.648  66.136  1.00  0.00    -0.017 A  
HETATM   40  C   UNL     1      -5.510   6.239  67.423  1.00  0.00    -0.005 A  
HETATM   41  C   UNL     1      -6.145   6.957  65.216  1.00  0.00    -0.036 A  
ENDBRANCH  35  36
ENDBRANCH  34  35
ENDBRANCH  12  34
BRANCH  12  42
HETATM   42  C   UNL     1      -9.484  10.414  63.255  1.00  0.00    -0.361 C  
BRANCH  42  43
HETATM   43  C   UNL     1     -10.663  11.106  63.976  1.00  0.00    -0.409 C  
HETATM   44  C   UNL     1     -11.362  12.341  63.410  1.00  0.00    -0.508 C  
ENDBRANCH  42  43
ENDBRANCH  12  42
TORSDOF 8
ENDMDL
MODEL      110
REMARK 921   NORMALIZED FREE ENERGY PREDICTED BY IDOCK:   -4.83 KCAL/MOL
REMARK 922        TOTAL FREE ENERGY PREDICTED BY IDOCK:   -9.08 KCAL/MOL
REMARK 923 INTER-LIGAND FREE ENERGY PREDICTED BY IDOCK:   -7.17 KCAL/MOL
REMARK 924 INTRA-LIGAND FREE ENERGY PREDICTED BY IDOCK:   -1.91 KCAL/MOL
REMARK 927      BINDING AFFINITY PREDICTED BY RF-SCORE:    0.00 PKD
ROOT
HETATM    1  C   UNL     1      -8.933   6.306  66.864  1.00  0.00    -0.120 C  
HETATM    2  C   UNL     1      -8.409   5.314  67.937  1.00  0.00    -0.098 A  
HETATM    3  C   UNL     1     -10.468   6.346  66.720  1.00  0.00    -0.304 C  
HETATM    4  C   UNL     1      -8.307   7.736  66.928  1.00  0.00    -0.124 C  
HETATM    5  C   UNL     1     -11.121   5.039  66.302  1.00  0.00     0.253 C  
HETATM    6  C   UNL     1      -8.127   5.694  69.262  1.00  0.00    -0.096 A  
HETATM    7  C   UNL     1      -7.224   8.118  66.216  1.00  0.00    -0.078 C  
HETATM    8  O   UNL     1      -6.561   7.245  65.369  1.00  0.00    -0.046 OA 
HETATM    9  C   UNL     1      -6.468   9.441  66.443  1.00  0.00    -0.066 C  
HETATM   10  C   UNL     1      -7.517   4.807  70.177  1.00  0.00    -0.054 A  
HETATM   11  C   UNL     1      -7.258   3.496  69.810  1.00  0.00    -0.042 A  
HETATM   12  C   UNL     1      -7.110  10.444  67.401  1.00  0.00    -0.087 C  
HETATM   13  C   UNL     1      -8.928   8.755  67.819  1.00  0.00    -0.135 C  
HETATM   14  H   UNL     1      -5.799   7.513  64.868  1.00  0.00     0.000 HD 
HETATM   15  O   UNL     1      -8.293   9.925  68.048  1.00  0.00    -0.112 OA 
HETATM   16  C   UNL     1      -8.161   3.963  67.605  1.00  0.00    -0.093 A  
HETATM   17  O   UNL     1      -9.997   8.551  68.378  1.00  0.00    -0.175 OA 
HETATM   18  C   UNL     1      -7.611   3.062  68.535  1.00  0.00    -0.048 A  
ENDROOT
BRANCH  10  19
HETATM   19  N   UNL     1      -7.064   5.290  71.448  1.00  0.00    -0.064 N  
HETATM   20  H   UNL     1      -6.151   5.736  71.536  1.00  0.00     0.000 HD 
BRANCH  19  21
HETATM   21  S   UNL     1      -8.082   5.105  72.824  1.00  0.00    -0.109 S  
HETATM   22  O   UNL     1      -8.499   3.714  72.849  1.00  0.00    -0.085 OA 
HETATM   23  O   UNL     1      -7.391   5.686  73.959  1.00  0.00    -0.088 OA 
BRANCH  21  24
HETATM   24  C   UNL     1      -9.527   6.112  72.531  1.00  0.00    -0.143 A  
HETATM   25  C   UNL     1     -11.881   6.657  72.449  1.00  0.00    -0.226 A  
HETATM   26  N   UNL     1      -9.212   7.389  72.408  1.00  0.00    -0.136 NA 
HETATM   27  F   UNL     1     -13.543   8.579  71.067  1.00  0.00    -0.232 F  
HETATM   28  C   UNL     1     -12.772   8.955  72.133  1.00  0.00    -0.405 C  
HETATM   29  F   UNL     1     -13.608   8.926  73.214  1.00  0.00    -0.297 F  
HETATM   30  C   UNL     1     -10.246   8.252  72.339  1.00  0.00    -0.327 A  
HETATM   31  F   UNL     1     -12.571  10.272  71.897  1.00  0.00    -0.454 F  
HETATM   32  C   UNL     1     -11.615   7.998  72.314  1.00  0.00    -0.424 A  
HETATM   33  C   UNL     1     -10.854   5.698  72.577  1.00  0.00    -0.299 A  
ENDBRANCH  21  24
ENDBRANCH  19  21
ENDBRANCH  10  19
BRANCH  12  34
HETATM   34  C   UNL     1      -7.530  11.587  66.465  1.00  0.00    -0.022 C  
BRANCH  34  35
HETATM   35  C   UNL     1      -8.941  11.335  65.888  1.00  0.00    -0.206 C  
BRANCH  35  36
HETATM   36  C   UNL     1      -9.905  12.348  66.382  1.00  0.00    -0.249 A  
HETATM   37  C   UNL     1     -11.882  12.965  67.586  1.00  0.00    -0.400 A  
HETATM   38  C   UNL     1     -10.971  11.981  67.197  1.00  0.00    -0.320 A  
HETATM   39  C   UNL     1     -10.626  14.636  66.377  1.00  0.00    -0.301 A  
HETATM   40  C   UNL     1     -11.708  14.281  67.184  1.00  0.00    -0.430 A  
HETATM   41  C   UNL     1      -9.720  13.665  65.978  1.00  0.00    -0.239 A  
ENDBRANCH  35  36
ENDBRANCH  34  35
ENDBRANCH  12  34
BRANCH  12  42
HETATM   42  C   UNL     1      -6.178  11.019  68.582  1.00  0.00    -0.043 C  
BRANCH  42  43
HETATM   43  C   UNL     1      -6.567  12.404  69.148  1.00  0.00    -0.099 C  
HETATM   44  C   UNL     1      -5.689  13.161  70.143  1.00  0.00    -0.141 C  
ENDBRANCH  42  43
ENDBRANCH  12  42
TORSDOF 8
ENDMDL
MODEL      111
REMARK 921   NORMALIZED FREE ENERGY PREDICTED BY IDOCK:   -4.78 KCAL/MOL
REMARK 922        TOTAL FREE ENERGY PREDICTED BY IDOCK:   -9.01 KCAL/MOL
REMARK 923 INTER-LIGAND FREE ENERGY PREDICTED BY IDOCK:   -7.43 KCAL/MOL
REMARK 924 INTRA-LIGAND FREE ENERGY PREDICTED BY IDOCK:   -1.58 KCAL/MOL
REMARK 927      BINDING AFFINITY PREDICTED BY RF-SCORE:    0.00 PKD
ROOT
HETATM    1  C   UNL     1      -8.618   5.084  69.619  1.00  0.00    -0.099 C  
HETATM    2  C   UNL     1      -8.804   6.228  70.651  1.00  0.00    -0.144 A  
HETATM    3  C   UNL     1      -9.733   4.019  69.633  1.00  0.00    -0.245 C  
HETATM    4  C   UNL     1      -8.266   5.553  68.171  1.00  0.00    -0.096 C  
HETATM    5  C   UNL     1      -9.896   3.257  70.938  1.00  0.00    -0.085 C  
HETATM    6  C   UNL     1      -9.429   7.450  70.339  1.00  0.00    -0.165 A  
HETATM    7  C   UNL     1      -7.004   5.677  67.704  1.00  0.00    -0.066 C  
HETATM    8  O   UNL     1      -5.901   5.406  68.498  1.00  0.00    -0.015 OA 
HETATM    9  C   UNL     1      -6.643   6.353  66.368  1.00  0.00    -0.048 C  
HETATM   10  C   UNL     1      -9.458   8.527  71.253  1.00  0.00    -0.205 A  
HETATM   11  C   UNL     1      -8.937   8.372  72.529  1.00  0.00    -0.308 A  
HETATM   12  C   UNL     1      -7.807   6.726  65.450  1.00  0.00    -0.115 C  
HETATM   13  C   UNL     1      -9.373   5.888  67.232  1.00  0.00    -0.113 C  
HETATM   14  H   UNL     1      -5.013   5.493  68.170  1.00  0.00     0.000 HD 
HETATM   15  O   UNL     1      -9.097   6.487  66.054  1.00  0.00    -0.151 OA 
HETATM   16  C   UNL     1      -8.312   6.093  71.969  1.00  0.00    -0.114 A  
HETATM   17  O   UNL     1     -10.542   5.657  67.513  1.00  0.00    -0.233 OA 
HETATM   18  C   UNL     1      -8.395   7.144  72.900  1.00  0.00    -0.124 A  
ENDROOT
BRANCH  10  19
HETATM   19  N   UNL     1      -9.922   9.815  70.829  1.00  0.00    -0.339 N  
HETATM   20  H   UNL     1      -9.258  10.560  70.616  1.00  0.00     0.000 HD 
BRANCH  19  21
HETATM   21  S   UNL     1     -11.615  10.086  70.683  1.00  0.00    -0.363 S  
HETATM   22  O   UNL     1     -12.211   8.813  70.317  1.00  0.00     0.185 OA 
HETATM   23  O   UNL     1     -12.050  10.783  71.878  1.00  0.00     0.021 OA 
BRANCH  21  24
HETATM   24  C   UNL     1     -11.837  11.216  69.319  1.00  0.00    -0.352 A  
HETATM   25  C   UNL     1     -11.969  13.355  68.198  1.00  0.00    -0.356 A  
HETATM   26  N   UNL     1     -11.752  10.596  68.156  1.00  0.00    -0.466 NA 
HETATM   27  F   UNL     1     -13.144  14.377  65.760  1.00  0.00    -0.482 F  
HETATM   28  C   UNL     1     -11.993  13.638  65.730  1.00  0.00    -0.395 C  
HETATM   29  F   UNL     1     -10.977  14.551  65.689  1.00  0.00    -0.293 F  
HETATM   30  C   UNL     1     -11.751  11.383  67.061  1.00  0.00     0.090 A  
HETATM   31  F   UNL     1     -12.020  13.108  64.485  1.00  0.00    -0.360 F  
HETATM   32  C   UNL     1     -11.890  12.765  66.960  1.00  0.00    -0.428 A  
HETATM   33  C   UNL     1     -11.926  12.603  69.391  1.00  0.00    -0.318 A  
ENDBRANCH  21  24
ENDBRANCH  19  21
ENDBRANCH  10  19
BRANCH  12  34
HETATM   34  C   UNL     1      -7.635   5.756  64.271  1.00  0.00    -0.082 C  
BRANCH  34  35
HETATM   35  C   UNL     1      -8.971   5.561  63.521  1.00  0.00     0.342 C  
BRANCH  35  36
HETATM   36  C   UNL     1      -9.184   4.133  63.180  1.00  0.00    -0.129 A  
HETATM   37  C   UNL     1      -8.368   1.978  62.524  1.00  0.00    -0.072 A  
HETATM   38  C   UNL     1      -8.108   3.299  62.896  1.00  0.00    -0.073 A  
HETATM   39  C   UNL     1     -10.740   2.356  62.763  1.00  0.00    -0.177 A  
HETATM   40  C   UNL     1      -9.671   1.510  62.464  1.00  0.00    -0.088 A  
HETATM   41  C   UNL     1     -10.494   3.671  63.127  1.00  0.00    -0.225 A  
ENDBRANCH  35  36
ENDBRANCH  34  35
ENDBRANCH  12  34
BRANCH  12  42
HETATM   42  C   UNL     1      -7.848   8.243  64.909  1.00  0.00    -0.126 C  
BRANCH  42  43
HETATM   43  C   UNL     1      -9.004   9.125  65.434  1.00  0.00    -0.255 C  
HETATM   44  C   UNL     1      -9.759  10.108  64.540  1.00  0.00    -0.361 C  
ENDBRANCH  42  43
ENDBRANCH  12  42
TORSDOF 8
ENDMDL
MODEL      112
REMARK 921   NORMALIZED FREE ENERGY PREDICTED BY IDOCK:   -4.77 KCAL/MOL
REMARK 922        TOTAL FREE ENERGY PREDICTED BY IDOCK:   -8.99 KCAL/MOL
REMARK 923 INTER-LIGAND FREE ENERGY PREDICTED BY IDOCK:   -7.98 KCAL/MOL
REMARK 924 INTRA-LIGAND FREE ENERGY PREDICTED BY IDOCK:   -1.00 KCAL/MOL
REMARK 927      BINDING AFFINITY PREDICTED BY RF-SCORE:    0.00 PKD
ROOT
HETATM    1  C   UNL     1      -7.768  11.817  67.580  1.00  0.00    -0.143 C  
HETATM    2  C   UNL     1      -8.559  10.616  68.164  1.00  0.00    -0.123 A  
HETATM    3  C   UNL     1      -7.523  11.746  66.059  1.00  0.00     0.578 C  
HETATM    4  C   UNL     1      -8.275  13.224  68.032  1.00  0.00    -0.162 C  
HETATM    5  C   UNL     1      -6.708  10.555  65.581  1.00  0.00    -0.110 C  
HETATM    6  C   UNL     1      -9.956  10.629  68.338  1.00  0.00    -0.176 A  
HETATM    7  C   UNL     1      -7.784  13.896  69.096  1.00  0.00     0.109 C  
HETATM    8  O   UNL     1      -6.781  13.370  69.894  1.00  0.00    -0.343 OA 
HETATM    9  C   UNL     1      -8.428  15.167  69.683  1.00  0.00    -0.064 C  
HETATM   10  C   UNL     1     -10.633   9.582  69.003  1.00  0.00    -0.219 A  
HETATM   11  C   UNL     1      -9.936   8.461  69.430  1.00  0.00    -0.191 A  
HETATM   12  C   UNL     1      -9.575  15.788  68.885  1.00  0.00    -0.229 C  
HETATM   13  C   UNL     1      -9.365  13.880  67.257  1.00  0.00    -0.231 C  
HETATM   14  H   UNL     1      -6.436  13.843  70.643  1.00  0.00     0.000 HD 
HETATM   15  O   UNL     1      -9.958  14.992  67.741  1.00  0.00    -0.227 OA 
HETATM   16  C   UNL     1      -7.885   9.447  68.581  1.00  0.00    -0.088 A  
HETATM   17  O   UNL     1      -9.760  13.421  66.194  1.00  0.00    -0.282 OA 
HETATM   18  C   UNL     1      -8.567   8.377  69.188  1.00  0.00    -0.134 A  
ENDROOT
BRANCH  10  19
HETATM   19  N   UNL     1     -12.018   9.724  69.338  1.00  0.00    -0.274 N  
HETATM   20  H   UNL     1     -12.724   9.785  68.604  1.00  0.00     0.000 HD 
BRANCH  19  21
HETATM   21  S   UNL     1     -12.475   9.790  70.996  1.00  0.00    -0.311 S  
HETATM   22  O   UNL     1     -11.628  10.790  71.622  1.00  0.00     0.268 OA 
HETATM   23  O   UNL     1     -13.919   9.915  71.047  1.00  0.00    -0.088 OA 
BRANCH  21  24
HETATM   24  C   UNL     1     -12.072   8.200  71.702  1.00  0.00    -0.304 A  
HETATM   25  C   UNL     1     -11.954   5.788  71.835  1.00  0.00     0.065 A  
HETATM   26  N   UNL     1     -11.184   8.311  72.674  1.00  0.00    -0.376 NA 
HETATM   27  F   UNL     1     -11.629   3.816  73.926  1.00  0.00    -0.229 F  
HETATM   28  C   UNL     1     -10.563   4.548  73.478  1.00  0.00    -0.235 C  
HETATM   29  F   UNL     1      -9.940   3.754  72.556  1.00  0.00    -0.185 F  
HETATM   30  C   UNL     1     -10.697   7.156  73.169  1.00  0.00    -0.346 A  
HETATM   31  F   UNL     1      -9.733   4.538  74.547  1.00  0.00    -0.127 F  
HETATM   32  C   UNL     1     -11.033   5.842  72.853  1.00  0.00    -0.303 A  
HETATM   33  C   UNL     1     -12.474   6.953  71.232  1.00  0.00    -0.409 A  
ENDBRANCH  21  24
ENDBRANCH  19  21
ENDBRANCH  10  19
BRANCH  12  34
HETATM   34  C   UNL     1      -8.964  17.104  68.380  1.00  0.00    -0.259 C  
BRANCH  34  35
HETATM   35  C   UNL     1      -7.571  16.859  67.757  1.00  0.00    -0.180 C  
BRANCH  35  36
HETATM   36  C   UNL     1      -7.016  18.113  67.191  1.00  0.00    -0.211 A  
HETATM   37  C   UNL     1      -6.231  20.365  67.426  1.00  0.00    -0.260 A  
HETATM   38  C   UNL     1      -6.695  19.187  68.015  1.00  0.00    -0.259 A  
HETATM   39  C   UNL     1      -6.389  19.356  65.238  1.00  0.00    -0.307 A  
HETATM   40  C   UNL     1      -6.074  20.446  66.051  1.00  0.00    -0.226 A  
HETATM   41  C   UNL     1      -6.858  18.184  65.812  1.00  0.00    -0.305 A  
ENDBRANCH  35  36
ENDBRANCH  34  35
ENDBRANCH  12  34
BRANCH  12  42
HETATM   42  C   UNL     1     -10.938  16.090  69.688  1.00  0.00    -0.326 C  
BRANCH  42  43
HETATM   43  C   UNL     1     -11.614  14.878  70.369  1.00  0.00    -0.330 C  
HETATM   44  C   UNL     1     -13.051  14.922  70.887  1.00  0.00    -0.430 C  
ENDBRANCH  42  43
ENDBRANCH  12  42
TORSDOF 8
ENDMDL
MODEL      113
REMARK 921   NORMALIZED FREE ENERGY PREDICTED BY IDOCK:   -4.75 KCAL/MOL
REMARK 922        TOTAL FREE ENERGY PREDICTED BY IDOCK:   -8.97 KCAL/MOL
REMARK 923 INTER-LIGAND FREE ENERGY PREDICTED BY IDOCK:   -6.89 KCAL/MOL
REMARK 924 INTRA-LIGAND FREE ENERGY PREDICTED BY IDOCK:   -2.07 KCAL/MOL
REMARK 927      BINDING AFFINITY PREDICTED BY RF-SCORE:    0.00 PKD
ROOT
HETATM    1  C   UNL     1     -11.094  11.661  68.366  1.00  0.00    -0.285 C  
HETATM    2  C   UNL     1     -10.737  13.095  68.842  1.00  0.00    -0.202 A  
HETATM    3  C   UNL     1     -11.100  11.475  66.835  1.00  0.00    -0.366 C  
HETATM    4  C   UNL     1     -10.325  10.514  69.098  1.00  0.00    -0.240 C  
HETATM    5  C   UNL     1     -12.103  12.328  66.076  1.00  0.00    -0.229 C  
HETATM    6  C   UNL     1      -9.431  13.488  69.186  1.00  0.00     0.453 A  
HETATM    7  C   UNL     1     -10.794   9.868  70.188  1.00  0.00    -0.304 C  
HETATM    8  O   UNL     1     -12.013  10.192  70.762  1.00  0.00    -0.297 OA 
HETATM    9  C   UNL     1      -9.952   8.905  71.046  1.00  0.00    -0.324 C  
HETATM   10  C   UNL     1      -9.158  14.754  69.751  1.00  0.00     0.335 A  
HETATM   11  C   UNL     1     -10.176  15.683  69.903  1.00  0.00    -0.297 A  
HETATM   12  C   UNL     1      -8.572   8.530  70.505  1.00  0.00    -0.147 C  
HETATM   13  C   UNL     1      -8.994  10.092  68.578  1.00  0.00    -0.127 C  
HETATM   14  H   UNL     1     -12.342   9.738  71.529  1.00  0.00     0.000 HD 
HETATM   15  O   UNL     1      -8.224   9.254  69.304  1.00  0.00    -0.101 OA 
HETATM   16  C   UNL     1     -11.745  14.076  68.980  1.00  0.00    -0.368 A  
HETATM   17  O   UNL     1      -8.563  10.508  67.511  1.00  0.00    -0.121 OA 
HETATM   18  C   UNL     1     -11.464  15.358  69.485  1.00  0.00    -0.330 A  
ENDROOT
BRANCH  10  19
HETATM   19  N   UNL     1      -7.854  15.040  70.272  1.00  0.00    -0.107 N  
HETATM   20  H   UNL     1      -7.643  14.875  71.256  1.00  0.00     0.000 HD 
BRANCH  19  21
HETATM   21  S   UNL     1      -6.651  15.666  69.213  1.00  0.00    -0.163 S  
HETATM   22  O   UNL     1      -5.658  16.317  70.051  1.00  0.00    -0.164 OA 
HETATM   23  O   UNL     1      -6.264  14.599  68.311  1.00  0.00    -0.101 OA 
BRANCH  21  24
HETATM   24  C   UNL     1      -7.444  16.919  68.219  1.00  0.00    -0.192 A  
HETATM   25  C   UNL     1      -8.543  17.857  66.280  1.00  0.00    -0.207 A  
HETATM   26  N   UNL     1      -7.818  17.954  68.950  1.00  0.00    -0.234 NA 
HETATM   27  F   UNL     1      -8.979  20.501  65.189  1.00  0.00     0.137 F  
HETATM   28  C   UNL     1      -9.704  20.054  66.260  1.00  0.00    -0.433 C  
HETATM   29  F   UNL     1     -10.875  19.584  65.735  1.00  0.00    -0.536 F  
HETATM   30  C   UNL     1      -8.564  18.886  68.322  1.00  0.00    -0.330 A  
HETATM   31  F   UNL     1     -10.051  21.207  66.878  1.00  0.00    -0.422 F  
HETATM   32  C   UNL     1      -8.956  18.959  66.988  1.00  0.00    -0.306 A  
HETATM   33  C   UNL     1      -7.803  16.816  66.879  1.00  0.00    -0.253 A  
ENDBRANCH  21  24
ENDBRANCH  19  21
ENDBRANCH  10  19
BRANCH  12  34
HETATM   34  C   UNL     1      -8.739   7.045  70.147  1.00  0.00    -0.141 C  
BRANCH  34  35
HETATM   35  C   UNL     1      -7.396   6.439  69.682  1.00  0.00    -0.080 C  
BRANCH  35  36
HETATM   36  C   UNL     1      -7.014   5.283  70.530  1.00  0.00    -0.052 A  
HETATM   37  C   UNL     1      -7.539   3.579  72.131  1.00  0.00    -0.058 A  
HETATM   38  C   UNL     1      -7.962   4.623  71.306  1.00  0.00    -0.088 A  
HETATM   39  C   UNL     1      -5.268   3.864  71.361  1.00  0.00     0.000 A  
HETATM   40  C   UNL     1      -6.205   3.199  72.153  1.00  0.00    -0.014 A  
HETATM   41  C   UNL     1      -5.676   4.907  70.544  1.00  0.00    -0.016 A  
ENDBRANCH  35  36
ENDBRANCH  34  35
ENDBRANCH  12  34
BRANCH  12  42
HETATM   42  C   UNL     1      -7.325   8.715  71.507  1.00  0.00    -0.118 C  
BRANCH  42  43
HETATM   43  C   UNL     1      -7.642   8.632  73.018  1.00  0.00     0.054 C  
HETATM   44  C   UNL     1      -7.296   7.407  73.864  1.00  0.00    -0.118 C  
ENDBRANCH  42  43
ENDBRANCH  12  42
TORSDOF 8
ENDMDL
MODEL      114
REMARK 921   NORMALIZED FREE ENERGY PREDICTED BY IDOCK:   -4.72 KCAL/MOL
REMARK 922        TOTAL FREE ENERGY PREDICTED BY IDOCK:   -8.93 KCAL/MOL
REMARK 923 INTER-LIGAND FREE ENERGY PREDICTED BY IDOCK:   -6.89 KCAL/MOL
REMARK 924 INTRA-LIGAND FREE ENERGY PREDICTED BY IDOCK:   -2.03 KCAL/MOL
REMARK 927      BINDING AFFINITY PREDICTED BY RF-SCORE:    0.00 PKD
ROOT
HETATM    1  C   UNL     1     -11.714  12.970  68.345  1.00  0.00    -0.386 C  
HETATM    2  C   UNL     1     -10.375  13.748  68.247  1.00  0.00    -0.247 A  
HETATM    3  C   UNL     1     -12.456  12.798  67.004  1.00  0.00     0.466 C  
HETATM    4  C   UNL     1     -11.645  11.637  69.157  1.00  0.00    -0.378 C  
HETATM    5  C   UNL     1     -12.878  14.087  66.317  1.00  0.00    -0.047 C  
HETATM    6  C   UNL     1      -9.128  13.114  68.092  1.00  0.00    -0.200 A  
HETATM    7  C   UNL     1     -11.923  11.543  70.476  1.00  0.00    -0.344 C  
HETATM    8  O   UNL     1     -12.285  12.649  71.228  1.00  0.00    -0.295 OA 
HETATM    9  C   UNL     1     -11.638  10.292  71.329  1.00  0.00    -0.318 C  
HETATM   10  C   UNL     1      -7.914  13.835  68.151  1.00  0.00    -0.150 A  
HETATM   11  C   UNL     1      -7.928  15.215  68.279  1.00  0.00    -0.129 A  
HETATM   12  C   UNL     1     -11.190   9.037  70.579  1.00  0.00    -0.260 C  
HETATM   13  C   UNL     1     -11.251  10.384  68.455  1.00  0.00    -0.258 C  
HETATM   14  H   UNL     1     -12.481  12.583  72.156  1.00  0.00     0.000 HD 
HETATM   15  O   UNL     1     -10.986   9.269  69.168  1.00  0.00    -0.175 OA 
HETATM   16  C   UNL     1     -10.355  15.157  68.344  1.00  0.00    -0.229 A  
HETATM   17  O   UNL     1     -11.134  10.343  67.237  1.00  0.00    -0.278 OA 
HETATM   18  C   UNL     1      -9.149  15.882  68.340  1.00  0.00    -0.189 A  
ENDROOT
BRANCH  10  19
HETATM   19  N   UNL     1      -6.666  13.133  68.191  1.00  0.00    -0.096 N  
HETATM   20  H   UNL     1      -5.937  13.409  68.850  1.00  0.00     0.000 HD 
BRANCH  19  21
HETATM   21  S   UNL     1      -6.412  11.816  67.112  1.00  0.00    -0.146 S  
HETATM   22  O   UNL     1      -7.634  11.671  66.339  1.00  0.00    -0.056 OA 
HETATM   23  O   UNL     1      -5.143  12.036  66.445  1.00  0.00    -0.337 OA 
BRANCH  21  24
HETATM   24  C   UNL     1      -6.217  10.357  68.121  1.00  0.00    -0.051 A  
HETATM   25  C   UNL     1      -5.245   8.940  69.824  1.00  0.00    -0.030 A  
HETATM   26  N   UNL     1      -7.285   9.582  68.066  1.00  0.00    -0.081 NA 
HETATM   27  F   UNL     1      -5.190   6.110  70.418  1.00  0.00    -0.011 F  
HETATM   28  C   UNL     1      -6.302   6.862  70.681  1.00  0.00    -0.046 C  
HETATM   29  F   UNL     1      -6.209   7.198  72.002  1.00  0.00    -0.040 F  
HETATM   30  C   UNL     1      -7.302   8.532  68.913  1.00  0.00    -0.086 A  
HETATM   31  F   UNL     1      -7.293   5.942  70.636  1.00  0.00    -0.073 F  
HETATM   32  C   UNL     1      -6.328   8.096  69.806  1.00  0.00    -0.036 A  
HETATM   33  C   UNL     1      -5.175  10.087  69.004  1.00  0.00    -0.035 A  
ENDBRANCH  21  24
ENDBRANCH  19  21
ENDBRANCH  10  19
BRANCH  12  34
HETATM   34  C   UNL     1     -12.390   8.093  70.749  1.00  0.00     0.051 C  
BRANCH  34  35
HETATM   35  C   UNL     1     -12.113   6.727  70.082  1.00  0.00    -0.139 C  
BRANCH  35  36
HETATM   36  C   UNL     1     -11.408   5.815  71.016  1.00  0.00    -0.122 A  
HETATM   37  C   UNL     1      -9.763   4.137  71.483  1.00  0.00    -0.243 A  
HETATM   38  C   UNL     1     -10.353   5.021  70.578  1.00  0.00    -0.285 A  
HETATM   39  C   UNL     1     -11.259   4.887  73.223  1.00  0.00    -0.423 A  
HETATM   40  C   UNL     1     -10.208   4.076  72.795  1.00  0.00    -0.229 A  
HETATM   41  C   UNL     1     -11.858   5.763  72.330  1.00  0.00    -0.227 A  
ENDBRANCH  35  36
ENDBRANCH  34  35
ENDBRANCH  12  34
BRANCH  12  42
HETATM   42  C   UNL     1      -9.849   8.317  71.105  1.00  0.00    -0.219 C  
BRANCH  42  43
HETATM   43  C   UNL     1      -9.424   8.638  72.557  1.00  0.00    -0.247 C  
HETATM   44  C   UNL     1      -8.761   7.605  73.466  1.00  0.00    -0.267 C  
ENDBRANCH  42  43
ENDBRANCH  12  42
TORSDOF 8
ENDMDL
MODEL      115
REMARK 921   NORMALIZED FREE ENERGY PREDICTED BY IDOCK:   -4.71 KCAL/MOL
REMARK 922        TOTAL FREE ENERGY PREDICTED BY IDOCK:   -8.91 KCAL/MOL
REMARK 923 INTER-LIGAND FREE ENERGY PREDICTED BY IDOCK:   -7.15 KCAL/MOL
REMARK 924 INTRA-LIGAND FREE ENERGY PREDICTED BY IDOCK:   -1.75 KCAL/MOL
REMARK 927      BINDING AFFINITY PREDICTED BY RF-SCORE:    0.00 PKD
ROOT
HETATM    1  C   UNL     1     -10.624  13.488  65.797  1.00  0.00    -0.283 C  
HETATM    2  C   UNL     1     -10.084  12.257  65.021  1.00  0.00    -0.277 A  
HETATM    3  C   UNL     1     -11.943  13.240  66.558  1.00  0.00    -0.448 C  
HETATM    4  C   UNL     1      -9.566  14.230  66.675  1.00  0.00    -0.302 C  
HETATM    5  C   UNL     1     -13.133  12.850  65.697  1.00  0.00     0.689 C  
HETATM    6  C   UNL     1      -9.143  11.361  65.561  1.00  0.00    -0.149 A  
HETATM    7  C   UNL     1      -8.839  15.286  66.248  1.00  0.00    -0.227 C  
HETATM    8  O   UNL     1      -8.969  15.792  64.964  1.00  0.00     0.480 OA 
HETATM    9  C   UNL     1      -7.641  15.873  67.017  1.00  0.00    -0.264 C  
HETATM   10  C   UNL     1      -8.561  10.335  64.783  1.00  0.00    -0.184 A  
HETATM   11  C   UNL     1      -8.975  10.131  63.476  1.00  0.00    -0.265 A  
HETATM   12  C   UNL     1      -7.399  15.336  68.427  1.00  0.00    -0.114 C  
HETATM   13  C   UNL     1      -9.330  13.762  68.069  1.00  0.00    -0.199 C  
HETATM   14  H   UNL     1      -8.457  16.534  64.664  1.00  0.00     0.000 HD 
HETATM   15  O   UNL     1      -8.286  14.249  68.774  1.00  0.00    -0.145 OA 
HETATM   16  C   UNL     1     -10.507  12.002  63.697  1.00  0.00    -0.494 A  
HETATM   17  O   UNL     1     -10.048  12.920  68.592  1.00  0.00    -0.212 OA 
HETATM   18  C   UNL     1      -9.974  10.942  62.942  1.00  0.00    -0.251 A  
ENDROOT
BRANCH  10  19
HETATM   19  N   UNL     1      -7.465   9.574  65.306  1.00  0.00    -0.104 N  
HETATM   20  H   UNL     1      -6.531   9.982  65.358  1.00  0.00     0.000 HD 
BRANCH  19  21
HETATM   21  S   UNL     1      -7.745   7.964  65.844  1.00  0.00    -0.097 S  
HETATM   22  O   UNL     1      -8.755   7.402  64.964  1.00  0.00     0.031 OA 
HETATM   23  O   UNL     1      -6.454   7.320  65.986  1.00  0.00    -0.043 OA 
BRANCH  21  24
HETATM   24  C   UNL     1      -8.443   8.086  67.483  1.00  0.00    -0.127 A  
HETATM   25  C   UNL     1      -8.762   8.983  69.706  1.00  0.00    -0.148 A  
HETATM   26  N   UNL     1      -9.561   7.390  67.588  1.00  0.00    -0.135 NA 
HETATM   27  F   UNL     1      -9.807   8.022  72.226  1.00  0.00    -0.217 F  
HETATM   28  C   UNL     1     -10.647   8.366  71.203  1.00  0.00    -0.215 C  
HETATM   29  F   UNL     1     -11.035   9.649  71.468  1.00  0.00    -0.402 F  
HETATM   30  C   UNL     1     -10.248   7.540  68.738  1.00  0.00    -0.197 A  
HETATM   31  F   UNL     1     -11.745   7.621  71.465  1.00  0.00    -0.262 F  
HETATM   32  C   UNL     1      -9.929   8.278  69.874  1.00  0.00    -0.190 A  
HETATM   33  C   UNL     1      -8.012   8.917  68.512  1.00  0.00    -0.104 A  
ENDBRANCH  21  24
ENDBRANCH  19  21
ENDBRANCH  10  19
BRANCH  12  34
HETATM   34  C   UNL     1      -7.741  16.544  69.314  1.00  0.00    -0.140 C  
BRANCH  34  35
HETATM   35  C   UNL     1      -6.542  17.514  69.405  1.00  0.00    -0.207 C  
BRANCH  35  36
HETATM   36  C   UNL     1      -6.677  18.616  68.421  1.00  0.00    -0.255 A  
HETATM   37  C   UNL     1      -5.800  20.001  66.674  1.00  0.00    -0.183 A  
HETATM   38  C   UNL     1      -5.644  18.916  67.539  1.00  0.00    -0.165 A  
HETATM   39  C   UNL     1      -8.004  20.423  67.566  1.00  0.00    -0.329 A  
HETATM   40  C   UNL     1      -6.971  20.743  66.683  1.00  0.00    -0.311 A  
HETATM   41  C   UNL     1      -7.856  19.353  68.435  1.00  0.00    -0.377 A  
ENDBRANCH  35  36
ENDBRANCH  34  35
ENDBRANCH  12  34
BRANCH  12  42
HETATM   42  C   UNL     1      -5.912  14.815  68.761  1.00  0.00    -0.084 C  
BRANCH  42  43
HETATM   43  C   UNL     1      -5.791  13.777  69.900  1.00  0.00    -0.126 C  
HETATM   44  C   UNL     1      -5.976  14.146  71.372  1.00  0.00    -0.119 C  
ENDBRANCH  42  43
ENDBRANCH  12  42
TORSDOF 8
ENDMDL
MODEL      116
REMARK 921   NORMALIZED FREE ENERGY PREDICTED BY IDOCK:   -4.66 KCAL/MOL
REMARK 922        TOTAL FREE ENERGY PREDICTED BY IDOCK:   -8.83 KCAL/MOL
REMARK 923 INTER-LIGAND FREE ENERGY PREDICTED BY IDOCK:   -7.04 KCAL/MOL
REMARK 924 INTRA-LIGAND FREE ENERGY PREDICTED BY IDOCK:   -1.79 KCAL/MOL
REMARK 927      BINDING AFFINITY PREDICTED BY RF-SCORE:    0.00 PKD
ROOT
HETATM    1  C   UNL     1     -10.138  14.294  67.175  1.00  0.00    -0.254 C  
HETATM    2  C   UNL     1     -10.071  12.752  67.344  1.00  0.00    -0.219 A  
HETATM    3  C   UNL     1     -11.526  14.910  67.448  1.00  0.00    -0.354 C  
HETATM    4  C   UNL     1      -8.991  15.085  67.881  1.00  0.00    -0.175 C  
HETATM    5  C   UNL     1     -12.645  14.433  66.537  1.00  0.00     0.009 C  
HETATM    6  C   UNL     1      -9.674  12.128  68.541  1.00  0.00    -0.153 A  
HETATM    7  C   UNL     1      -7.837  15.442  67.275  1.00  0.00    -0.206 C  
HETATM    8  O   UNL     1      -7.572  15.112  65.955  1.00  0.00     0.612 OA 
HETATM    9  C   UNL     1      -6.615  16.014  68.019  1.00  0.00    -0.145 C  
HETATM   10  C   UNL     1      -9.484  10.730  68.624  1.00  0.00    -0.188 A  
HETATM   11  C   UNL     1      -9.770   9.922  67.534  1.00  0.00    -0.193 A  
HETATM   12  C   UNL     1      -6.810  16.364  69.494  1.00  0.00    -0.187 C  
HETATM   13  C   UNL     1      -9.159  15.480  69.308  1.00  0.00    -0.266 C  
HETATM   14  H   UNL     1      -6.761  15.364  65.529  1.00  0.00     0.000 HD 
HETATM   15  O   UNL     1      -8.109  15.979  69.995  1.00  0.00     0.351 OA 
HETATM   16  C   UNL     1     -10.384  11.898  66.263  1.00  0.00    -0.259 A  
HETATM   17  O   UNL     1     -10.227  15.339  69.889  1.00  0.00    -0.263 OA 
HETATM   18  C   UNL     1     -10.253  10.501  66.364  1.00  0.00    -0.296 A  
ENDROOT
BRANCH  10  19
HETATM   19  N   UNL     1      -8.889  10.156  69.794  1.00  0.00    -0.351 N  
HETATM   20  H   UNL     1      -9.358  10.224  70.699  1.00  0.00     0.000 HD 
BRANCH  19  21
HETATM   21  S   UNL     1      -7.374   9.353  69.654  1.00  0.00    -0.087 S  
HETATM   22  O   UNL     1      -6.686   9.956  68.526  1.00  0.00    -0.054 OA 
HETATM   23  O   UNL     1      -6.761   9.344  70.968  1.00  0.00    -0.096 OA 
BRANCH  21  24
HETATM   24  C   UNL     1      -7.732   7.653  69.242  1.00  0.00    -0.104 A  
HETATM   25  C   UNL     1      -7.362   5.476  68.257  1.00  0.00    -0.073 A  
HETATM   26  N   UNL     1      -8.698   7.163  69.998  1.00  0.00    -0.141 NA 
HETATM   27  F   UNL     1      -8.997   3.218  67.483  1.00  0.00    -0.115 F  
HETATM   28  C   UNL     1      -8.700   3.453  68.798  1.00  0.00    -0.100 C  
HETATM   29  F   UNL     1      -7.628   2.652  69.077  1.00  0.00    -0.047 F  
HETATM   30  C   UNL     1      -8.938   5.842  69.872  1.00  0.00    -0.139 A  
HETATM   31  F   UNL     1      -9.736   2.865  69.440  1.00  0.00    -0.223 F  
HETATM   32  C   UNL     1      -8.360   4.911  69.013  1.00  0.00    -0.082 A  
HETATM   33  C   UNL     1      -7.018   6.839  68.367  1.00  0.00    -0.077 A  
ENDBRANCH  21  24
ENDBRANCH  19  21
ENDBRANCH  10  19
BRANCH  12  34
HETATM   34  C   UNL     1      -6.724  17.898  69.494  1.00  0.00    -0.092 C  
BRANCH  34  35
HETATM   35  C   UNL     1      -6.779  18.451  68.052  1.00  0.00    -0.217 C  
BRANCH  35  36
HETATM   36  C   UNL     1      -8.162  18.845  67.688  1.00  0.00    -0.290 A  
HETATM   37  C   UNL     1      -9.804  19.538  66.087  1.00  0.00    -0.490 A  
HETATM   38  C   UNL     1      -8.504  19.114  66.367  1.00  0.00    -0.325 A  
HETATM   39  C   UNL     1     -10.381  19.379  68.426  1.00  0.00    -0.461 A  
HETATM   40  C   UNL     1     -10.736  19.663  67.106  1.00  0.00    -0.587 A  
HETATM   41  C   UNL     1      -9.090  18.964  68.716  1.00  0.00    -0.352 A  
ENDBRANCH  35  36
ENDBRANCH  34  35
ENDBRANCH  12  34
BRANCH  12  42
HETATM   42  C   UNL     1      -5.740  15.756  70.532  1.00  0.00    -0.069 C  
BRANCH  42  43
HETATM   43  C   UNL     1      -6.023  14.327  71.049  1.00  0.00    -0.181 C  
HETATM   44  C   UNL     1      -6.051  13.109  70.125  1.00  0.00    -0.099 C  
ENDBRANCH  42  43
ENDBRANCH  12  42
TORSDOF 8
ENDMDL
MODEL      117
REMARK 921   NORMALIZED FREE ENERGY PREDICTED BY IDOCK:   -4.66 KCAL/MOL
REMARK 922        TOTAL FREE ENERGY PREDICTED BY IDOCK:   -8.83 KCAL/MOL
REMARK 923 INTER-LIGAND FREE ENERGY PREDICTED BY IDOCK:   -8.29 KCAL/MOL
REMARK 924 INTRA-LIGAND FREE ENERGY PREDICTED BY IDOCK:   -0.54 KCAL/MOL
REMARK 927      BINDING AFFINITY PREDICTED BY RF-SCORE:    0.00 PKD
ROOT
HETATM    1  C   UNL     1     -11.521  12.172  66.645  1.00  0.00    -0.426 C  
HETATM    2  C   UNL     1     -11.100  13.580  67.146  1.00  0.00    -0.308 A  
HETATM    3  C   UNL     1     -11.919  12.113  65.156  1.00  0.00    -0.324 C  
HETATM    4  C   UNL     1     -10.552  11.013  67.044  1.00  0.00    -0.303 C  
HETATM    5  C   UNL     1     -13.112  12.969  64.762  1.00  0.00    -0.022 C  
HETATM    6  C   UNL     1      -9.762  14.015  67.180  1.00  0.00    -0.242 A  
HETATM    7  C   UNL     1     -10.699  10.254  68.152  1.00  0.00    -0.246 C  
HETATM    8  O   UNL     1     -11.737  10.461  69.047  1.00  0.00    -0.462 OA 
HETATM    9  C   UNL     1      -9.632   9.272  68.671  1.00  0.00    -0.152 C  
HETATM   10  C   UNL     1      -9.394  15.243  67.773  1.00  0.00    -0.196 A  
HETATM   11  C   UNL     1     -10.366  16.098  68.268  1.00  0.00    -0.266 A  
HETATM   12  C   UNL     1      -8.429   9.021  67.762  1.00  0.00    -0.117 C  
HETATM   13  C   UNL     1      -9.389  10.711  66.163  1.00  0.00    -0.177 C  
HETATM   14  H   UNL     1     -11.841   9.927  69.826  1.00  0.00     0.000 HD 
HETATM   15  O   UNL     1      -8.429   9.860  66.586  1.00  0.00    -0.124 OA 
HETATM   16  C   UNL     1     -12.069  14.488  67.630  1.00  0.00    -0.266 A  
HETATM   17  O   UNL     1      -9.263  11.237  65.066  1.00  0.00    -0.203 OA 
HETATM   18  C   UNL     1     -11.708  15.738  68.165  1.00  0.00    -0.175 A  
ENDROOT
BRANCH  10  19
HETATM   19  N   UNL     1      -8.009  15.558  67.967  1.00  0.00    -0.130 N  
HETATM   20  H   UNL     1      -7.285  14.886  67.709  1.00  0.00     0.000 HD 
BRANCH  19  21
HETATM   21  S   UNL     1      -7.585  17.083  68.641  1.00  0.00    -0.246 S  
HETATM   22  O   UNL     1      -8.808  17.656  69.177  1.00  0.00    -0.071 OA 
HETATM   23  O   UNL     1      -6.434  16.877  69.500  1.00  0.00    -0.226 OA 
BRANCH  21  24
HETATM   24  C   UNL     1      -7.039  18.108  67.286  1.00  0.00    -0.194 A  
HETATM   25  C   UNL     1      -5.552  18.898  65.550  1.00  0.00    -0.214 A  
HETATM   26  N   UNL     1      -8.040  18.788  66.757  1.00  0.00    -0.256 NA 
HETATM   27  F   UNL     1      -5.195  21.342  64.044  1.00  0.00    -0.227 F  
HETATM   28  C   UNL     1      -6.218  20.480  63.754  1.00  0.00    -0.204 C  
HETATM   29  F   UNL     1      -5.763  19.711  62.720  1.00  0.00    -0.312 F  
HETATM   30  C   UNL     1      -7.763  19.474  65.630  1.00  0.00    -0.071 A  
HETATM   31  F   UNL     1      -7.136  21.298  63.188  1.00  0.00    -0.183 F  
HETATM   32  C   UNL     1      -6.553  19.629  64.959  1.00  0.00    -0.264 A  
HETATM   33  C   UNL     1      -5.775  18.115  66.702  1.00  0.00    -0.178 A  
ENDBRANCH  21  24
ENDBRANCH  19  21
ENDBRANCH  10  19
BRANCH  12  34
HETATM   34  C   UNL     1      -8.635   7.564  67.321  1.00  0.00    -0.118 C  
BRANCH  34  35
HETATM   35  C   UNL     1      -7.699   6.616  68.103  1.00  0.00    -0.105 C  
BRANCH  35  36
HETATM   36  C   UNL     1      -8.420   5.969  69.227  1.00  0.00    -0.115 A  
HETATM   37  C   UNL     1      -8.926   5.750  71.559  1.00  0.00    -0.146 A  
HETATM   38  C   UNL     1      -8.272   6.431  70.531  1.00  0.00    -0.118 A  
HETATM   39  C   UNL     1      -9.872   4.206  69.961  1.00  0.00    -0.245 A  
HETATM   40  C   UNL     1      -9.723   4.651  71.276  1.00  0.00    -0.251 A  
HETATM   41  C   UNL     1      -9.220   4.871  68.934  1.00  0.00    -0.164 A  
ENDBRANCH  35  36
ENDBRANCH  34  35
ENDBRANCH  12  34
BRANCH  12  42
HETATM   42  C   UNL     1      -6.971   9.191  68.424  1.00  0.00    -0.068 C  
BRANCH  42  43
HETATM   43  C   UNL     1      -6.879  10.137  69.643  1.00  0.00    -0.087 C  
HETATM   44  C   UNL     1      -6.781  11.655  69.500  1.00  0.00    -0.089 C  
ENDBRANCH  42  43
ENDBRANCH  12  42
TORSDOF 8
ENDMDL
MODEL      118
REMARK 921   NORMALIZED FREE ENERGY PREDICTED BY IDOCK:   -4.65 KCAL/MOL
REMARK 922        TOTAL FREE ENERGY PREDICTED BY IDOCK:   -8.82 KCAL/MOL
REMARK 923 INTER-LIGAND FREE ENERGY PREDICTED BY IDOCK:   -7.01 KCAL/MOL
REMARK 924 INTRA-LIGAND FREE ENERGY PREDICTED BY IDOCK:   -1.80 KCAL/MOL
REMARK 927      BINDING AFFINITY PREDICTED BY RF-SCORE:    0.00 PKD
ROOT
HETATM    1  C   UNL     1     -10.201  12.611  67.277  1.00  0.00    -0.227 C  
HETATM    2  C   UNL     1      -9.838  11.688  66.083  1.00  0.00    -0.250 A  
HETATM    3  C   UNL     1     -10.623  11.865  68.559  1.00  0.00    -0.245 C  
HETATM    4  C   UNL     1      -9.170  13.748  67.567  1.00  0.00    -0.216 C  
HETATM    5  C   UNL     1     -11.863  10.995  68.433  1.00  0.00    -0.254 C  
HETATM    6  C   UNL     1      -8.522  11.275  65.802  1.00  0.00    -0.018 A  
HETATM    7  C   UNL     1      -9.261  14.996  67.057  1.00  0.00    -0.230 C  
HETATM    8  O   UNL     1     -10.290  15.365  66.206  1.00  0.00    -0.271 OA 
HETATM    9  C   UNL     1      -8.138  16.047  67.149  1.00  0.00    -0.232 C  
HETATM   10  C   UNL     1      -8.202  10.555  64.629  1.00  0.00    -0.088 A  
HETATM   11  C   UNL     1      -9.205  10.160  63.758  1.00  0.00    -0.321 A  
HETATM   12  C   UNL     1      -6.942  15.700  68.034  1.00  0.00    -0.129 C  
HETATM   13  C   UNL     1      -8.011  13.461  68.458  1.00  0.00    -0.107 C  
HETATM   14  H   UNL     1     -10.354  16.243  65.847  1.00  0.00     0.000 HD 
HETATM   15  O   UNL     1      -7.004  14.355  68.560  1.00  0.00    -0.088 OA 
HETATM   16  C   UNL     1     -10.840  11.242  65.191  1.00  0.00    -0.268 A  
HETATM   17  O   UNL     1      -7.931  12.415  69.087  1.00  0.00     0.179 OA 
HETATM   18  C   UNL     1     -10.529  10.472  64.055  1.00  0.00     0.032 A  
ENDROOT
BRANCH  10  19
HETATM   19  N   UNL     1      -6.831  10.329  64.281  1.00  0.00    -0.268 N  
HETATM   20  H   UNL     1      -6.332  10.991  63.685  1.00  0.00     0.000 HD 
BRANCH  19  21
HETATM   21  S   UNL     1      -6.036   8.925  64.880  1.00  0.00    -0.064 S  
HETATM   22  O   UNL     1      -5.127   8.484  63.836  1.00  0.00    -0.047 OA 
HETATM   23  O   UNL     1      -5.536   9.238  66.205  1.00  0.00    -0.042 OA 
BRANCH  21  24
HETATM   24  C   UNL     1      -7.293   7.674  65.086  1.00  0.00    -0.076 A  
HETATM   25  C   UNL     1      -8.522   5.651  64.593  1.00  0.00    -0.085 A  
HETATM   26  N   UNL     1      -7.854   7.741  66.280  1.00  0.00    -0.088 NA 
HETATM   27  F   UNL     1     -11.153   4.600  65.176  1.00  0.00    -0.303 F  
HETATM   28  C   UNL     1     -10.174   4.612  66.131  1.00  0.00    -0.277 C  
HETATM   29  F   UNL     1      -9.621   3.362  66.099  1.00  0.00    -0.175 F  
HETATM   30  C   UNL     1      -8.706   6.745  66.592  1.00  0.00    -0.127 A  
HETATM   31  F   UNL     1     -10.888   4.635  67.280  1.00  0.00    -0.059 F  
HETATM   32  C   UNL     1      -9.141   5.671  65.819  1.00  0.00    -0.139 A  
HETATM   33  C   UNL     1      -7.581   6.630  64.212  1.00  0.00    -0.104 A  
ENDBRANCH  21  24
ENDBRANCH  19  21
ENDBRANCH  10  19
BRANCH  12  34
HETATM   34  C   UNL     1      -7.086  16.686  69.204  1.00  0.00    -0.226 C  
BRANCH  34  35
HETATM   35  C   UNL     1      -8.172  17.743  68.900  1.00  0.00    -0.147 C  
BRANCH  35  36
HETATM   36  C   UNL     1      -7.561  19.011  68.434  1.00  0.00    -0.343 A  
HETATM   37  C   UNL     1      -7.539  20.946  67.021  1.00  0.00    -0.252 A  
HETATM   38  C   UNL     1      -8.186  19.792  67.467  1.00  0.00    -0.347 A  
HETATM   39  C   UNL     1      -5.702  20.525  68.529  1.00  0.00    -0.336 A  
HETATM   40  C   UNL     1      -6.312  21.312  67.552  1.00  0.00    -0.416 A  
HETATM   41  C   UNL     1      -6.332  19.372  68.974  1.00  0.00    -0.314 A  
ENDBRANCH  35  36
ENDBRANCH  34  35
ENDBRANCH  12  34
BRANCH  12  42
HETATM   42  C   UNL     1      -5.481  15.846  67.372  1.00  0.00    -0.046 C  
BRANCH  42  43
HETATM   43  C   UNL     1      -5.150  17.219  66.743  1.00  0.00    -0.195 C  
HETATM   44  C   UNL     1      -5.681  17.646  65.375  1.00  0.00     0.195 C  
ENDBRANCH  42  43
ENDBRANCH  12  42
TORSDOF 8
ENDMDL
MODEL      119
REMARK 921   NORMALIZED FREE ENERGY PREDICTED BY IDOCK:   -4.64 KCAL/MOL
REMARK 922        TOTAL FREE ENERGY PREDICTED BY IDOCK:   -8.80 KCAL/MOL
REMARK 923 INTER-LIGAND FREE ENERGY PREDICTED BY IDOCK:   -6.70 KCAL/MOL
REMARK 924 INTRA-LIGAND FREE ENERGY PREDICTED BY IDOCK:   -2.10 KCAL/MOL
REMARK 927      BINDING AFFINITY PREDICTED BY RF-SCORE:    0.00 PKD
ROOT
HETATM    1  C   UNL     1      -6.992   9.833  69.043  1.00  0.00    -0.058 C  
HETATM    2  C   UNL     1      -6.828   9.968  67.505  1.00  0.00    -0.081 A  
HETATM    3  C   UNL     1      -7.033  11.173  69.805  1.00  0.00    -0.053 C  
HETATM    4  C   UNL     1      -8.122   8.857  69.502  1.00  0.00    -0.101 C  
HETATM    5  C   UNL     1      -5.786  12.034  69.685  1.00  0.00    -0.095 C  
HETATM    6  C   UNL     1      -7.918   9.986  66.615  1.00  0.00    -0.115 A  
HETATM    7  C   UNL     1      -7.923   7.550  69.783  1.00  0.00    -0.124 C  
HETATM    8  O   UNL     1      -6.674   6.960  69.666  1.00  0.00    -0.047 OA 
HETATM    9  C   UNL     1      -9.059   6.535  70.010  1.00  0.00    -0.150 C  
HETATM   10  C   UNL     1      -7.736   9.965  65.214  1.00  0.00    -0.129 A  
HETATM   11  C   UNL     1      -6.459  10.013  64.677  1.00  0.00    -0.125 A  
HETATM   12  C   UNL     1     -10.476   7.100  70.106  1.00  0.00    -0.216 C  
HETATM   13  C   UNL     1      -9.510   9.378  69.647  1.00  0.00    -0.189 C  
HETATM   14  H   UNL     1      -6.534   6.041  69.864  1.00  0.00     0.000 HD 
HETATM   15  O   UNL     1     -10.534   8.520  69.841  1.00  0.00    -0.210 OA 
HETATM   16  C   UNL     1      -5.542  10.048  66.925  1.00  0.00    -0.046 A  
HETATM   17  O   UNL     1      -9.756  10.574  69.567  1.00  0.00    -0.202 OA 
HETATM   18  C   UNL     1      -5.362  10.089  65.531  1.00  0.00    -0.058 A  
ENDROOT
BRANCH  10  19
HETATM   19  N   UNL     1      -8.863   9.782  64.349  1.00  0.00    -0.211 N  
HETATM   20  H   UNL     1      -9.202   8.844  64.133  1.00  0.00     0.000 HD 
BRANCH  19  21
HETATM   21  S   UNL     1      -9.636  11.166  63.678  1.00  0.00    -0.303 S  
HETATM   22  O   UNL     1      -8.656  11.816  62.824  1.00  0.00    -0.061 OA 
HETATM   23  O   UNL     1     -10.910  10.736  63.137  1.00  0.00     0.104 OA 
BRANCH  21  24
HETATM   24  C   UNL     1      -9.997  12.261  65.041  1.00  0.00    -0.205 A  
HETATM   25  C   UNL     1     -10.044  14.341  66.273  1.00  0.00    -0.308 A  
HETATM   26  N   UNL     1     -10.895  11.741  65.857  1.00  0.00    -0.283 NA 
HETATM   27  F   UNL     1     -10.327  15.134  69.041  1.00  0.00    -0.210 F  
HETATM   28  C   UNL     1     -11.410  14.725  68.312  1.00  0.00    -0.301 C  
HETATM   29  F   UNL     1     -12.002  15.873  67.865  1.00  0.00    -0.199 F  
HETATM   30  C   UNL     1     -11.352  12.551  66.833  1.00  0.00    -0.326 A  
HETATM   31  F   UNL     1     -12.248  14.265  69.270  1.00  0.00    -0.337 F  
HETATM   32  C   UNL     1     -10.974  13.852  67.157  1.00  0.00    -0.298 A  
HETATM   33  C   UNL     1      -9.555  13.572  65.197  1.00  0.00     0.187 A  
ENDBRANCH  21  24
ENDBRANCH  19  21
ENDBRANCH  10  19
BRANCH  12  34
HETATM   34  C   UNL     1     -10.836   6.867  71.582  1.00  0.00    -0.252 C  
BRANCH  34  35
HETATM   35  C   UNL     1      -9.779   5.974  72.270  1.00  0.00    -0.172 C  
BRANCH  35  36
HETATM   36  C   UNL     1     -10.304   4.604  72.490  1.00  0.00    -0.259 A  
HETATM   37  C   UNL     1     -11.881   3.081  73.454  1.00  0.00     0.142 A  
HETATM   38  C   UNL     1     -11.464   4.394  73.228  1.00  0.00    -0.282 A  
HETATM   39  C   UNL     1     -10.008   2.244  72.182  1.00  0.00    -0.231 A  
HETATM   40  C   UNL     1     -11.164   2.016  72.931  1.00  0.00    -0.072 A  
HETATM   41  C   UNL     1      -9.580   3.543  71.958  1.00  0.00    -0.212 A  
ENDBRANCH  35  36
ENDBRANCH  34  35
ENDBRANCH  12  34
BRANCH  12  42
HETATM   42  C   UNL     1     -11.591   6.429  69.158  1.00  0.00    -0.096 C  
BRANCH  42  43
HETATM   43  C   UNL     1     -11.116   5.974  67.759  1.00  0.00    -0.216 C  
HETATM   44  C   UNL     1     -10.471   6.932  66.758  1.00  0.00    -0.300 C  
ENDBRANCH  42  43
ENDBRANCH  12  42
TORSDOF 8
ENDMDL
MODEL      120
REMARK 921   NORMALIZED FREE ENERGY PREDICTED BY IDOCK:   -4.60 KCAL/MOL
REMARK 922        TOTAL FREE ENERGY PREDICTED BY IDOCK:   -8.74 KCAL/MOL
REMARK 923 INTER-LIGAND FREE ENERGY PREDICTED BY IDOCK:   -6.88 KCAL/MOL
REMARK 924 INTRA-LIGAND FREE ENERGY PREDICTED BY IDOCK:   -1.86 KCAL/MOL
REMARK 927      BINDING AFFINITY PREDICTED BY RF-SCORE:    0.00 PKD
ROOT
HETATM    1  C   UNL     1     -11.652  12.192  67.200  1.00  0.00    -0.405 C  
HETATM    2  C   UNL     1     -10.887  13.300  67.973  1.00  0.00    -0.261 A  
HETATM    3  C   UNL     1     -11.993  12.548  65.739  1.00  0.00    -0.482 C  
HETATM    4  C   UNL     1     -11.048  10.758  67.334  1.00  0.00    -0.363 C  
HETATM    5  C   UNL     1     -12.894  13.757  65.552  1.00  0.00    -0.464 C  
HETATM    6  C   UNL     1      -9.484  13.339  68.071  1.00  0.00    -0.219 A  
HETATM    7  C   UNL     1     -11.438   9.859  68.264  1.00  0.00     0.173 C  
HETATM    8  O   UNL     1     -12.416  10.154  69.201  1.00  0.00    -0.412 OA 
HETATM    9  C   UNL     1     -10.697   8.539  68.550  1.00  0.00    -0.080 C  
HETATM   10  C   UNL     1      -8.821  14.273  68.899  1.00  0.00    -0.022 A  
HETATM   11  C   UNL     1      -9.545  15.241  69.576  1.00  0.00    -0.219 A  
HETATM   12  C   UNL     1      -9.572   8.160  67.588  1.00  0.00    -0.152 C  
HETATM   13  C   UNL     1      -9.976  10.335  66.389  1.00  0.00    -0.229 C  
HETATM   14  H   UNL     1     -12.690   9.522  69.856  1.00  0.00     0.000 HD 
HETATM   15  O   UNL     1      -9.299   9.188  66.610  1.00  0.00    -0.156 OA 
HETATM   16  C   UNL     1     -11.592  14.319  68.651  1.00  0.00    -0.352 A  
HETATM   17  O   UNL     1      -9.671  11.019  65.421  1.00  0.00    -0.208 OA 
HETATM   18  C   UNL     1     -10.929  15.288  69.426  1.00  0.00    -0.271 A  
ENDROOT
BRANCH  10  19
HETATM   19  N   UNL     1      -7.411  14.152  69.128  1.00  0.00    -0.269 N  
HETATM   20  H   UNL     1      -6.935  14.790  69.767  1.00  0.00     0.000 HD 
BRANCH  19  21
HETATM   21  S   UNL     1      -6.534  12.919  68.311  1.00  0.00    -0.100 S  
HETATM   22  O   UNL     1      -7.331  12.534  67.159  1.00  0.00    -0.137 OA 
HETATM   23  O   UNL     1      -5.174  13.391  68.137  1.00  0.00    -0.089 OA 
BRANCH  21  24
HETATM   24  C   UNL     1      -6.456  11.523  69.422  1.00  0.00    -0.111 A  
HETATM   25  C   UNL     1      -5.543  10.105  71.155  1.00  0.00    -0.074 A  
HETATM   26  N   UNL     1      -7.624  10.914  69.519  1.00  0.00    -0.101 NA 
HETATM   27  F   UNL     1      -5.835   7.348  71.981  1.00  0.00    -0.037 F  
HETATM   28  C   UNL     1      -6.801   8.275  72.268  1.00  0.00    -0.088 C  
HETATM   29  F   UNL     1      -6.540   8.688  73.544  1.00  0.00    -0.127 F  
HETATM   30  C   UNL     1      -7.712   9.943  70.450  1.00  0.00    -0.070 A  
HETATM   31  F   UNL     1      -7.912   7.511  72.381  1.00  0.00    -0.094 F  
HETATM   32  C   UNL     1      -6.731   9.432  71.296  1.00  0.00    -0.008 A  
HETATM   33  C   UNL     1      -5.387  11.166  70.238  1.00  0.00    -0.092 A  
ENDBRANCH  21  24
ENDBRANCH  19  21
ENDBRANCH  10  19
BRANCH  12  34
HETATM   34  C   UNL     1     -10.146   6.935  66.859  1.00  0.00    -0.286 C  
BRANCH  34  35
HETATM   35  C   UNL     1      -9.146   6.404  65.808  1.00  0.00    -0.021 C  
BRANCH  35  36
HETATM   36  C   UNL     1      -8.691   5.035  66.153  1.00  0.00    -0.120 A  
HETATM   37  C   UNL     1      -7.098   3.249  66.031  1.00  0.00    -0.062 A  
HETATM   38  C   UNL     1      -7.452   4.566  65.729  1.00  0.00    -0.081 A  
HETATM   39  C   UNL     1      -9.192   2.930  67.190  1.00  0.00    -0.189 A  
HETATM   40  C   UNL     1      -7.957   2.442  66.761  1.00  0.00    -0.073 A  
HETATM   41  C   UNL     1      -9.557   4.234  66.888  1.00  0.00    -0.225 A  
ENDBRANCH  35  36
ENDBRANCH  34  35
ENDBRANCH  12  34
BRANCH  12  42
HETATM   42  C   UNL     1      -8.149   7.789  68.244  1.00  0.00    -0.124 C  
BRANCH  42  43
HETATM   43  C   UNL     1      -8.152   6.644  69.282  1.00  0.00    -0.116 C  
HETATM   44  C   UNL     1      -6.971   5.690  69.457  1.00  0.00    -0.063 C  
ENDBRANCH  42  43
ENDBRANCH  12  42
TORSDOF 8
ENDMDL
MODEL      121
REMARK 921   NORMALIZED FREE ENERGY PREDICTED BY IDOCK:   -4.59 KCAL/MOL
REMARK 922        TOTAL FREE ENERGY PREDICTED BY IDOCK:   -8.73 KCAL/MOL
REMARK 923 INTER-LIGAND FREE ENERGY PREDICTED BY IDOCK:   -8.19 KCAL/MOL
REMARK 924 INTRA-LIGAND FREE ENERGY PREDICTED BY IDOCK:   -0.54 KCAL/MOL
REMARK 927      BINDING AFFINITY PREDICTED BY RF-SCORE:    0.00 PKD
ROOT
HETATM    1  C   UNL     1     -10.527   7.933  70.239  1.00  0.00    -0.225 C  
HETATM    2  C   UNL     1     -11.116   9.350  70.006  1.00  0.00    -0.248 A  
HETATM    3  C   UNL     1     -11.495   6.775  69.923  1.00  0.00    -0.355 C  
HETATM    4  C   UNL     1      -9.108   7.700  69.626  1.00  0.00    -0.147 C  
HETATM    5  C   UNL     1     -12.767   6.739  70.755  1.00  0.00    -0.039 C  
HETATM    6  C   UNL     1     -10.950  10.063  68.805  1.00  0.00    -0.242 A  
HETATM    7  C   UNL     1      -7.954   7.885  70.305  1.00  0.00    -0.102 C  
HETATM    8  O   UNL     1      -7.941   8.320  71.620  1.00  0.00    -0.106 OA 
HETATM    9  C   UNL     1      -6.560   7.882  69.649  1.00  0.00    -0.038 C  
HETATM   10  C   UNL     1     -11.371  11.405  68.672  1.00  0.00    -0.265 A  
HETATM   11  C   UNL     1     -12.045  12.031  69.709  1.00  0.00    -0.317 A  
HETATM   12  C   UNL     1      -6.491   7.457  68.183  1.00  0.00    -0.046 C  
HETATM   13  C   UNL     1      -8.999   7.247  68.211  1.00  0.00    -0.125 C  
HETATM   14  H   UNL     1      -7.130   8.450  72.098  1.00  0.00     0.000 HD 
HETATM   15  O   UNL     1      -7.795   7.236  67.600  1.00  0.00    -0.109 OA 
HETATM   16  C   UNL     1     -11.833  10.005  71.032  1.00  0.00    -0.476 A  
HETATM   17  O   UNL     1      -9.984   6.904  67.571  1.00  0.00    -0.133 OA 
HETATM   18  C   UNL     1     -12.308  11.320  70.878  1.00  0.00    -0.490 A  
ENDROOT
BRANCH  10  19
HETATM   19  N   UNL     1     -11.006  12.159  67.509  1.00  0.00    -0.244 N  
HETATM   20  H   UNL     1     -10.372  11.763  66.814  1.00  0.00     0.000 HD 
BRANCH  19  21
HETATM   21  S   UNL     1     -11.652  13.740  67.300  1.00  0.00    -0.384 S  
HETATM   22  O   UNL     1     -12.309  13.753  66.005  1.00  0.00    -0.434 OA 
HETATM   23  O   UNL     1     -12.392  14.072  68.502  1.00  0.00    -0.265 OA 
BRANCH  21  24
HETATM   24  C   UNL     1     -10.261  14.856  67.228  1.00  0.00    -0.241 A  
HETATM   25  C   UNL     1      -7.945  15.516  67.002  1.00  0.00    -0.268 A  
HETATM   26  N   UNL     1     -10.649  16.106  67.048  1.00  0.00    -0.310 NA 
HETATM   27  F   UNL     1      -6.334  17.804  67.736  1.00  0.00    -0.162 F  
HETATM   28  C   UNL     1      -7.187  17.858  66.668  1.00  0.00    -0.219 C  
HETATM   29  F   UNL     1      -6.414  17.595  65.572  1.00  0.00    -0.230 F  
HETATM   30  C   UNL     1      -9.670  17.006  66.826  1.00  0.00    -0.269 A  
HETATM   31  F   UNL     1      -7.459  19.181  66.579  1.00  0.00    -0.215 F  
HETATM   32  C   UNL     1      -8.289  16.832  66.815  1.00  0.00    -0.272 A  
HETATM   33  C   UNL     1      -8.914  14.508  67.192  1.00  0.00    -0.244 A  
ENDBRANCH  21  24
ENDBRANCH  19  21
ENDBRANCH  10  19
BRANCH  12  34
HETATM   34  C   UNL     1      -5.756   6.110  68.253  1.00  0.00    -0.012 C  
BRANCH  34  35
HETATM   35  C   UNL     1      -6.262   5.270  69.448  1.00  0.00    -0.029 C  
BRANCH  35  36
HETATM   36  C   UNL     1      -7.305   4.309  69.016  1.00  0.00    -0.055 A  
HETATM   37  C   UNL     1      -9.283   3.020  69.425  1.00  0.00    -0.214 A  
HETATM   38  C   UNL     1      -8.361   3.975  69.858  1.00  0.00    -0.081 A  
HETATM   39  C   UNL     1      -8.099   2.794  67.333  1.00  0.00    -0.077 A  
HETATM   40  C   UNL     1      -9.157   2.440  68.172  1.00  0.00    -0.225 A  
HETATM   41  C   UNL     1      -7.172   3.735  67.757  1.00  0.00    -0.062 A  
ENDBRANCH  35  36
ENDBRANCH  34  35
ENDBRANCH  12  34
BRANCH  12  42
HETATM   42  C   UNL     1      -5.721   8.448  67.174  1.00  0.00    -0.039 C  
BRANCH  42  43
HETATM   43  C   UNL     1      -6.610   9.353  66.291  1.00  0.00    -0.070 C  
HETATM   44  C   UNL     1      -6.167   9.851  64.916  1.00  0.00    -0.105 C  
ENDBRANCH  42  43
ENDBRANCH  12  42
TORSDOF 8
ENDMDL
MODEL      122
REMARK 921   NORMALIZED FREE ENERGY PREDICTED BY IDOCK:   -4.59 KCAL/MOL
REMARK 922        TOTAL FREE ENERGY PREDICTED BY IDOCK:   -8.72 KCAL/MOL
REMARK 923 INTER-LIGAND FREE ENERGY PREDICTED BY IDOCK:   -7.18 KCAL/MOL
REMARK 924 INTRA-LIGAND FREE ENERGY PREDICTED BY IDOCK:   -1.54 KCAL/MOL
REMARK 927      BINDING AFFINITY PREDICTED BY RF-SCORE:    0.00 PKD
ROOT
HETATM    1  C   UNL     1      -9.743  17.289  66.678  1.00  0.00    -0.295 C  
HETATM    2  C   UNL     1     -10.751  16.357  65.953  1.00  0.00    -0.219 A  
HETATM    3  C   UNL     1     -10.374  18.544  67.315  1.00  0.00    -0.430 C  
HETATM    4  C   UNL     1      -8.757  16.565  67.649  1.00  0.00    -0.195 C  
HETATM    5  C   UNL     1     -11.060  19.496  66.349  1.00  0.00    -0.133 C  
HETATM    6  C   UNL     1     -11.359  15.251  66.575  1.00  0.00    -0.168 A  
HETATM    7  C   UNL     1      -7.528  16.133  67.291  1.00  0.00    -0.185 C  
HETATM    8  O   UNL     1      -7.045  16.288  66.002  1.00  0.00     0.180 OA 
HETATM    9  C   UNL     1      -6.647  15.222  68.167  1.00  0.00    -0.133 C  
HETATM   10  C   UNL     1     -12.158  14.337  65.852  1.00  0.00    -0.404 A  
HETATM   11  C   UNL     1     -12.436  14.561  64.512  1.00  0.00    -0.346 A  
HETATM   12  C   UNL     1      -7.132  14.961  69.593  1.00  0.00    -0.179 C  
HETATM   13  C   UNL     1      -9.176  16.328  69.059  1.00  0.00    -0.253 C  
HETATM   14  H   UNL     1      -6.180  15.984  65.750  1.00  0.00     0.000 HD 
HETATM   15  O   UNL     1      -8.434  15.530  69.856  1.00  0.00    -0.120 OA 
HETATM   16  C   UNL     1     -11.079  16.574  64.595  1.00  0.00    -0.135 A  
HETATM   17  O   UNL     1     -10.201  16.821  69.513  1.00  0.00    -0.248 OA 
HETATM   18  C   UNL     1     -11.925  15.698  63.891  1.00  0.00     0.248 A  
ENDROOT
BRANCH  10  19
HETATM   19  N   UNL     1     -12.592  13.120  66.471  1.00  0.00    -0.008 N  
HETATM   20  H   UNL     1     -13.567  12.824  66.403  1.00  0.00     0.000 HD 
BRANCH  19  21
HETATM   21  S   UNL     1     -11.448  12.166  67.332  1.00  0.00    -0.343 S  
HETATM   22  O   UNL     1     -10.618  13.090  68.085  1.00  0.00    -0.231 OA 
HETATM   23  O   UNL     1     -12.179  11.114  68.012  1.00  0.00    -0.584 OA 
BRANCH  21  24
HETATM   24  C   UNL     1     -10.421  11.370  66.107  1.00  0.00    -0.255 A  
HETATM   25  C   UNL     1      -9.665  10.757  63.894  1.00  0.00    -0.366 A  
HETATM   26  N   UNL     1      -9.283  10.946  66.628  1.00  0.00    -0.165 NA 
HETATM   27  F   UNL     1      -8.075   8.638  62.731  1.00  0.00    -0.141 F  
HETATM   28  C   UNL     1      -7.485   9.666  63.415  1.00  0.00    -0.118 C  
HETATM   29  F   UNL     1      -7.093  10.560  62.458  1.00  0.00    -0.133 F  
HETATM   30  C   UNL     1      -8.372  10.470  65.757  1.00  0.00    -0.166 A  
HETATM   31  F   UNL     1      -6.331   9.105  63.845  1.00  0.00    -0.084 F  
HETATM   32  C   UNL     1      -8.466  10.295  64.379  1.00  0.00    -0.182 A  
HETATM   33  C   UNL     1     -10.650  11.315  64.736  1.00  0.00    -0.376 A  
ENDBRANCH  21  24
ENDBRANCH  19  21
ENDBRANCH  10  19
BRANCH  12  34
HETATM   34  C   UNL     1      -6.095  15.707  70.447  1.00  0.00    -0.003 C  
BRANCH  34  35
HETATM   35  C   UNL     1      -5.235  16.645  69.570  1.00  0.00    -0.137 C  
BRANCH  35  36
HETATM   36  C   UNL     1      -5.291  18.039  70.075  1.00  0.00    -0.230 A  
HETATM   37  C   UNL     1      -5.272  19.637  71.859  1.00  0.00    -0.354 A  
HETATM   38  C   UNL     1      -5.152  18.314  71.431  1.00  0.00    -0.175 A  
HETATM   39  C   UNL     1      -5.624  20.364  69.584  1.00  0.00    -0.363 A  
HETATM   40  C   UNL     1      -5.499  20.653  70.944  1.00  0.00    -0.202 A  
HETATM   41  C   UNL     1      -5.515  19.052  69.149  1.00  0.00    -0.210 A  
ENDBRANCH  35  36
ENDBRANCH  34  35
ENDBRANCH  12  34
BRANCH  12  42
HETATM   42  C   UNL     1      -7.222  13.423  70.060  1.00  0.00     0.869 C  
BRANCH  42  43
HETATM   43  C   UNL     1      -5.889  12.640  70.098  1.00  0.00    -0.158 C  
HETATM   44  C   UNL     1      -5.327  11.916  68.875  1.00  0.00    -0.050 C  
ENDBRANCH  42  43
ENDBRANCH  12  42
TORSDOF 8
ENDMDL
MODEL      123
REMARK 921   NORMALIZED FREE ENERGY PREDICTED BY IDOCK:   -4.56 KCAL/MOL
REMARK 922        TOTAL FREE ENERGY PREDICTED BY IDOCK:   -8.68 KCAL/MOL
REMARK 923 INTER-LIGAND FREE ENERGY PREDICTED BY IDOCK:   -7.35 KCAL/MOL
REMARK 924 INTRA-LIGAND FREE ENERGY PREDICTED BY IDOCK:   -1.33 KCAL/MOL
REMARK 927      BINDING AFFINITY PREDICTED BY RF-SCORE:    0.00 PKD
ROOT
HETATM    1  C   UNL     1      -8.530   5.170  69.878  1.00  0.00    -0.097 C  
HETATM    2  C   UNL     1      -8.793   6.153  71.049  1.00  0.00    -0.139 A  
HETATM    3  C   UNL     1      -9.550   4.018  69.764  1.00  0.00    -0.280 C  
HETATM    4  C   UNL     1      -8.248   5.847  68.498  1.00  0.00    -0.109 C  
HETATM    5  C   UNL     1      -9.622   3.086  70.963  1.00  0.00    -0.224 C  
HETATM    6  C   UNL     1      -9.526   7.346  70.900  1.00  0.00    -0.165 A  
HETATM    7  C   UNL     1      -7.010   6.139  68.041  1.00  0.00    -0.076 C  
HETATM    8  O   UNL     1      -5.873   5.866  68.784  1.00  0.00    -0.014 OA 
HETATM    9  C   UNL     1      -6.734   7.007  66.798  1.00  0.00    -0.060 C  
HETATM   10  C   UNL     1      -9.628   8.292  71.945  1.00  0.00    -0.221 A  
HETATM   11  C   UNL     1      -9.072   8.023  73.186  1.00  0.00    -0.341 A  
HETATM   12  C   UNL     1      -7.943   7.390  65.945  1.00  0.00    -0.118 C  
HETATM   13  C   UNL     1      -9.398   6.200  67.620  1.00  0.00    -0.112 C  
HETATM   14  H   UNL     1      -5.002   6.071  68.462  1.00  0.00     0.000 HD 
HETATM   15  O   UNL     1      -9.197   6.965  66.525  1.00  0.00    -0.156 OA 
HETATM   16  C   UNL     1      -8.266   5.896  72.334  1.00  0.00    -0.110 A  
HETATM   17  O   UNL     1     -10.536   5.835  67.878  1.00  0.00    -0.230 OA 
HETATM   18  C   UNL     1      -8.420   6.809  73.393  1.00  0.00    -0.132 A  
ENDROOT
BRANCH  10  19
HETATM   19  N   UNL     1     -10.209   9.577  71.693  1.00  0.00    -0.054 N  
HETATM   20  H   UNL     1      -9.955  10.381  72.268  1.00  0.00     0.000 HD 
BRANCH  19  21
HETATM   21  S   UNL     1     -11.340   9.746  70.407  1.00  0.00    -0.310 S  
HETATM   22  O   UNL     1     -11.025   8.710  69.437  1.00  0.00    -0.157 OA 
HETATM   23  O   UNL     1     -12.663   9.822  70.996  1.00  0.00    -0.322 OA 
BRANCH  21  24
HETATM   24  C   UNL     1     -11.022  11.331  69.649  1.00  0.00    -0.151 A  
HETATM   25  C   UNL     1     -10.032  12.896  68.094  1.00  0.00    -0.234 A  
HETATM   26  N   UNL     1     -11.929  12.226  69.995  1.00  0.00    -0.333 NA 
HETATM   27  F   UNL     1      -9.569  15.750  68.000  1.00  0.00    -0.205 F  
HETATM   28  C   UNL     1     -10.816  15.233  67.777  1.00  0.00    -0.295 C  
HETATM   29  F   UNL     1     -10.938  15.152  66.419  1.00  0.00    -0.318 F  
HETATM   30  C   UNL     1     -11.868  13.411  69.356  1.00  0.00    -0.335 A  
HETATM   31  F   UNL     1     -11.624  16.260  68.128  1.00  0.00    -0.340 F  
HETATM   32  C   UNL     1     -10.947  13.869  68.418  1.00  0.00    -0.272 A  
HETATM   33  C   UNL     1     -10.061  11.614  68.682  1.00  0.00    -0.206 A  
ENDBRANCH  21  24
ENDBRANCH  19  21
ENDBRANCH  10  19
BRANCH  12  34
HETATM   34  C   UNL     1      -7.712   6.596  64.651  1.00  0.00    -0.112 C  
BRANCH  34  35
HETATM   35  C   UNL     1      -8.612   5.340  64.609  1.00  0.00    -0.125 C  
BRANCH  35  36
HETATM   36  C   UNL     1      -7.856   4.133  65.024  1.00  0.00    -0.089 A  
HETATM   37  C   UNL     1      -5.903   2.746  64.969  1.00  0.00    -0.018 A  
HETATM   38  C   UNL     1      -6.548   3.927  64.597  1.00  0.00    -0.043 A  
HETATM   39  C   UNL     1      -7.859   2.040  66.197  1.00  0.00    -0.076 A  
HETATM   40  C   UNL     1      -6.550   1.814  65.766  1.00  0.00    -0.024 A  
HETATM   41  C   UNL     1      -8.511   3.206  65.827  1.00  0.00    -0.108 A  
ENDBRANCH  35  36
ENDBRANCH  34  35
ENDBRANCH  12  34
BRANCH  12  42
HETATM   42  C   UNL     1      -8.124   8.953  65.603  1.00  0.00    -0.113 C  
BRANCH  42  43
HETATM   43  C   UNL     1      -9.243   9.309  64.597  1.00  0.00    -0.112 C  
HETATM   44  C   UNL     1     -10.064  10.593  64.701  1.00  0.00    -0.417 C  
ENDBRANCH  42  43
ENDBRANCH  12  42
TORSDOF 8
ENDMDL
MODEL      124
REMARK 921   NORMALIZED FREE ENERGY PREDICTED BY IDOCK:   -4.47 KCAL/MOL
REMARK 922        TOTAL FREE ENERGY PREDICTED BY IDOCK:   -8.55 KCAL/MOL
REMARK 923 INTER-LIGAND FREE ENERGY PREDICTED BY IDOCK:   -6.93 KCAL/MOL
REMARK 924 INTRA-LIGAND FREE ENERGY PREDICTED BY IDOCK:   -1.62 KCAL/MOL
REMARK 927      BINDING AFFINITY PREDICTED BY RF-SCORE:    0.00 PKD
ROOT
HETATM    1  C   UNL     1      -8.420  12.658  68.918  1.00  0.00     0.294 C  
HETATM    2  C   UNL     1      -8.783  11.272  68.321  1.00  0.00    -0.158 A  
HETATM    3  C   UNL     1      -6.909  12.894  69.120  1.00  0.00    -0.054 C  
HETATM    4  C   UNL     1      -9.122  13.875  68.234  1.00  0.00    -0.191 C  
HETATM    5  C   UNL     1      -6.218  11.936  70.078  1.00  0.00    -0.123 C  
HETATM    6  C   UNL     1      -8.967  11.053  66.943  1.00  0.00    -0.162 A  
HETATM    7  C   UNL     1     -10.286  14.411  68.660  1.00  0.00    -0.245 C  
HETATM    8  O   UNL     1     -10.969  13.901  69.753  1.00  0.00    -0.454 OA 
HETATM    9  C   UNL     1     -11.096  15.452  67.865  1.00  0.00    -0.323 C  
HETATM   10  C   UNL     1      -9.437   9.818  66.442  1.00  0.00    -0.184 A  
HETATM   11  C   UNL     1      -9.650   8.752  67.302  1.00  0.00    -0.214 A  
HETATM   12  C   UNL     1     -10.432  16.033  66.618  1.00  0.00    -0.304 C  
HETATM   13  C   UNL     1      -8.485  14.495  67.038  1.00  0.00    -0.196 C  
HETATM   14  H   UNL     1     -11.788  14.279  70.053  1.00  0.00     0.000 HD 
HETATM   15  O   UNL     1      -9.166  15.407  66.311  1.00  0.00    -0.275 OA 
HETATM   16  C   UNL     1      -8.979  10.156  69.166  1.00  0.00    -0.181 A  
HETATM   17  O   UNL     1      -7.359  14.180  66.677  1.00  0.00     0.508 OA 
HETATM   18  C   UNL     1      -9.387   8.909  68.661  1.00  0.00    -0.140 A  
ENDROOT
BRANCH  10  19
HETATM   19  N   UNL     1      -9.802   9.699  65.061  1.00  0.00    -0.434 N  
HETATM   20  H   UNL     1     -10.779   9.777  64.776  1.00  0.00     0.000 HD 
BRANCH  19  21
HETATM   21  S   UNL     1      -8.570   9.420  63.892  1.00  0.00    -0.196 S  
HETATM   22  O   UNL     1      -9.197   9.552  62.588  1.00  0.00    -0.264 OA 
HETATM   23  O   UNL     1      -7.435  10.249  64.248  1.00  0.00    -0.136 OA 
BRANCH  21  24
HETATM   24  C   UNL     1      -8.052   7.723  64.089  1.00  0.00    -0.068 A  
HETATM   25  C   UNL     1      -8.271   5.376  64.629  1.00  0.00    -0.133 A  
HETATM   26  N   UNL     1      -6.915   7.487  63.459  1.00  0.00    -0.058 NA 
HETATM   27  F   UNL     1      -6.488   3.208  65.326  1.00  0.00    -0.031 F  
HETATM   28  C   UNL     1      -6.593   3.644  64.033  1.00  0.00    -0.038 C  
HETATM   29  F   UNL     1      -7.481   2.795  63.434  1.00  0.00    -0.054 F  
HETATM   30  C   UNL     1      -6.516   6.200  63.417  1.00  0.00    -0.029 A  
HETATM   31  F   UNL     1      -5.393   3.299  63.512  1.00  0.00    -0.007 F  
HETATM   32  C   UNL     1      -7.093   5.071  63.993  1.00  0.00    -0.049 A  
HETATM   33  C   UNL     1      -8.780   6.692  64.674  1.00  0.00     0.355 A  
ENDBRANCH  21  24
ENDBRANCH  19  21
ENDBRANCH  10  19
BRANCH  12  34
HETATM   34  C   UNL     1     -10.167  17.492  67.021  1.00  0.00    -0.327 C  
BRANCH  34  35
HETATM   35  C   UNL     1      -8.966  18.069  66.239  1.00  0.00    -0.194 C  
BRANCH  35  36
HETATM   36  C   UNL     1      -8.111  18.901  67.120  1.00  0.00    -0.277 A  
HETATM   37  C   UNL     1      -6.862  20.895  67.573  1.00  0.00    -0.416 A  
HETATM   38  C   UNL     1      -7.716  20.177  66.733  1.00  0.00    -0.337 A  
HETATM   39  C   UNL     1      -6.856  19.073  69.158  1.00  0.00    -0.342 A  
HETATM   40  C   UNL     1      -6.442  20.351  68.777  1.00  0.00    -0.309 A  
HETATM   41  C   UNL     1      -7.697  18.349  68.327  1.00  0.00    -0.308 A  
ENDBRANCH  35  36
ENDBRANCH  34  35
ENDBRANCH  12  34
BRANCH  12  42
HETATM   42  C   UNL     1     -11.286  15.990  65.253  1.00  0.00    -0.115 C  
BRANCH  42  43
HETATM   43  C   UNL     1     -11.292  14.644  64.492  1.00  0.00    -0.316 C  
HETATM   44  C   UNL     1     -12.226  13.493  64.866  1.00  0.00    -0.447 C  
ENDBRANCH  42  43
ENDBRANCH  12  42
TORSDOF 8
ENDMDL
MODEL      125
REMARK 921   NORMALIZED FREE ENERGY PREDICTED BY IDOCK:   -4.31 KCAL/MOL
REMARK 922        TOTAL FREE ENERGY PREDICTED BY IDOCK:   -8.31 KCAL/MOL
REMARK 923 INTER-LIGAND FREE ENERGY PREDICTED BY IDOCK:   -7.39 KCAL/MOL
REMARK 924 INTRA-LIGAND FREE ENERGY PREDICTED BY IDOCK:   -0.93 KCAL/MOL
REMARK 927      BINDING AFFINITY PREDICTED BY RF-SCORE:    0.00 PKD
ROOT
HETATM    1  C   UNL     1      -6.647  10.335  67.952  1.00  0.00    -0.062 C  
HETATM    2  C   UNL     1      -7.267  11.702  68.346  1.00  0.00    -0.088 A  
HETATM    3  C   UNL     1      -6.779   9.236  69.026  1.00  0.00    -0.051 C  
HETATM    4  C   UNL     1      -7.036   9.821  66.529  1.00  0.00    -0.085 C  
HETATM    5  C   UNL     1      -6.099   9.531  70.353  1.00  0.00    -0.059 C  
HETATM    6  C   UNL     1      -8.579  12.079  68.003  1.00  0.00    -0.170 A  
HETATM    7  C   UNL     1      -6.304  10.053  65.417  1.00  0.00    -0.101 C  
HETATM    8  O   UNL     1      -5.134  10.794  65.453  1.00  0.00    -0.108 OA 
HETATM    9  C   UNL     1      -6.792   9.751  63.987  1.00  0.00    -0.120 C  
HETATM   10  C   UNL     1      -9.068  13.381  68.248  1.00  0.00    -0.181 A  
HETATM   11  C   UNL     1      -8.283  14.306  68.920  1.00  0.00    -0.053 A  
HETATM   12  C   UNL     1      -8.101   8.973  63.857  1.00  0.00    -0.159 C  
HETATM   13  C   UNL     1      -8.285   9.025  66.366  1.00  0.00    -0.111 C  
HETATM   14  H   UNL     1      -4.619  10.957  64.671  1.00  0.00     0.000 HD 
HETATM   15  O   UNL     1      -8.748   8.746  65.129  1.00  0.00    -0.186 OA 
HETATM   16  C   UNL     1      -6.505  12.657  69.056  1.00  0.00    -0.097 A  
HETATM   17  O   UNL     1      -8.924   8.633  67.333  1.00  0.00    -0.132 OA 
HETATM   18  C   UNL     1      -7.014  13.934  69.355  1.00  0.00    -0.022 A  
ENDROOT
BRANCH  10  19
HETATM   19  N   UNL     1     -10.331  13.785  67.706  1.00  0.00    -0.238 N  
HETATM   20  H   UNL     1     -10.647  13.424  66.806  1.00  0.00     0.000 HD 
BRANCH  19  21
HETATM   21  S   UNL     1     -11.308  14.889  68.595  1.00  0.00    -0.308 S  
HETATM   22  O   UNL     1     -12.650  14.791  68.047  1.00  0.00     0.187 OA 
HETATM   23  O   UNL     1     -11.071  14.644  70.005  1.00  0.00    -0.235 OA 
BRANCH  21  24
HETATM   24  C   UNL     1     -10.683  16.524  68.245  1.00  0.00    -0.345 A  
HETATM   25  C   UNL     1      -9.719  18.689  68.724  1.00  0.00    -0.407 A  
HETATM   26  N   UNL     1     -10.439  16.685  66.957  1.00  0.00    -0.303 NA 
HETATM   27  F   UNL     1      -9.625  21.276  67.434  1.00  0.00    -0.583 F  
HETATM   28  C   UNL     1      -8.845  20.242  66.993  1.00  0.00    -0.326 C  
HETATM   29  F   UNL     1      -7.626  20.430  67.583  1.00  0.00    -0.313 F  
HETATM   30  C   UNL     1      -9.820  17.830  66.608  1.00  0.00    -0.322 A  
HETATM   31  F   UNL     1      -8.644  20.562  65.694  1.00  0.00    -0.114 F  
HETATM   32  C   UNL     1      -9.446  18.914  67.397  1.00  0.00    -0.334 A  
HETATM   33  C   UNL     1     -10.319  17.494  69.174  1.00  0.00    -0.239 A  
ENDBRANCH  21  24
ENDBRANCH  19  21
ENDBRANCH  10  19
BRANCH  12  34
HETATM   34  C   UNL     1      -7.638   7.619  63.297  1.00  0.00    -0.119 C  
BRANCH  34  35
HETATM   35  C   UNL     1      -7.225   6.665  64.440  1.00  0.00    -0.069 C  
BRANCH  35  36
HETATM   36  C   UNL     1      -7.919   5.360  64.317  1.00  0.00    -0.118 A  
HETATM   37  C   UNL     1      -9.142   3.734  63.052  1.00  0.00    -0.104 A  
HETATM   38  C   UNL     1      -8.448   4.944  63.100  1.00  0.00    -0.119 A  
HETATM   39  C   UNL     1      -8.730   3.382  65.405  1.00  0.00    -0.122 A  
HETATM   40  C   UNL     1      -9.276   2.957  64.193  1.00  0.00    -0.117 A  
HETATM   41  C   UNL     1      -8.045   4.586  65.465  1.00  0.00    -0.109 A  
ENDBRANCH  35  36
ENDBRANCH  34  35
ENDBRANCH  12  34
BRANCH  12  42
HETATM   42  C   UNL     1      -9.229   9.605  62.897  1.00  0.00    -0.163 C  
BRANCH  42  43
HETATM   43  C   UNL     1      -9.477  11.125  63.040  1.00  0.00    -0.386 C  
HETATM   44  C   UNL     1     -10.876  11.718  63.195  1.00  0.00    -0.299 C  
ENDBRANCH  42  43
ENDBRANCH  12  42
TORSDOF 8
ENDMDL
MODEL      126
REMARK 921   NORMALIZED FREE ENERGY PREDICTED BY IDOCK:   -4.18 KCAL/MOL
REMARK 922        TOTAL FREE ENERGY PREDICTED BY IDOCK:   -8.13 KCAL/MOL
REMARK 923 INTER-LIGAND FREE ENERGY PREDICTED BY IDOCK:   -9.76 KCAL/MOL
REMARK 924 INTRA-LIGAND FREE ENERGY PREDICTED BY IDOCK:    1.63 KCAL/MOL
REMARK 927      BINDING AFFINITY PREDICTED BY RF-SCORE:    0.00 PKD
ROOT
HETATM    1  C   UNL     1      -8.696   8.961  67.985  1.00  0.00    -0.133 C  
HETATM    2  C   UNL     1      -9.032  10.417  67.564  1.00  0.00    -0.138 A  
HETATM    3  C   UNL     1      -7.199   8.697  68.244  1.00  0.00    -0.086 C  
HETATM    4  C   UNL     1      -9.603   8.375  69.114  1.00  0.00    -0.164 C  
HETATM    5  C   UNL     1      -6.280   8.912  67.053  1.00  0.00    -0.059 C  
HETATM    6  C   UNL     1      -9.421  11.411  68.481  1.00  0.00    -0.183 A  
HETATM    7  C   UNL     1     -10.723   7.655  68.884  1.00  0.00    -0.095 C  
HETATM    8  O   UNL     1     -11.170   7.389  67.600  1.00  0.00    -0.514 OA 
HETATM    9  C   UNL     1     -11.740   7.273  69.976  1.00  0.00    -0.022 C  
HETATM   10  C   UNL     1      -9.860  12.686  68.056  1.00  0.00    -0.218 A  
HETATM   11  C   UNL     1      -9.835  13.018  66.710  1.00  0.00    -0.243 A  
HETATM   12  C   UNL     1     -11.343   7.575  71.421  1.00  0.00    -0.258 C  
HETATM   13  C   UNL     1      -9.229   8.613  70.537  1.00  0.00    -0.175 C  
HETATM   14  H   UNL     1     -11.958   6.882  67.438  1.00  0.00     0.000 HD 
HETATM   15  O   UNL     1     -10.097   8.298  71.522  1.00  0.00    -0.186 OA 
HETATM   16  C   UNL     1      -8.989  10.799  66.205  1.00  0.00    -0.192 A  
HETATM   17  O   UNL     1      -8.155   9.116  70.840  1.00  0.00    -0.158 OA 
HETATM   18  C   UNL     1      -9.366  12.087  65.786  1.00  0.00    -0.133 A  
ENDROOT
BRANCH  10  19
HETATM   19  N   UNL     1     -10.436  13.596  69.000  1.00  0.00    -0.412 N  
HETATM   20  H   UNL     1     -10.143  13.582  69.977  1.00  0.00     0.000 HD 
BRANCH  19  21
HETATM   21  S   UNL     1     -11.628  14.715  68.462  1.00  0.00    -0.325 S  
HETATM   22  O   UNL     1     -12.151  14.195  67.210  1.00  0.00    -0.417 OA 
HETATM   23  O   UNL     1     -12.518  14.975  69.578  1.00  0.00    -0.203 OA 
BRANCH  21  24
HETATM   24  C   UNL     1     -10.776  16.245  68.115  1.00  0.00    -0.322 A  
HETATM   25  C   UNL     1      -9.233  18.068  68.490  1.00  0.00    -0.296 A  
HETATM   26  N   UNL     1     -10.908  16.598  66.849  1.00  0.00    -0.141 NA 
HETATM   27  F   UNL     1      -8.936  20.791  67.558  1.00  0.00    -0.425 F  
HETATM   28  C   UNL     1      -8.593  19.733  66.761  1.00  0.00    -0.327 C  
HETATM   29  F   UNL     1      -7.244  19.581  66.919  1.00  0.00    -0.212 F  
HETATM   30  C   UNL     1     -10.175  17.656  66.448  1.00  0.00    -0.364 A  
HETATM   31  F   UNL     1      -8.730  20.250  65.517  1.00  0.00    -0.234 F  
HETATM   32  C   UNL     1      -9.334  18.485  67.185  1.00  0.00    -0.280 A  
HETATM   33  C   UNL     1      -9.929  16.940  68.973  1.00  0.00    -0.265 A  
ENDBRANCH  21  24
ENDBRANCH  19  21
ENDBRANCH  10  19
BRANCH  12  34
HETATM   34  C   UNL     1     -11.143   6.173  72.018  1.00  0.00    -0.322 C  
BRANCH  34  35
HETATM   35  C   UNL     1      -9.702   5.672  71.770  1.00  0.00    -0.192 C  
BRANCH  35  36
HETATM   36  C   UNL     1      -8.735   6.393  72.632  1.00  0.00    -0.126 A  
HETATM   37  C   UNL     1      -6.498   6.886  73.335  1.00  0.00    -0.066 A  
HETATM   38  C   UNL     1      -7.364   6.230  72.458  1.00  0.00    -0.085 A  
HETATM   39  C   UNL     1      -8.377   7.864  74.493  1.00  0.00    -0.228 A  
HETATM   40  C   UNL     1      -6.999   7.701  74.339  1.00  0.00    -0.132 A  
HETATM   41  C   UNL     1      -9.247   7.211  73.633  1.00  0.00    -0.237 A  
ENDBRANCH  35  36
ENDBRANCH  34  35
ENDBRANCH  12  34
BRANCH  12  42
HETATM   42  C   UNL     1     -12.404   8.401  72.308  1.00  0.00    -0.436 C  
BRANCH  42  43
HETATM   43  C   UNL     1     -12.480   9.922  72.043  1.00  0.00    -0.353 C  
HETATM   44  C   UNL     1     -12.837  10.500  70.675  1.00  0.00    -0.407 C  
ENDBRANCH  42  43
ENDBRANCH  12  42
TORSDOF 8
ENDMDL
MODEL      127
REMARK 921   NORMALIZED FREE ENERGY PREDICTED BY IDOCK:   -4.17 KCAL/MOL
REMARK 922        TOTAL FREE ENERGY PREDICTED BY IDOCK:   -8.11 KCAL/MOL
REMARK 923 INTER-LIGAND FREE ENERGY PREDICTED BY IDOCK:   -6.46 KCAL/MOL
REMARK 924 INTRA-LIGAND FREE ENERGY PREDICTED BY IDOCK:   -1.65 KCAL/MOL
REMARK 927      BINDING AFFINITY PREDICTED BY RF-SCORE:    0.00 PKD
ROOT
HETATM    1  C   UNL     1     -11.722  12.819  66.611  1.00  0.00    -0.459 C  
HETATM    2  C   UNL     1     -11.298  13.759  67.771  1.00  0.00    -0.331 A  
HETATM    3  C   UNL     1     -12.159  13.546  65.323  1.00  0.00    -0.439 C  
HETATM    4  C   UNL     1     -10.734  11.644  66.320  1.00  0.00    -0.317 C  
HETATM    5  C   UNL     1     -13.369  14.457  65.463  1.00  0.00     0.513 C  
HETATM    6  C   UNL     1      -9.963  14.138  68.004  1.00  0.00    -0.226 A  
HETATM    7  C   UNL     1     -10.847  10.412  66.863  1.00  0.00    -0.161 C  
HETATM    8  O   UNL     1     -11.862  10.095  67.751  1.00  0.00    -0.477 OA 
HETATM    9  C   UNL     1      -9.759   9.326  66.765  1.00  0.00    -0.260 C  
HETATM   10  C   UNL     1      -9.587  14.875  69.149  1.00  0.00    -0.172 A  
HETATM   11  C   UNL     1     -10.553  15.322  70.039  1.00  0.00    -0.288 A  
HETATM   12  C   UNL     1      -8.579   9.616  65.838  1.00  0.00    -0.134 C  
HETATM   13  C   UNL     1      -9.593  11.875  65.390  1.00  0.00    -0.165 C  
HETATM   14  H   UNL     1     -11.941   9.228  68.133  1.00  0.00     0.000 HD 
HETATM   15  O   UNL     1      -8.616  10.949  65.282  1.00  0.00    -0.172 OA 
HETATM   16  C   UNL     1     -12.260  14.256  68.679  1.00  0.00    -0.205 A  
HETATM   17  O   UNL     1      -9.501  12.903  64.733  1.00  0.00     0.198 OA 
HETATM   18  C   UNL     1     -11.894  15.042  69.786  1.00  0.00    -0.357 A  
ENDROOT
BRANCH  10  19
HETATM   19  N   UNL     1      -8.201  15.068  69.454  1.00  0.00    -0.346 N  
HETATM   20  H   UNL     1      -7.921  15.659  70.237  1.00  0.00     0.000 HD 
BRANCH  19  21
HETATM   21  S   UNL     1      -7.015  14.289  68.480  1.00  0.00    -0.113 S  
HETATM   22  O   UNL     1      -7.568  14.203  67.140  1.00  0.00    -0.132 OA 
HETATM   23  O   UNL     1      -5.750  14.961  68.711  1.00  0.00    -0.083 OA 
BRANCH  21  24
HETATM   24  C   UNL     1      -6.840  12.630  69.115  1.00  0.00    -0.057 A  
HETATM   25  C   UNL     1      -5.928  10.852  70.477  1.00  0.00    -0.121 A  
HETATM   26  N   UNL     1      -7.886  11.881  68.813  1.00  0.00    -0.095 NA 
HETATM   27  F   UNL     1      -5.838   7.962  70.370  1.00  0.00    -0.029 F  
HETATM   28  C   UNL     1      -6.980   8.617  70.743  1.00  0.00    -0.059 C  
HETATM   29  F   UNL     1      -6.966   8.622  72.109  1.00  0.00    -0.090 F  
HETATM   30  C   UNL     1      -7.923  10.658  69.377  1.00  0.00    -0.111 A  
HETATM   31  F   UNL     1      -7.946   7.725  70.419  1.00  0.00    -0.089 F  
HETATM   32  C   UNL     1      -6.988  10.026  70.193  1.00  0.00    -0.148 A  
HETATM   33  C   UNL     1      -5.841  12.163  69.965  1.00  0.00    -0.152 A  
ENDBRANCH  21  24
ENDBRANCH  19  21
ENDBRANCH  10  19
BRANCH  12  34
HETATM   34  C   UNL     1      -8.786   8.607  64.698  1.00  0.00    -0.065 C  
BRANCH  34  35
HETATM   35  C   UNL     1      -7.793   7.429  64.820  1.00  0.00    -0.126 C  
BRANCH  35  36
HETATM   36  C   UNL     1      -8.514   6.140  64.956  1.00  0.00    -0.071 A  
HETATM   37  C   UNL     1      -9.777   4.557  66.236  1.00  0.00    -0.216 A  
HETATM   38  C   UNL     1      -9.165   5.808  66.140  1.00  0.00    -0.169 A  
HETATM   39  C   UNL     1      -9.107   4.033  63.976  1.00  0.00    -0.139 A  
HETATM   40  C   UNL     1      -9.754   3.680  65.162  1.00  0.00    -0.157 A  
HETATM   41  C   UNL     1      -8.488   5.269  63.873  1.00  0.00    -0.100 A  
ENDBRANCH  35  36
ENDBRANCH  34  35
ENDBRANCH  12  34
BRANCH  12  42
HETATM   42  C   UNL     1      -7.105   9.441  66.462  1.00  0.00    -0.085 C  
BRANCH  42  43
HETATM   43  C   UNL     1      -6.062  10.509  66.063  1.00  0.00    -0.119 C  
HETATM   44  C   UNL     1      -5.216  10.399  64.795  1.00  0.00    -0.134 C  
ENDBRANCH  42  43
ENDBRANCH  12  42
TORSDOF 8
ENDMDL
MODEL      128
REMARK 921   NORMALIZED FREE ENERGY PREDICTED BY IDOCK:   -4.10 KCAL/MOL
REMARK 922        TOTAL FREE ENERGY PREDICTED BY IDOCK:   -8.01 KCAL/MOL
REMARK 923 INTER-LIGAND FREE ENERGY PREDICTED BY IDOCK:   -6.40 KCAL/MOL
REMARK 924 INTRA-LIGAND FREE ENERGY PREDICTED BY IDOCK:   -1.61 KCAL/MOL
REMARK 927      BINDING AFFINITY PREDICTED BY RF-SCORE:    0.00 PKD
ROOT
HETATM    1  C   UNL     1     -10.721   5.851  70.958  1.00  0.00    -0.331 C  
HETATM    2  C   UNL     1      -9.792   6.916  71.599  1.00  0.00    -0.173 A  
HETATM    3  C   UNL     1     -12.058   6.403  70.423  1.00  0.00    -0.047 C  
HETATM    4  C   UNL     1     -10.024   4.897  69.935  1.00  0.00    -0.317 C  
HETATM    5  C   UNL     1     -12.965   7.044  71.461  1.00  0.00    -0.411 C  
HETATM    6  C   UNL     1      -8.776   7.580  70.885  1.00  0.00    -0.142 A  
HETATM    7  C   UNL     1      -9.494   3.698  70.263  1.00  0.00    -0.187 C  
HETATM    8  O   UNL     1      -9.516   3.219  71.563  1.00  0.00    -0.123 OA 
HETATM    9  C   UNL     1      -8.609   2.862  69.319  1.00  0.00    -0.114 C  
HETATM   10  C   UNL     1      -7.854   8.436  71.525  1.00  0.00    -0.120 A  
HETATM   11  C   UNL     1      -7.982   8.713  72.878  1.00  0.00     0.020 A  
HETATM   12  C   UNL     1      -8.495   3.347  67.874  1.00  0.00    -0.090 C  
HETATM   13  C   UNL     1      -9.927   5.316  68.509  1.00  0.00    -0.163 C  
HETATM   14  H   UNL     1      -9.143   2.376  71.793  1.00  0.00     0.000 HD 
HETATM   15  O   UNL     1      -9.156   4.612  67.652  1.00  0.00    -0.110 OA 
HETATM   16  C   UNL     1      -9.914   7.244  72.968  1.00  0.00    -0.272 A  
HETATM   17  O   UNL     1     -10.513   6.306  68.092  1.00  0.00    -0.175 OA 
HETATM   18  C   UNL     1      -9.034   8.145  73.593  1.00  0.00    -0.275 A  
ENDROOT
BRANCH  10  19
HETATM   19  N   UNL     1      -6.718   8.932  70.806  1.00  0.00    -0.052 N  
HETATM   20  H   UNL     1      -5.920   9.326  71.306  1.00  0.00     0.000 HD 
BRANCH  19  21
HETATM   21  S   UNL     1      -6.719   8.855  69.087  1.00  0.00    -0.051 S  
HETATM   22  O   UNL     1      -5.437   9.377  68.646  1.00  0.00    -0.037 OA 
HETATM   23  O   UNL     1      -7.137   7.519  68.709  1.00  0.00    -0.075 OA 
BRANCH  21  24
HETATM   24  C   UNL     1      -7.994   9.971  68.525  1.00  0.00    -0.102 A  
HETATM   25  C   UNL     1     -10.205  10.651  67.818  1.00  0.00    -0.212 A  
HETATM   26  N   UNL     1      -7.645  11.234  68.695  1.00  0.00    -0.121 NA 
HETATM   27  F   UNL     1     -11.344  12.836  66.302  1.00  0.00    -0.293 F  
HETATM   28  C   UNL     1     -10.933  13.016  67.594  1.00  0.00    -0.254 C  
HETATM   29  F   UNL     1     -12.061  12.883  68.355  1.00  0.00    -0.348 F  
HETATM   30  C   UNL     1      -8.599  12.153  68.446  1.00  0.00    -0.141 A  
HETATM   31  F   UNL     1     -10.656  14.340  67.630  1.00  0.00    -0.245 F  
HETATM   32  C   UNL     1      -9.897  11.981  67.972  1.00  0.00    -0.199 A  
HETATM   33  C   UNL     1      -9.277   9.628  68.106  1.00  0.00    -0.130 A  
ENDBRANCH  21  24
ENDBRANCH  19  21
ENDBRANCH  10  19
BRANCH  12  34
HETATM   34  C   UNL     1      -9.247   2.261  67.090  1.00  0.00    -0.111 C  
BRANCH  34  35
HETATM   35  C   UNL     1      -8.515   1.930  65.770  1.00  0.00    -0.105 C  
BRANCH  35  36
HETATM   36  C   UNL     1      -9.253   2.473  64.604  1.00  0.00    -0.136 A  
HETATM   37  C   UNL     1      -9.993   4.301  63.243  1.00  0.00    -0.020 A  
HETATM   38  C   UNL     1      -9.234   3.834  64.318  1.00  0.00    -0.141 A  
HETATM   39  C   UNL     1     -10.728   2.052  62.760  1.00  0.00    -0.165 A  
HETATM   40  C   UNL     1     -10.729   3.417  62.468  1.00  0.00    -0.175 A  
HETATM   41  C   UNL     1      -9.984   1.579  63.830  1.00  0.00    -0.127 A  
ENDBRANCH  35  36
ENDBRANCH  34  35
ENDBRANCH  12  34
BRANCH  12  42
HETATM   42  C   UNL     1      -7.007   3.519  67.281  1.00  0.00    -0.054 C  
BRANCH  42  43
HETATM   43  C   UNL     1      -6.660   4.906  66.695  1.00  0.00    -0.046 C  
HETATM   44  C   UNL     1      -5.912   5.077  65.374  1.00  0.00    -0.025 C  
ENDBRANCH  42  43
ENDBRANCH  12  42
TORSDOF 8
ENDMDL
MODEL      129
REMARK 921   NORMALIZED FREE ENERGY PREDICTED BY IDOCK:   -4.01 KCAL/MOL
REMARK 922        TOTAL FREE ENERGY PREDICTED BY IDOCK:   -7.88 KCAL/MOL
REMARK 923 INTER-LIGAND FREE ENERGY PREDICTED BY IDOCK:   -5.74 KCAL/MOL
REMARK 924 INTRA-LIGAND FREE ENERGY PREDICTED BY IDOCK:   -2.15 KCAL/MOL
REMARK 927      BINDING AFFINITY PREDICTED BY RF-SCORE:    0.00 PKD
ROOT
HETATM    1  C   UNL     1     -11.819  10.032  70.657  1.00  0.00    -0.411 C  
HETATM    2  C   UNL     1     -12.074  11.534  70.953  1.00  0.00    -0.352 A  
HETATM    3  C   UNL     1     -12.885   9.363  69.767  1.00  0.00     1.545 C  
HETATM    4  C   UNL     1     -10.365   9.688  70.198  1.00  0.00    -0.315 C  
HETATM    5  C   UNL     1     -14.296   9.348  70.332  1.00  0.00     1.143 C  
HETATM    6  C   UNL     1     -11.515  12.574  70.186  1.00  0.00    -0.007 A  
HETATM    7  C   UNL     1      -9.379   9.307  71.040  1.00  0.00    -0.227 C  
HETATM    8  O   UNL     1      -9.583   9.205  72.406  1.00  0.00    -0.130 OA 
HETATM    9  C   UNL     1      -7.898   9.190  70.633  1.00  0.00    -0.165 C  
HETATM   10  C   UNL     1     -11.646  13.929  70.562  1.00  0.00    -0.062 A  
HETATM   11  C   UNL     1     -12.411  14.276  71.666  1.00  0.00    -0.392 A  
HETATM   12  C   UNL     1      -7.580   9.335  69.145  1.00  0.00    -0.073 C  
HETATM   13  C   UNL     1     -10.025   9.779  68.751  1.00  0.00    -0.169 C  
HETATM   14  H   UNL     1      -8.889   8.936  72.998  1.00  0.00     0.000 HD 
HETATM   15  O   UNL     1      -8.738   9.688  68.355  1.00  0.00    -0.119 OA 
HETATM   16  C   UNL     1     -12.872  11.923  72.052  1.00  0.00    -0.248 A  
HETATM   17  O   UNL     1     -10.887   9.962  67.901  1.00  0.00    -0.260 OA 
HETATM   18  C   UNL     1     -13.053  13.276  72.391  1.00  0.00    -0.443 A  
ENDROOT
BRANCH  10  19
HETATM   19  N   UNL     1     -10.899  14.939  69.873  1.00  0.00    -0.379 N  
HETATM   20  H   UNL     1      -9.982  15.228  70.214  1.00  0.00     0.000 HD 
BRANCH  19  21
HETATM   21  S   UNL     1     -11.571  15.658  68.461  1.00  0.00    -0.328 S  
HETATM   22  O   UNL     1     -12.982  15.870  68.734  1.00  0.00     0.989 OA 
HETATM   23  O   UNL     1     -10.719  16.772  68.091  1.00  0.00    -0.336 OA 
BRANCH  21  24
HETATM   24  C   UNL     1     -11.433  14.449  67.155  1.00  0.00    -0.362 A  
HETATM   25  C   UNL     1     -12.126  12.620  65.732  1.00  0.00    -0.484 A  
HETATM   26  N   UNL     1     -10.446  14.739  66.326  1.00  0.00    -0.287 NA 
HETATM   27  F   UNL     1     -10.821  10.651  64.062  1.00  0.00    -0.378 F  
HETATM   28  C   UNL     1     -10.950  11.950  63.649  1.00  0.00    -0.440 C  
HETATM   29  F   UNL     1     -12.061  11.969  62.854  1.00  0.00    -0.397 F  
HETATM   30  C   UNL     1     -10.356  13.974  65.220  1.00  0.00    -0.383 A  
HETATM   31  F   UNL     1      -9.915  12.085  62.787  1.00  0.00    -0.351 F  
HETATM   32  C   UNL     1     -11.114  12.871  64.838  1.00  0.00    -0.326 A  
HETATM   33  C   UNL     1     -12.316  13.407  66.888  1.00  0.00    -0.262 A  
ENDBRANCH  21  24
ENDBRANCH  19  21
ENDBRANCH  10  19
BRANCH  12  34
HETATM   34  C   UNL     1      -7.136   7.918  68.752  1.00  0.00    -0.072 C  
BRANCH  34  35
HETATM   35  C   UNL     1      -7.164   6.975  69.976  1.00  0.00    -0.079 C  
BRANCH  35  36
HETATM   36  C   UNL     1      -8.053   5.814  69.730  1.00  0.00    -0.104 A  
HETATM   37  C   UNL     1     -10.117   4.637  70.041  1.00  0.00    -0.267 A  
HETATM   38  C   UNL     1      -9.342   5.779  70.253  1.00  0.00    -0.185 A  
HETATM   39  C   UNL     1      -8.324   3.629  68.777  1.00  0.00    -0.089 A  
HETATM   40  C   UNL     1      -9.615   3.575  69.305  1.00  0.00    -0.161 A  
HETATM   41  C   UNL     1      -7.543   4.755  68.988  1.00  0.00    -0.067 A  
ENDBRANCH  35  36
ENDBRANCH  34  35
ENDBRANCH  12  34
BRANCH  12  42
HETATM   42  C   UNL     1      -6.436  10.397  68.747  1.00  0.00    -0.051 C  
BRANCH  42  43
HETATM   43  C   UNL     1      -6.534  11.790  69.411  1.00  0.00    -0.120 C  
HETATM   44  C   UNL     1      -5.705  12.177  70.634  1.00  0.00    -0.128 C  
ENDBRANCH  42  43
ENDBRANCH  12  42
TORSDOF 8
ENDMDL
MODEL      130
REMARK 921   NORMALIZED FREE ENERGY PREDICTED BY IDOCK:   -4.01 KCAL/MOL
REMARK 922        TOTAL FREE ENERGY PREDICTED BY IDOCK:   -7.87 KCAL/MOL
REMARK 923 INTER-LIGAND FREE ENERGY PREDICTED BY IDOCK:   -5.26 KCAL/MOL
REMARK 924 INTRA-LIGAND FREE ENERGY PREDICTED BY IDOCK:   -2.61 KCAL/MOL
REMARK 927      BINDING AFFINITY PREDICTED BY RF-SCORE:    0.00 PKD
ROOT
HETATM    1  C   UNL     1     -11.332   6.126  70.915  1.00  0.00    -0.355 C  
HETATM    2  C   UNL     1     -10.422   6.863  71.934  1.00  0.00    -0.224 A  
HETATM    3  C   UNL     1     -12.679   6.824  70.634  1.00  0.00     0.070 C  
HETATM    4  C   UNL     1     -10.618   5.670  69.603  1.00  0.00    -0.401 C  
HETATM    5  C   UNL     1     -13.597   6.984  71.835  1.00  0.00    -0.237 C  
HETATM    6  C   UNL     1      -9.419   7.773  71.550  1.00  0.00    -0.174 A  
HETATM    7  C   UNL     1     -10.067   4.448  69.430  1.00  0.00     0.032 C  
HETATM    8  O   UNL     1     -10.081   3.491  70.432  1.00  0.00     0.051 OA 
HETATM    9  C   UNL     1      -9.167   4.071  68.238  1.00  0.00    -0.202 C  
HETATM   10  C   UNL     1      -8.512   8.319  72.485  1.00  0.00    -0.187 A  
HETATM   11  C   UNL     1      -8.645   8.033  73.835  1.00  0.00    -0.324 A  
HETATM   12  C   UNL     1      -9.062   5.092  67.106  1.00  0.00    -0.112 C  
HETATM   13  C   UNL     1     -10.529   6.623  68.461  1.00  0.00    -0.213 C  
HETATM   14  H   UNL     1      -9.693   2.632  70.311  1.00  0.00     0.000 HD 
HETATM   15  O   UNL     1      -9.746   6.331  67.401  1.00  0.00    -0.116 OA 
HETATM   16  C   UNL     1     -10.551   6.618  73.319  1.00  0.00    -0.316 A  
HETATM   17  O   UNL     1     -11.132   7.688  68.468  1.00  0.00     0.078 OA 
HETATM   18  C   UNL     1      -9.687   7.210  74.258  1.00  0.00    -0.197 A  
ENDROOT
BRANCH  10  19
HETATM   19  N   UNL     1      -7.385   9.078  72.030  1.00  0.00     0.110 N  
HETATM   20  H   UNL     1      -7.109   9.934  72.513  1.00  0.00     0.000 HD 
BRANCH  19  21
HETATM   21  S   UNL     1      -6.505   8.528  70.658  1.00  0.00    -0.041 S  
HETATM   22  O   UNL     1      -5.190   9.143  70.733  1.00  0.00    -0.026 OA 
HETATM   23  O   UNL     1      -6.638   7.085  70.603  1.00  0.00    -0.049 OA 
BRANCH  21  24
HETATM   24  C   UNL     1      -7.339   9.178  69.220  1.00  0.00    -0.070 A  
HETATM   25  C   UNL     1      -8.095   9.241  66.923  1.00  0.00    -0.108 A  
HETATM   26  N   UNL     1      -8.201  10.125  69.544  1.00  0.00    -0.161 NA 
HETATM   27  F   UNL     1      -9.006  11.267  65.070  1.00  0.00    -0.193 F  
HETATM   28  C   UNL     1      -9.823  10.806  66.065  1.00  0.00    -0.235 C  
HETATM   29  F   UNL     1     -10.599   9.845  65.482  1.00  0.00    -0.264 F  
HETATM   30  C   UNL     1      -8.994  10.573  68.550  1.00  0.00    -0.147 A  
HETATM   31  F   UNL     1     -10.665  11.849  66.256  1.00  0.00    -0.266 F  
HETATM   32  C   UNL     1      -9.006  10.231  67.200  1.00  0.00    -0.145 A  
HETATM   33  C   UNL     1      -7.264   8.686  67.920  1.00  0.00    -0.088 A  
ENDBRANCH  21  24
ENDBRANCH  19  21
ENDBRANCH  10  19
BRANCH  12  34
HETATM   34  C   UNL     1      -9.794   4.396  65.949  1.00  0.00    -0.237 C  
BRANCH  34  35
HETATM   35  C   UNL     1      -9.225   4.849  64.586  1.00  0.00    -0.032 C  
BRANCH  35  36
HETATM   36  C   UNL     1      -8.359   3.799  63.998  1.00  0.00    -0.091 A  
HETATM   37  C   UNL     1      -7.662   1.516  63.784  1.00  0.00    -0.059 A  
HETATM   38  C   UNL     1      -8.543   2.458  64.320  1.00  0.00    -0.091 A  
HETATM   39  C   UNL     1      -6.480   3.261  62.607  1.00  0.00    -0.018 A  
HETATM   40  C   UNL     1      -6.644   1.913  62.931  1.00  0.00    -0.017 A  
HETATM   41  C   UNL     1      -7.343   4.206  63.140  1.00  0.00    -0.050 A  
ENDBRANCH  35  36
ENDBRANCH  34  35
ENDBRANCH  12  34
BRANCH  12  42
HETATM   42  C   UNL     1      -7.577   5.510  66.641  1.00  0.00    -0.088 C  
BRANCH  42  43
HETATM   43  C   UNL     1      -6.411   4.749  67.311  1.00  0.00    -0.040 C  
HETATM   44  C   UNL     1      -5.619   3.658  66.590  1.00  0.00    -0.021 C  
ENDBRANCH  42  43
ENDBRANCH  12  42
TORSDOF 8
ENDMDL
MODEL      131
REMARK 921   NORMALIZED FREE ENERGY PREDICTED BY IDOCK:   -3.95 KCAL/MOL
REMARK 922        TOTAL FREE ENERGY PREDICTED BY IDOCK:   -7.78 KCAL/MOL
REMARK 923 INTER-LIGAND FREE ENERGY PREDICTED BY IDOCK:   -5.16 KCAL/MOL
REMARK 924 INTRA-LIGAND FREE ENERGY PREDICTED BY IDOCK:   -2.63 KCAL/MOL
REMARK 927      BINDING AFFINITY PREDICTED BY RF-SCORE:    0.00 PKD
ROOT
HETATM    1  C   UNL     1      -9.063   5.225  71.829  1.00  0.00    -0.154 C  
HETATM    2  C   UNL     1      -8.080   6.303  72.360  1.00  0.00    -0.104 A  
HETATM    3  C   UNL     1     -10.431   5.199  72.541  1.00  0.00    -0.267 C  
HETATM    4  C   UNL     1      -9.204   5.169  70.274  1.00  0.00    -0.193 C  
HETATM    5  C   UNL     1     -10.390   4.897  74.030  1.00  0.00    -0.298 C  
HETATM    6  C   UNL     1      -7.959   7.582  71.785  1.00  0.00    -0.094 A  
HETATM    7  C   UNL     1      -8.472   4.359  69.479  1.00  0.00    -0.076 C  
HETATM    8  O   UNL     1      -7.507   3.507  69.994  1.00  0.00    -0.044 OA 
HETATM    9  C   UNL     1      -8.440   4.460  67.943  1.00  0.00    -0.102 C  
HETATM   10  C   UNL     1      -6.957   8.490  72.194  1.00  0.00    -0.077 A  
HETATM   11  C   UNL     1      -6.113   8.170  73.246  1.00  0.00    -0.078 A  
HETATM   12  C   UNL     1      -9.444   5.413  67.296  1.00  0.00    -0.123 C  
HETATM   13  C   UNL     1     -10.200   6.054  69.608  1.00  0.00    -0.208 C  
HETATM   14  H   UNL     1      -6.992   2.936  69.435  1.00  0.00     0.000 HD 
HETATM   15  O   UNL     1     -10.199   6.175  68.264  1.00  0.00    -0.145 OA 
HETATM   16  C   UNL     1      -7.225   6.020  73.449  1.00  0.00    -0.085 A  
HETATM   17  O   UNL     1     -11.012   6.703  70.254  1.00  0.00    -0.258 OA 
HETATM   18  C   UNL     1      -6.269   6.948  73.897  1.00  0.00    -0.063 A  
ENDROOT
BRANCH  10  19
HETATM   19  N   UNL     1      -6.739   9.697  71.453  1.00  0.00     0.108 N  
HETATM   20  H   UNL     1      -6.934  10.605  71.874  1.00  0.00     0.000 HD 
BRANCH  19  21
HETATM   21  S   UNL     1      -6.142   9.592  69.842  1.00  0.00    -0.047 S  
HETATM   22  O   UNL     1      -5.143  10.636  69.700  1.00  0.00    -0.038 OA 
HETATM   23  O   UNL     1      -5.796   8.206  69.594  1.00  0.00    -0.026 OA 
BRANCH  21  24
HETATM   24  C   UNL     1      -7.510   9.982  68.763  1.00  0.00    -0.081 A  
HETATM   25  C   UNL     1      -9.760   9.857  67.887  1.00  0.00    -0.162 A  
HETATM   26  N   UNL     1      -7.294  11.097  68.089  1.00  0.00    -0.083 NA 
HETATM   27  F   UNL     1     -11.077  10.487  65.389  1.00  0.00    -0.084 F  
HETATM   28  C   UNL     1     -10.718  11.476  66.263  1.00  0.00    -0.272 C  
HETATM   29  F   UNL     1     -11.844  11.746  66.989  1.00  0.00    -0.370 F  
HETATM   30  C   UNL     1      -8.330  11.562  67.362  1.00  0.00    -0.148 A  
HETATM   31  F   UNL     1     -10.577  12.547  65.449  1.00  0.00    -0.275 F  
HETATM   32  C   UNL     1      -9.592  11.010  67.159  1.00  0.00    -0.189 A  
HETATM   33  C   UNL     1      -8.741   9.334  68.710  1.00  0.00    -0.132 A  
ENDBRANCH  21  24
ENDBRANCH  19  21
ENDBRANCH  10  19
BRANCH  12  34
HETATM   34  C   UNL     1     -10.404   4.457  66.573  1.00  0.00    -0.054 C  
BRANCH  34  35
HETATM   35  C   UNL     1     -10.375   4.698  65.047  1.00  0.00     0.003 C  
BRANCH  35  36
HETATM   36  C   UNL     1      -9.675   3.592  64.349  1.00  0.00    -0.177 A  
HETATM   37  C   UNL     1      -7.780   2.160  64.038  1.00  0.00    -0.061 A  
HETATM   38  C   UNL     1      -8.419   3.164  64.767  1.00  0.00    -0.098 A  
HETATM   39  C   UNL     1      -9.665   2.020  62.537  1.00  0.00    -0.089 A  
HETATM   40  C   UNL     1      -8.400   1.588  62.938  1.00  0.00    -0.061 A  
HETATM   41  C   UNL     1     -10.306   3.023  63.248  1.00  0.00    -0.186 A  
ENDBRANCH  35  36
ENDBRANCH  34  35
ENDBRANCH  12  34
BRANCH  12  42
HETATM   42  C   UNL     1      -8.855   6.490  66.252  1.00  0.00    -0.154 C  
BRANCH  42  43
HETATM   43  C   UNL     1      -7.334   6.753  66.325  1.00  0.00    -0.073 C  
HETATM   44  C   UNL     1      -6.374   6.341  65.210  1.00  0.00    -0.038 C  
ENDBRANCH  42  43
ENDBRANCH  12  42
TORSDOF 8
ENDMDL
MODEL      132
REMARK 921   NORMALIZED FREE ENERGY PREDICTED BY IDOCK:   -3.90 KCAL/MOL
REMARK 922        TOTAL FREE ENERGY PREDICTED BY IDOCK:   -7.72 KCAL/MOL
REMARK 923 INTER-LIGAND FREE ENERGY PREDICTED BY IDOCK:   -6.36 KCAL/MOL
REMARK 924 INTRA-LIGAND FREE ENERGY PREDICTED BY IDOCK:   -1.36 KCAL/MOL
REMARK 927      BINDING AFFINITY PREDICTED BY RF-SCORE:    0.00 PKD
ROOT
HETATM    1  C   UNL     1      -6.245  11.003  68.204  1.00  0.00    -0.049 C  
HETATM    2  C   UNL     1      -7.067  12.264  68.584  1.00  0.00    -0.103 A  
HETATM    3  C   UNL     1      -6.036  10.000  69.357  1.00  0.00    -0.041 C  
HETATM    4  C   UNL     1      -6.691  10.299  66.882  1.00  0.00    -0.081 C  
HETATM    5  C   UNL     1      -5.275  10.534  70.560  1.00  0.00    -0.062 C  
HETATM    6  C   UNL     1      -8.457  12.360  68.393  1.00  0.00    -0.131 A  
HETATM    7  C   UNL     1      -6.153  10.559  65.671  1.00  0.00    -0.131 C  
HETATM    8  O   UNL     1      -5.152  11.503  65.502  1.00  0.00    -0.473 OA 
HETATM    9  C   UNL     1      -6.737  10.045  64.341  1.00  0.00    -0.128 C  
HETATM   10  C   UNL     1      -9.157  13.568  68.613  1.00  0.00    -0.008 A  
HETATM   11  C   UNL     1      -8.492  14.678  69.111  1.00  0.00    -0.044 A  
HETATM   12  C   UNL     1      -7.877   9.032  64.438  1.00  0.00    -0.125 C  
HETATM   13  C   UNL     1      -7.773   9.276  66.940  1.00  0.00    -0.094 C  
HETATM   14  H   UNL     1      -4.773  11.686  64.650  1.00  0.00     0.000 HD 
HETATM   15  O   UNL     1      -8.315   8.806  65.796  1.00  0.00    -0.119 OA 
HETATM   16  C   UNL     1      -6.426  13.402  69.122  1.00  0.00    -0.105 A  
HETATM   17  O   UNL     1      -8.207   8.864  68.007  1.00  0.00    -0.109 OA 
HETATM   18  C   UNL     1      -7.133  14.586  69.400  1.00  0.00    -0.140 A  
ENDROOT
BRANCH  10  19
HETATM   19  N   UNL     1     -10.529  13.683  68.217  1.00  0.00    -0.242 N  
HETATM   20  H   UNL     1     -11.043  14.550  68.379  1.00  0.00     0.000 HD 
BRANCH  19  21
HETATM   21  S   UNL     1     -11.297  12.341  67.463  1.00  0.00    -0.348 S  
HETATM   22  O   UNL     1     -12.595  12.807  67.004  1.00  0.00    -0.103 OA 
HETATM   23  O   UNL     1     -10.351  11.764  66.527  1.00  0.00    -0.214 OA 
BRANCH  21  24
HETATM   24  C   UNL     1     -11.566  11.122  68.740  1.00  0.00    -0.322 A  
HETATM   25  C   UNL     1     -11.400   8.973  69.837  1.00  0.00    -0.016 A  
HETATM   26  N   UNL     1     -11.989  11.677  69.861  1.00  0.00    -0.332 NA 
HETATM   27  F   UNL     1     -12.874   7.535  71.868  1.00  0.00    -0.320 F  
HETATM   28  C   UNL     1     -12.035   8.562  72.203  1.00  0.00    -0.383 C  
HETATM   29  F   UNL     1     -10.857   7.966  72.558  1.00  0.00    -0.284 F  
HETATM   30  C   UNL     1     -12.075  10.863  70.932  1.00  0.00    -0.349 A  
HETATM   31  F   UNL     1     -12.559   8.996  73.373  1.00  0.00     0.208 F  
HETATM   32  C   UNL     1     -11.841   9.494  71.029  1.00  0.00    -0.408 A  
HETATM   33  C   UNL     1     -11.237   9.771  68.685  1.00  0.00    -0.068 A  
ENDBRANCH  21  24
ENDBRANCH  19  21
ENDBRANCH  10  19
BRANCH  12  34
HETATM   34  C   UNL     1      -7.231   7.741  63.913  1.00  0.00    -0.085 C  
BRANCH  34  35
HETATM   35  C   UNL     1      -6.823   6.817  65.083  1.00  0.00    -0.051 C  
BRANCH  35  36
HETATM   36  C   UNL     1      -7.717   5.637  65.164  1.00  0.00    -0.090 A  
HETATM   37  C   UNL     1      -9.099   3.966  64.144  1.00  0.00    -0.137 A  
HETATM   38  C   UNL     1      -8.213   5.037  64.011  1.00  0.00    -0.125 A  
HETATM   39  C   UNL     1      -8.938   4.106  66.549  1.00  0.00    -0.125 A  
HETATM   40  C   UNL     1      -9.452   3.501  65.402  1.00  0.00    -0.152 A  
HETATM   41  C   UNL     1      -8.064   5.175  66.428  1.00  0.00    -0.108 A  
ENDBRANCH  35  36
ENDBRANCH  34  35
ENDBRANCH  12  34
BRANCH  12  42
HETATM   42  C   UNL     1      -9.211   9.357  63.595  1.00  0.00     0.063 C  
BRANCH  42  43
HETATM   43  C   UNL     1      -9.249  10.725  62.875  1.00  0.00    -0.336 C  
HETATM   44  C   UNL     1     -10.456  11.659  62.949  1.00  0.00    -0.085 C  
ENDBRANCH  42  43
ENDBRANCH  12  42
TORSDOF 8
ENDMDL
MODEL      133
REMARK 921   NORMALIZED FREE ENERGY PREDICTED BY IDOCK:   -3.89 KCAL/MOL
REMARK 922        TOTAL FREE ENERGY PREDICTED BY IDOCK:   -7.70 KCAL/MOL
REMARK 923 INTER-LIGAND FREE ENERGY PREDICTED BY IDOCK:   -6.44 KCAL/MOL
REMARK 924 INTRA-LIGAND FREE ENERGY PREDICTED BY IDOCK:   -1.26 KCAL/MOL
REMARK 927      BINDING AFFINITY PREDICTED BY RF-SCORE:    0.00 PKD
ROOT
HETATM    1  C   UNL     1      -8.212   8.469  65.371  1.00  0.00    -0.145 C  
HETATM    2  C   UNL     1      -8.627   9.963  65.453  1.00  0.00    -0.164 A  
HETATM    3  C   UNL     1      -6.892   8.210  64.617  1.00  0.00    -0.067 C  
HETATM    4  C   UNL     1      -8.281   7.691  66.725  1.00  0.00    -0.124 C  
HETATM    5  C   UNL     1      -6.878   8.632  63.156  1.00  0.00    -0.090 C  
HETATM    6  C   UNL     1      -8.303  10.792  66.542  1.00  0.00    -0.146 A  
HETATM    7  C   UNL     1      -9.358   6.984  67.133  1.00  0.00    -0.143 C  
HETATM    8  O   UNL     1     -10.514   6.907  66.372  1.00  0.00    -0.481 OA 
HETATM    9  C   UNL     1      -9.522   6.410  68.553  1.00  0.00    -0.120 C  
HETATM   10  C   UNL     1      -8.815  12.104  66.658  1.00  0.00    -0.182 A  
HETATM   11  C   UNL     1      -9.592  12.641  65.643  1.00  0.00    -0.076 A  
HETATM   12  C   UNL     1      -8.306   6.496  69.474  1.00  0.00    -0.130 C  
HETATM   13  C   UNL     1      -7.101   7.717  67.633  1.00  0.00    -0.085 C  
HETATM   14  H   UNL     1     -11.271   6.409  66.660  1.00  0.00     0.000 HD 
HETATM   15  O   UNL     1      -7.207   7.229  68.887  1.00  0.00    -0.084 OA 
HETATM   16  C   UNL     1      -9.395  10.551  64.422  1.00  0.00    -0.307 A  
HETATM   17  O   UNL     1      -6.032   8.197  67.279  1.00  0.00    -0.047 OA 
HETATM   18  C   UNL     1      -9.854  11.877  64.508  1.00  0.00    -0.203 A  
ENDROOT
BRANCH  10  19
HETATM   19  N   UNL     1      -8.627  12.842  67.871  1.00  0.00    -0.174 N  
HETATM   20  H   UNL     1      -9.389  12.934  68.544  1.00  0.00     0.000 HD 
BRANCH  19  21
HETATM   21  S   UNL     1      -7.098  13.571  68.178  1.00  0.00    -0.138 S  
HETATM   22  O   UNL     1      -6.786  13.311  69.573  1.00  0.00    -0.044 OA 
HETATM   23  O   UNL     1      -6.191  13.142  67.131  1.00  0.00    -0.282 OA 
BRANCH  21  24
HETATM   24  C   UNL     1      -7.320  15.331  67.978  1.00  0.00    -0.124 A  
HETATM   25  C   UNL     1      -7.993  17.380  66.884  1.00  0.00    -0.257 A  
HETATM   26  N   UNL     1      -7.185  15.971  69.125  1.00  0.00    -0.196 NA 
HETATM   27  F   UNL     1      -7.300  20.182  67.069  1.00  0.00    -0.252 F  
HETATM   28  C   UNL     1      -8.101  19.592  68.009  1.00  0.00    -0.308 C  
HETATM   29  F   UNL     1      -9.382  19.877  67.624  1.00  0.00    -0.376 F  
HETATM   30  C   UNL     1      -7.485  17.285  69.111  1.00  0.00    -0.130 A  
HETATM   31  F   UNL     1      -7.895  20.370  69.097  1.00  0.00     0.035 F  
HETATM   32  C   UNL     1      -7.864  18.099  68.047  1.00  0.00    -0.266 A  
HETATM   33  C   UNL     1      -7.744  15.992  66.829  1.00  0.00    -0.270 A  
ENDBRANCH  21  24
ENDBRANCH  19  21
ENDBRANCH  10  19
BRANCH  12  34
HETATM   34  C   UNL     1      -7.885   5.025  69.620  1.00  0.00    -0.067 C  
BRANCH  34  35
HETATM   35  C   UNL     1      -8.964   4.219  70.377  1.00  0.00    -0.147 C  
BRANCH  35  36
HETATM   36  C   UNL     1      -8.653   4.147  71.826  1.00  0.00    -0.119 A  
HETATM   37  C   UNL     1      -7.368   3.310  73.666  1.00  0.00    -0.055 A  
HETATM   38  C   UNL     1      -7.581   3.391  72.289  1.00  0.00    -0.058 A  
HETATM   39  C   UNL     1      -9.262   4.753  74.065  1.00  0.00    -0.114 A  
HETATM   40  C   UNL     1      -8.197   3.989  74.546  1.00  0.00    -0.090 A  
HETATM   41  C   UNL     1      -9.487   4.835  72.700  1.00  0.00    -0.159 A  
ENDBRANCH  35  36
ENDBRANCH  34  35
ENDBRANCH  12  34
BRANCH  12  42
HETATM   42  C   UNL     1      -8.540   7.145  70.929  1.00  0.00    -0.138 C  
BRANCH  42  43
HETATM   43  C   UNL     1      -7.355   7.938  71.524  1.00  0.00    -0.068 C  
HETATM   44  C   UNL     1      -6.226   7.267  72.306  1.00  0.00    -0.043 C  
ENDBRANCH  42  43
ENDBRANCH  12  42
TORSDOF 8
ENDMDL
MODEL      134
REMARK 921   NORMALIZED FREE ENERGY PREDICTED BY IDOCK:   -3.85 KCAL/MOL
REMARK 922        TOTAL FREE ENERGY PREDICTED BY IDOCK:   -7.64 KCAL/MOL
REMARK 923 INTER-LIGAND FREE ENERGY PREDICTED BY IDOCK:   -5.82 KCAL/MOL
REMARK 924 INTRA-LIGAND FREE ENERGY PREDICTED BY IDOCK:   -1.82 KCAL/MOL
REMARK 927      BINDING AFFINITY PREDICTED BY RF-SCORE:    0.00 PKD
ROOT
HETATM    1  C   UNL     1      -8.186   4.914  71.159  1.00  0.00    -0.109 C  
HETATM    2  C   UNL     1      -8.015   6.421  71.492  1.00  0.00    -0.105 A  
HETATM    3  C   UNL     1      -9.223   4.177  72.031  1.00  0.00    -0.171 C  
HETATM    4  C   UNL     1      -8.354   4.590  69.640  1.00  0.00    -0.079 C  
HETATM    5  C   UNL     1      -8.924   4.150  73.521  1.00  0.00    -0.095 C  
HETATM    6  C   UNL     1      -8.716   7.440  70.821  1.00  0.00    -0.145 A  
HETATM    7  C   UNL     1      -7.329   4.273  68.819  1.00  0.00    -0.056 C  
HETATM    8  O   UNL     1      -6.019   4.226  69.268  1.00  0.00    -0.021 OA 
HETATM    9  C   UNL     1      -7.451   4.178  67.286  1.00  0.00    -0.073 C  
HETATM   10  C   UNL     1      -8.437   8.807  71.044  1.00  0.00    -0.179 A  
HETATM   11  C   UNL     1      -7.510   9.181  72.005  1.00  0.00     0.329 A  
HETATM   12  C   UNL     1      -8.861   4.266  66.703  1.00  0.00    -0.116 C  
HETATM   13  C   UNL     1      -9.717   4.625  69.041  1.00  0.00    -0.172 C  
HETATM   14  H   UNL     1      -5.298   4.003  68.691  1.00  0.00     0.000 HD 
HETATM   15  O   UNL     1      -9.866   4.552  67.701  1.00  0.00    -0.168 OA 
HETATM   16  C   UNL     1      -7.101   6.836  72.486  1.00  0.00    -0.075 A  
HETATM   17  O   UNL     1     -10.718   4.747  69.736  1.00  0.00     0.113 OA 
HETATM   18  C   UNL     1      -6.866   8.198  72.751  1.00  0.00    -0.105 A  
ENDROOT
BRANCH  10  19
HETATM   19  N   UNL     1      -9.026   9.805  70.201  1.00  0.00    -0.307 N  
HETATM   20  H   UNL     1      -9.957  10.170  70.406  1.00  0.00     0.000 HD 
BRANCH  19  21
HETATM   21  S   UNL     1      -8.143  10.378  68.840  1.00  0.00    -0.139 S  
HETATM   22  O   UNL     1      -7.324  11.482  69.311  1.00  0.00    -0.095 OA 
HETATM   23  O   UNL     1      -7.530   9.229  68.201  1.00  0.00    -0.082 OA 
BRANCH  21  24
HETATM   24  C   UNL     1      -9.342  11.029  67.689  1.00  0.00    -0.157 A  
HETATM   25  C   UNL     1     -11.216  12.363  66.942  1.00  0.00    -0.359 A  
HETATM   26  N   UNL     1      -8.987  10.801  66.437  1.00  0.00    -0.162 NA 
HETATM   27  F   UNL     1     -13.094  12.298  64.743  1.00  0.00    -0.520 F  
HETATM   28  C   UNL     1     -11.808  12.726  64.557  1.00  0.00    -0.379 C  
HETATM   29  F   UNL     1     -11.864  14.090  64.637  1.00  0.00    -0.346 F  
HETATM   30  C   UNL     1      -9.746  11.386  65.489  1.00  0.00    -0.230 A  
HETATM   31  F   UNL     1     -11.604  12.475  63.243  1.00  0.00    -0.495 F  
HETATM   32  C   UNL     1     -10.898  12.156  65.622  1.00  0.00    -0.323 A  
HETATM   33  C   UNL     1     -10.442  11.825  67.992  1.00  0.00    -0.221 A  
ENDBRANCH  21  24
ENDBRANCH  19  21
ENDBRANCH  10  19
BRANCH  12  34
HETATM   34  C   UNL     1      -9.097   2.845  66.168  1.00  0.00    -0.136 C  
BRANCH  34  35
HETATM   35  C   UNL     1      -9.098   2.833  64.623  1.00  0.00    -0.132 C  
BRANCH  35  36
HETATM   36  C   UNL     1      -7.742   2.548  64.094  1.00  0.00    -0.076 A  
HETATM   37  C   UNL     1      -5.606   1.474  64.239  1.00  0.00    -0.005 A  
HETATM   38  C   UNL     1      -6.893   1.660  64.746  1.00  0.00    -0.038 A  
HETATM   39  C   UNL     1      -6.065   3.023  62.445  1.00  0.00    -0.013 A  
HETATM   40  C   UNL     1      -5.198   2.144  63.096  1.00  0.00    -0.007 A  
HETATM   41  C   UNL     1      -7.343   3.222  62.945  1.00  0.00    -0.053 A  
ENDBRANCH  35  36
ENDBRANCH  34  35
ENDBRANCH  12  34
BRANCH  12  42
HETATM   42  C   UNL     1      -9.094   5.339  65.525  1.00  0.00    -0.145 C  
BRANCH  42  43
HETATM   43  C   UNL     1      -8.411   6.714  65.707  1.00  0.00    -0.150 C  
HETATM   44  C   UNL     1      -8.402   7.778  64.610  1.00  0.00    -0.026 C  
ENDBRANCH  42  43
ENDBRANCH  12  42
TORSDOF 8
ENDMDL
MODEL      135
REMARK 921   NORMALIZED FREE ENERGY PREDICTED BY IDOCK:   -3.85 KCAL/MOL
REMARK 922        TOTAL FREE ENERGY PREDICTED BY IDOCK:   -7.64 KCAL/MOL
REMARK 923 INTER-LIGAND FREE ENERGY PREDICTED BY IDOCK:   -6.61 KCAL/MOL
REMARK 924 INTRA-LIGAND FREE ENERGY PREDICTED BY IDOCK:   -1.02 KCAL/MOL
REMARK 927      BINDING AFFINITY PREDICTED BY RF-SCORE:    0.00 PKD
ROOT
HETATM    1  C   UNL     1     -12.483  13.095  69.775  1.00  0.00    -0.039 C  
HETATM    2  C   UNL     1     -12.364  11.665  70.369  1.00  0.00    -0.373 A  
HETATM    3  C   UNL     1     -12.712  14.207  70.819  1.00  0.00    -0.414 C  
HETATM    4  C   UNL     1     -11.373  13.473  68.743  1.00  0.00    -0.329 C  
HETATM    5  C   UNL     1     -13.989  14.087  71.635  1.00  0.00    -0.390 C  
HETATM    6  C   UNL     1     -11.132  11.068  70.694  1.00  0.00     0.390 A  
HETATM    7  C   UNL     1     -11.498  13.310  67.407  1.00  0.00    -0.332 C  
HETATM    8  O   UNL     1     -12.641  12.769  66.841  1.00  0.00    -0.142 OA 
HETATM    9  C   UNL     1     -10.336  13.463  66.408  1.00  0.00    -0.288 C  
HETATM   10  C   UNL     1     -11.043   9.716  71.096  1.00  0.00    -0.374 A  
HETATM   11  C   UNL     1     -12.194   8.962  71.265  1.00  0.00    -0.351 A  
HETATM   12  C   UNL     1      -9.022  14.013  66.962  1.00  0.00    -0.235 C  
HETATM   13  C   UNL     1     -10.092  14.050  69.239  1.00  0.00     0.141 C  
HETATM   14  H   UNL     1     -12.730  12.654  65.902  1.00  0.00     0.000 HD 
HETATM   15  O   UNL     1      -9.048  14.193  68.396  1.00  0.00    -0.186 OA 
HETATM   16  C   UNL     1     -13.519  10.879  70.581  1.00  0.00     0.463 A  
HETATM   17  O   UNL     1      -9.949  14.378  70.409  1.00  0.00     0.830 OA 
HETATM   18  C   UNL     1     -13.436   9.553  71.041  1.00  0.00    -0.196 A  
ENDROOT
BRANCH  10  19
HETATM   19  N   UNL     1      -9.761   9.090  71.223  1.00  0.00    -0.289 N  
HETATM   20  H   UNL     1      -9.017   9.296  70.556  1.00  0.00     0.000 HD 
BRANCH  19  21
HETATM   21  S   UNL     1      -9.495   7.985  72.515  1.00  0.00    -0.262 S  
HETATM   22  O   UNL     1      -8.173   8.275  73.044  1.00  0.00    -0.185 OA 
HETATM   23  O   UNL     1     -10.658   8.035  73.380  1.00  0.00    -0.201 OA 
BRANCH  21  24
HETATM   24  C   UNL     1      -9.458   6.352  71.794  1.00  0.00    -0.153 A  
HETATM   25  C   UNL     1     -10.124   4.553  70.322  1.00  0.00    -0.230 A  
HETATM   26  N   UNL     1      -8.338   5.717  72.087  1.00  0.00    -0.115 NA 
HETATM   27  F   UNL     1      -9.874   1.672  70.283  1.00  0.00    -0.168 F  
HETATM   28  C   UNL     1      -8.809   2.474  69.974  1.00  0.00    -0.080 C  
HETATM   29  F   UNL     1      -8.795   2.549  68.610  1.00  0.00    -0.094 F  
HETATM   30  C   UNL     1      -8.144   4.537  71.464  1.00  0.00    -0.100 A  
HETATM   31  F   UNL     1      -7.752   1.686  70.280  1.00  0.00    -0.039 F  
HETATM   32  C   UNL     1      -8.980   3.844  70.593  1.00  0.00    -0.155 A  
HETATM   33  C   UNL     1     -10.376   5.817  70.896  1.00  0.00    -0.299 A  
ENDBRANCH  21  24
ENDBRANCH  19  21
ENDBRANCH  10  19
BRANCH  12  34
HETATM   34  C   UNL     1      -8.927  15.397  66.300  1.00  0.00    -0.341 C  
BRANCH  34  35
HETATM   35  C   UNL     1      -8.316  16.430  67.273  1.00  0.00    -0.200 C  
BRANCH  35  36
HETATM   36  C   UNL     1      -9.007  17.738  67.159  1.00  0.00    -0.249 A  
HETATM   37  C   UNL     1     -10.859  19.190  67.612  1.00  0.00    -0.467 A  
HETATM   38  C   UNL     1     -10.222  17.961  67.800  1.00  0.00    -0.372 A  
HETATM   39  C   UNL     1      -9.051  19.934  66.195  1.00  0.00    -0.393 A  
HETATM   40  C   UNL     1     -10.276  20.169  66.822  1.00  0.00    -0.562 A  
HETATM   41  C   UNL     1      -8.414  18.715  66.368  1.00  0.00    -0.286 A  
ENDBRANCH  35  36
ENDBRANCH  34  35
ENDBRANCH  12  34
BRANCH  12  42
HETATM   42  C   UNL     1      -7.689  13.164  66.649  1.00  0.00     0.666 C  
BRANCH  42  43
HETATM   43  C   UNL     1      -7.347  12.036  67.648  1.00  0.00    -0.121 C  
HETATM   44  C   UNL     1      -7.489  10.555  67.296  1.00  0.00    -0.095 C  
ENDBRANCH  42  43
ENDBRANCH  12  42
TORSDOF 8
ENDMDL
MODEL      136
REMARK 921   NORMALIZED FREE ENERGY PREDICTED BY IDOCK:   -3.75 KCAL/MOL
REMARK 922        TOTAL FREE ENERGY PREDICTED BY IDOCK:   -7.50 KCAL/MOL
REMARK 923 INTER-LIGAND FREE ENERGY PREDICTED BY IDOCK:   -6.82 KCAL/MOL
REMARK 924 INTRA-LIGAND FREE ENERGY PREDICTED BY IDOCK:   -0.68 KCAL/MOL
REMARK 927      BINDING AFFINITY PREDICTED BY RF-SCORE:    0.00 PKD
ROOT
HETATM    1  C   UNL     1     -12.384  12.998  69.789  1.00  0.00    -0.141 C  
HETATM    2  C   UNL     1     -12.249  11.581  70.408  1.00  0.00    -0.442 A  
HETATM    3  C   UNL     1     -12.514  14.139  70.818  1.00  0.00    -0.436 C  
HETATM    4  C   UNL     1     -11.348  13.329  68.667  1.00  0.00    -0.324 C  
HETATM    5  C   UNL     1     -13.729  14.065  71.729  1.00  0.00    -0.479 C  
HETATM    6  C   UNL     1     -11.007  10.967  70.656  1.00  0.00     0.413 A  
HETATM    7  C   UNL     1     -11.576  13.137  67.350  1.00  0.00    -0.356 C  
HETATM    8  O   UNL     1     -12.768  12.605  66.883  1.00  0.00     0.136 OA 
HETATM    9  C   UNL     1     -10.488  13.242  66.264  1.00  0.00    -0.289 C  
HETATM   10  C   UNL     1     -10.913   9.624  71.085  1.00  0.00    -0.360 A  
HETATM   11  C   UNL     1     -12.062   8.897  71.357  1.00  0.00    -0.381 A  
HETATM   12  C   UNL     1      -9.127  13.779  66.704  1.00  0.00    -0.179 C  
HETATM   13  C   UNL     1     -10.023  13.891  69.053  1.00  0.00     0.023 C  
HETATM   14  H   UNL     1     -12.928  12.471  65.956  1.00  0.00     0.000 HD 
HETATM   15  O   UNL     1      -9.042  13.993  68.131  1.00  0.00    -0.179 OA 
HETATM   16  C   UNL     1     -13.399  10.824  70.725  1.00  0.00     0.075 A  
HETATM   17  O   UNL     1      -9.787  14.244  70.200  1.00  0.00     0.779 OA 
HETATM   18  C   UNL     1     -13.306   9.508  71.212  1.00  0.00    -0.385 A  
ENDROOT
BRANCH  10  19
HETATM   19  N   UNL     1      -9.637   8.974  71.132  1.00  0.00    -0.269 N  
HETATM   20  H   UNL     1      -8.780   9.506  70.977  1.00  0.00     0.000 HD 
BRANCH  19  21
HETATM   21  S   UNL     1      -9.570   7.285  71.453  1.00  0.00    -0.159 S  
HETATM   22  O   UNL     1      -8.310   7.041  72.134  1.00  0.00    -0.104 OA 
HETATM   23  O   UNL     1     -10.825   6.908  72.074  1.00  0.00    -0.218 OA 
BRANCH  21  24
HETATM   24  C   UNL     1      -9.512   6.464  69.869  1.00  0.00    -0.154 A  
HETATM   25  C   UNL     1      -8.686   4.947  68.176  1.00  0.00    -0.108 A  
HETATM   26  N   UNL     1     -10.640   6.619  69.200  1.00  0.00    -0.224 NA 
HETATM   27  F   UNL     1      -8.876   4.709  65.299  1.00  0.00    -0.124 F  
HETATM   28  C   UNL     1      -9.925   4.359  66.104  1.00  0.00    -0.238 C  
HETATM   29  F   UNL     1      -9.824   3.006  66.265  1.00  0.00    -0.053 F  
HETATM   30  C   UNL     1     -10.757   5.910  68.059  1.00  0.00    -0.252 A  
HETATM   31  F   UNL     1     -10.989   4.522  65.284  1.00  0.00    -0.333 F  
HETATM   32  C   UNL     1      -9.835   5.074  67.434  1.00  0.00    -0.207 A  
HETATM   33  C   UNL     1      -8.509   5.618  69.405  1.00  0.00    -0.106 A  
ENDBRANCH  21  24
ENDBRANCH  19  21
ENDBRANCH  10  19
BRANCH  12  34
HETATM   34  C   UNL     1      -9.056  15.143  66.002  1.00  0.00    -0.196 C  
BRANCH  34  35
HETATM   35  C   UNL     1      -8.103  16.099  66.755  1.00  0.00    -0.305 C  
BRANCH  35  36
HETATM   36  C   UNL     1      -8.775  17.386  67.058  1.00  0.00    -0.249 A  
HETATM   37  C   UNL     1     -10.714  18.664  67.649  1.00  0.00    -0.428 A  
HETATM   38  C   UNL     1     -10.114  17.422  67.433  1.00  0.00    -0.321 A  
HETATM   39  C   UNL     1      -8.631  19.779  67.150  1.00  0.00    -0.376 A  
HETATM   40  C   UNL     1      -9.977  19.831  67.515  1.00  0.00    -0.540 A  
HETATM   41  C   UNL     1      -8.028  18.551  66.925  1.00  0.00    -0.250 A  
ENDBRANCH  35  36
ENDBRANCH  34  35
ENDBRANCH  12  34
BRANCH  12  42
HETATM   42  C   UNL     1      -7.837  12.895  66.315  1.00  0.00     1.205 C  
BRANCH  42  43
HETATM   43  C   UNL     1      -7.905  11.393  66.671  1.00  0.00    -0.137 C  
HETATM   44  C   UNL     1      -7.820  10.293  65.614  1.00  0.00    -0.151 C  
ENDBRANCH  42  43
ENDBRANCH  12  42
TORSDOF 8
ENDMDL
MODEL      137
REMARK 921   NORMALIZED FREE ENERGY PREDICTED BY IDOCK:   -3.72 KCAL/MOL
REMARK 922        TOTAL FREE ENERGY PREDICTED BY IDOCK:   -7.45 KCAL/MOL
REMARK 923 INTER-LIGAND FREE ENERGY PREDICTED BY IDOCK:   -5.39 KCAL/MOL
REMARK 924 INTRA-LIGAND FREE ENERGY PREDICTED BY IDOCK:   -2.06 KCAL/MOL
REMARK 927      BINDING AFFINITY PREDICTED BY RF-SCORE:    0.00 PKD
ROOT
HETATM    1  C   UNL     1     -11.024  14.859  66.801  1.00  0.00    -0.326 C  
HETATM    2  C   UNL     1      -9.972  15.852  67.362  1.00  0.00    -0.239 A  
HETATM    3  C   UNL     1     -11.173  14.880  65.266  1.00  0.00    -0.369 C  
HETATM    4  C   UNL     1     -10.925  13.405  67.365  1.00  0.00    -0.287 C  
HETATM    5  C   UNL     1     -11.625  16.204  64.670  1.00  0.00    -0.133 C  
HETATM    6  C   UNL     1      -8.638  15.492  67.624  1.00  0.00    -0.175 A  
HETATM    7  C   UNL     1     -11.622  12.961  68.433  1.00  0.00    -0.333 C  
HETATM    8  O   UNL     1     -12.487  13.785  69.136  1.00  0.00    -0.366 OA 
HETATM    9  C   UNL     1     -11.361  11.613  69.132  1.00  0.00    -0.345 C  
HETATM   10  C   UNL     1      -7.740  16.373  68.268  1.00  0.00    -0.162 A  
HETATM   11  C   UNL     1      -8.137  17.663  68.584  1.00  0.00    -0.269 A  
HETATM   12  C   UNL     1     -10.383  10.661  68.444  1.00  0.00    -0.175 C  
HETATM   13  C   UNL     1     -10.012  12.434  66.698  1.00  0.00    -0.225 C  
HETATM   14  H   UNL     1     -12.978  13.473  69.887  1.00  0.00     0.000 HD 
HETATM   15  O   UNL     1      -9.753  11.245  67.282  1.00  0.00    -0.172 OA 
HETATM   16  C   UNL     1     -10.335  17.183  67.669  1.00  0.00    -0.344 A  
HETATM   17  O   UNL     1      -9.463  12.697  65.637  1.00  0.00    -0.129 OA 
HETATM   18  C   UNL     1      -9.424  18.081  68.254  1.00  0.00    -0.305 A  
ENDROOT
BRANCH  10  19
HETATM   19  N   UNL     1      -6.457  15.902  68.696  1.00  0.00    -0.110 N  
HETATM   20  H   UNL     1      -5.604  16.258  68.263  1.00  0.00     0.000 HD 
BRANCH  19  21
HETATM   21  S   UNL     1      -6.374  14.726  69.950  1.00  0.00    -0.166 S  
HETATM   22  O   UNL     1      -5.142  14.981  70.678  1.00  0.00    -0.114 OA 
HETATM   23  O   UNL     1      -7.649  14.733  70.641  1.00  0.00     0.632 OA 
BRANCH  21  24
HETATM   24  C   UNL     1      -6.228  13.136  69.153  1.00  0.00    -0.100 A  
HETATM   25  C   UNL     1      -6.202  10.723  68.985  1.00  0.00    -0.042 A  
HETATM   26  N   UNL     1      -6.320  13.240  67.840  1.00  0.00    -0.128 NA 
HETATM   27  F   UNL     1      -5.128   8.759  67.154  1.00  0.00    -0.030 F  
HETATM   28  C   UNL     1      -6.252   9.473  66.839  1.00  0.00    -0.065 C  
HETATM   29  F   UNL     1      -7.302   8.665  67.177  1.00  0.00    -0.082 F  
HETATM   30  C   UNL     1      -6.377  12.081  67.154  1.00  0.00    -0.149 A  
HETATM   31  F   UNL     1      -6.237   9.458  65.486  1.00  0.00    -0.060 F  
HETATM   32  C   UNL     1      -6.292  10.770  67.616  1.00  0.00    -0.056 A  
HETATM   33  C   UNL     1      -6.188  11.892  69.776  1.00  0.00    -0.137 A  
ENDBRANCH  21  24
ENDBRANCH  19  21
ENDBRANCH  10  19
BRANCH  12  34
HETATM   34  C   UNL     1     -11.295   9.514  67.979  1.00  0.00     0.282 C  
BRANCH  34  35
HETATM   35  C   UNL     1     -11.070   8.251  68.840  1.00  0.00     0.260 C  
BRANCH  35  36
HETATM   36  C   UNL     1     -10.511   7.146  68.023  1.00  0.00    -0.251 A  
HETATM   37  C   UNL     1      -9.647   6.274  65.966  1.00  0.00     0.016 A  
HETATM   38  C   UNL     1     -10.112   7.361  66.708  1.00  0.00    -0.305 A  
HETATM   39  C   UNL     1      -9.959   4.817  67.866  1.00  0.00    -0.161 A  
HETATM   40  C   UNL     1      -9.566   5.015  66.541  1.00  0.00    -0.168 A  
HETATM   41  C   UNL     1     -10.429   5.888  68.610  1.00  0.00    -0.302 A  
ENDBRANCH  35  36
ENDBRANCH  34  35
ENDBRANCH  12  34
BRANCH  12  42
HETATM   42  C   UNL     1      -9.185  10.075  69.347  1.00  0.00    -0.229 C  
BRANCH  42  43
HETATM   43  C   UNL     1      -9.408  10.092  70.876  1.00  0.00     0.782 C  
HETATM   44  C   UNL     1      -9.286   8.836  71.738  1.00  0.00    -0.350 C  
ENDBRANCH  42  43
ENDBRANCH  12  42
TORSDOF 8
ENDMDL
MODEL      138
REMARK 921   NORMALIZED FREE ENERGY PREDICTED BY IDOCK:   -3.64 KCAL/MOL
REMARK 922        TOTAL FREE ENERGY PREDICTED BY IDOCK:   -7.33 KCAL/MOL
REMARK 923 INTER-LIGAND FREE ENERGY PREDICTED BY IDOCK:   -6.98 KCAL/MOL
REMARK 924 INTRA-LIGAND FREE ENERGY PREDICTED BY IDOCK:   -0.35 KCAL/MOL
REMARK 927      BINDING AFFINITY PREDICTED BY RF-SCORE:    0.00 PKD
ROOT
HETATM    1  C   UNL     1     -10.705  13.695  65.765  1.00  0.00    -0.280 C  
HETATM    2  C   UNL     1     -10.223  12.425  65.014  1.00  0.00    -0.306 A  
HETATM    3  C   UNL     1     -12.077  13.551  66.455  1.00  0.00    -0.467 C  
HETATM    4  C   UNL     1      -9.639  14.352  66.701  1.00  0.00    -0.295 C  
HETATM    5  C   UNL     1     -13.247  13.257  65.530  1.00  0.00     0.395 C  
HETATM    6  C   UNL     1      -9.384  11.458  65.599  1.00  0.00    -0.242 A  
HETATM    7  C   UNL     1      -8.810  15.347  66.317  1.00  0.00    -0.267 C  
HETATM    8  O   UNL     1      -8.831  15.861  65.031  1.00  0.00     0.735 OA 
HETATM    9  C   UNL     1      -7.611  15.838  67.151  1.00  0.00    -0.259 C  
HETATM   10  C   UNL     1      -8.845  10.389  64.849  1.00  0.00    -0.190 A  
HETATM   11  C   UNL     1      -9.204  10.218  63.521  1.00  0.00    -0.321 A  
HETATM   12  C   UNL     1      -7.488  15.284  68.570  1.00  0.00    -0.121 C  
HETATM   13  C   UNL     1      -9.515  13.867  68.104  1.00  0.00    -0.207 C  
HETATM   14  H   UNL     1      -8.248  16.561  64.761  1.00  0.00     0.000 HD 
HETATM   15  O   UNL     1      -8.474  14.269  68.865  1.00  0.00    -0.128 OA 
HETATM   16  C   UNL     1     -10.593  12.205  63.668  1.00  0.00    -0.504 A  
HETATM   17  O   UNL     1     -10.323  13.084  68.584  1.00  0.00    -0.241 OA 
HETATM   18  C   UNL     1     -10.106  11.106  62.938  1.00  0.00    -0.235 A  
ENDROOT
BRANCH  10  19
HETATM   19  N   UNL     1      -7.841   9.545  65.426  1.00  0.00    -0.107 N  
HETATM   20  H   UNL     1      -7.263   9.881  66.196  1.00  0.00     0.000 HD 
BRANCH  19  21
HETATM   21  S   UNL     1      -7.624   7.956  64.800  1.00  0.00    -0.118 S  
HETATM   22  O   UNL     1      -8.539   7.822  63.679  1.00  0.00     0.162 OA 
HETATM   23  O   UNL     1      -6.201   7.750  64.615  1.00  0.00    -0.044 OA 
BRANCH  21  24
HETATM   24  C   UNL     1      -8.146   6.826  66.080  1.00  0.00    -0.119 A  
HETATM   25  C   UNL     1      -7.938   5.023  67.678  1.00  0.00    -0.095 A  
HETATM   26  N   UNL     1      -9.263   7.229  66.658  1.00  0.00    -0.152 NA 
HETATM   27  F   UNL     1      -9.738   3.241  69.076  1.00  0.00    -0.241 F  
HETATM   28  C   UNL     1      -9.595   4.545  69.466  1.00  0.00    -0.195 C  
HETATM   29  F   UNL     1      -8.689   4.521  70.488  1.00  0.00    -0.091 F  
HETATM   30  C   UNL     1      -9.658   6.528  67.740  1.00  0.00    -0.122 A  
HETATM   31  F   UNL     1     -10.779   4.799  70.071  1.00  0.00    -0.270 F  
HETATM   32  C   UNL     1      -9.097   5.392  68.316  1.00  0.00    -0.116 A  
HETATM   33  C   UNL     1      -7.433   5.736  66.570  1.00  0.00    -0.083 A  
ENDBRANCH  21  24
ENDBRANCH  19  21
ENDBRANCH  10  19
BRANCH  12  34
HETATM   34  C   UNL     1      -7.780  16.514  69.443  1.00  0.00    -0.037 C  
BRANCH  34  35
HETATM   35  C   UNL     1      -7.375  17.814  68.712  1.00  0.00    -0.271 C  
BRANCH  35  36
HETATM   36  C   UNL     1      -8.572  18.593  68.314  1.00  0.00    -0.347 A  
HETATM   37  C   UNL     1     -10.946  18.898  68.196  1.00  0.00     0.119 A  
HETATM   38  C   UNL     1      -9.851  18.157  68.646  1.00  0.00    -0.389 A  
HETATM   39  C   UNL     1      -9.465  20.485  67.140  1.00  0.00    -0.544 A  
HETATM   40  C   UNL     1     -10.755  20.054  67.456  1.00  0.00    -0.345 A  
HETATM   41  C   UNL     1      -8.371  19.753  67.575  1.00  0.00    -0.351 A  
ENDBRANCH  35  36
ENDBRANCH  34  35
ENDBRANCH  12  34
BRANCH  12  42
HETATM   42  C   UNL     1      -6.067  14.647  68.980  1.00  0.00    -0.090 C  
BRANCH  42  43
HETATM   43  C   UNL     1      -6.112  13.288  69.715  1.00  0.00    -0.128 C  
HETATM   44  C   UNL     1      -6.110  11.952  68.974  1.00  0.00    -0.071 C  
ENDBRANCH  42  43
ENDBRANCH  12  42
TORSDOF 8
ENDMDL
MODEL      139
REMARK 921   NORMALIZED FREE ENERGY PREDICTED BY IDOCK:   -3.52 KCAL/MOL
REMARK 922        TOTAL FREE ENERGY PREDICTED BY IDOCK:   -7.17 KCAL/MOL
REMARK 923 INTER-LIGAND FREE ENERGY PREDICTED BY IDOCK:   -5.52 KCAL/MOL
REMARK 924 INTRA-LIGAND FREE ENERGY PREDICTED BY IDOCK:   -1.64 KCAL/MOL
REMARK 927      BINDING AFFINITY PREDICTED BY RF-SCORE:    0.00 PKD
ROOT
HETATM    1  C   UNL     1     -11.890  13.615  70.064  1.00  0.00    -0.378 C  
HETATM    2  C   UNL     1     -11.866  12.147  70.566  1.00  0.00    -0.185 A  
HETATM    3  C   UNL     1     -11.348  14.648  71.074  1.00  0.00    -0.129 C  
HETATM    4  C   UNL     1     -11.310  13.831  68.629  1.00  0.00    -0.321 C  
HETATM    5  C   UNL     1     -12.107  14.741  72.387  1.00  0.00    -0.340 C  
HETATM    6  C   UNL     1     -10.805  11.261  70.300  1.00  0.00     0.455 A  
HETATM    7  C   UNL     1     -12.059  13.826  67.505  1.00  0.00    -0.331 C  
HETATM    8  O   UNL     1     -13.427  13.609  67.538  1.00  0.00     2.284 OA 
HETATM    9  C   UNL     1     -11.473  13.807  66.080  1.00  0.00    -0.350 C  
HETATM   10  C   UNL     1     -10.874   9.892  70.644  1.00  0.00    -0.330 A  
HETATM   11  C   UNL     1     -11.969   9.402  71.338  1.00  0.00    -0.446 A  
HETATM   12  C   UNL     1      -9.961  13.996  65.957  1.00  0.00    -0.315 C  
HETATM   13  C   UNL     1      -9.846  14.058  68.470  1.00  0.00    -0.225 C  
HETATM   14  H   UNL     1     -13.954  13.606  66.747  1.00  0.00     0.000 HD 
HETATM   15  O   UNL     1      -9.294  14.042  67.238  1.00  0.00    -0.213 OA 
HETATM   16  C   UNL     1     -12.953  11.622  71.301  1.00  0.00    -0.368 A  
HETATM   17  O   UNL     1      -9.117  14.235  69.436  1.00  0.00     0.180 OA 
HETATM   18  C   UNL     1     -12.994  10.274  71.698  1.00  0.00    -0.570 A  
ENDROOT
BRANCH  10  19
HETATM   19  N   UNL     1      -9.866   8.986  70.180  1.00  0.00    -0.177 N  
HETATM   20  H   UNL     1      -8.886   9.131  70.427  1.00  0.00     0.000 HD 
BRANCH  19  21
HETATM   21  S   UNL     1     -10.330   7.650  69.200  1.00  0.00    -0.211 S  
HETATM   22  O   UNL     1      -9.503   6.527  69.609  1.00  0.00    -0.145 OA 
HETATM   23  O   UNL     1     -11.776   7.553  69.250  1.00  0.00     0.443 OA 
BRANCH  21  24
HETATM   24  C   UNL     1      -9.900   8.073  67.520  1.00  0.00    -0.172 A  
HETATM   25  C   UNL     1      -9.502   9.514  65.619  1.00  0.00    -0.326 A  
HETATM   26  N   UNL     1      -9.289   7.074  66.908  1.00  0.00    -0.147 NA 
HETATM   27  F   UNL     1      -9.424   9.219  62.742  1.00  0.00    -0.179 F  
HETATM   28  C   UNL     1      -8.387   8.783  63.522  1.00  0.00    -0.145 C  
HETATM   29  F   UNL     1      -7.466   9.793  63.499  1.00  0.00    -0.109 F  
HETATM   30  C   UNL     1      -8.785   7.344  65.687  1.00  0.00    -0.075 A  
HETATM   31  F   UNL     1      -7.839   7.809  62.760  1.00  0.00    -0.107 F  
HETATM   32  C   UNL     1      -8.862   8.511  64.932  1.00  0.00    -0.029 A  
HETATM   33  C   UNL     1     -10.012   9.324  66.920  1.00  0.00    -0.298 A  
ENDBRANCH  21  24
ENDBRANCH  19  21
ENDBRANCH  10  19
BRANCH  12  34
HETATM   34  C   UNL     1      -9.843  15.379  65.297  1.00  0.00    -0.239 C  
BRANCH  34  35
HETATM   35  C   UNL     1      -8.741  16.220  65.978  1.00  0.00    -0.285 C  
BRANCH  35  36
HETATM   36  C   UNL     1      -9.263  17.548  66.384  1.00  0.00    -0.267 A  
HETATM   37  C   UNL     1      -9.179  19.942  66.361  1.00  0.00    -0.470 A  
HETATM   38  C   UNL     1      -8.688  18.719  65.902  1.00  0.00     0.168 A  
HETATM   39  C   UNL     1     -10.809  18.798  67.727  1.00  0.00    -0.333 A  
HETATM   40  C   UNL     1     -10.234  19.981  67.261  1.00  0.00    -0.565 A  
HETATM   41  C   UNL     1     -10.323  17.578  67.283  1.00  0.00    -0.337 A  
ENDBRANCH  35  36
ENDBRANCH  34  35
ENDBRANCH  12  34
BRANCH  12  42
HETATM   42  C   UNL     1      -9.162  12.904  65.084  1.00  0.00     0.684 C  
BRANCH  42  43
HETATM   43  C   UNL     1      -9.876  12.387  63.814  1.00  0.00    -0.126 C  
HETATM   44  C   UNL     1     -11.286  11.800  63.845  1.00  0.00    -0.493 C  
ENDBRANCH  42  43
ENDBRANCH  12  42
TORSDOF 8
ENDMDL
MODEL      140
REMARK 921   NORMALIZED FREE ENERGY PREDICTED BY IDOCK:   -3.44 KCAL/MOL
REMARK 922        TOTAL FREE ENERGY PREDICTED BY IDOCK:   -7.04 KCAL/MOL
REMARK 923 INTER-LIGAND FREE ENERGY PREDICTED BY IDOCK:   -5.08 KCAL/MOL
REMARK 924 INTRA-LIGAND FREE ENERGY PREDICTED BY IDOCK:   -1.96 KCAL/MOL
REMARK 927      BINDING AFFINITY PREDICTED BY RF-SCORE:    0.00 PKD
ROOT
HETATM    1  C   UNL     1      -8.390   4.989  69.921  1.00  0.00    -0.081 C  
HETATM    2  C   UNL     1      -8.812   5.694  71.237  1.00  0.00    -0.141 A  
HETATM    3  C   UNL     1      -9.388   3.930  69.411  1.00  0.00    -0.246 C  
HETATM    4  C   UNL     1      -7.913   5.948  68.783  1.00  0.00    -0.103 C  
HETATM    5  C   UNL     1      -9.632   2.756  70.346  1.00  0.00    -0.137 C  
HETATM    6  C   UNL     1      -9.512   6.915  71.265  1.00  0.00    -0.165 A  
HETATM    7  C   UNL     1      -6.623   6.290  68.576  1.00  0.00    -0.059 C  
HETATM    8  O   UNL     1      -5.602   5.818  69.386  1.00  0.00    -0.007 OA 
HETATM    9  C   UNL     1      -6.172   7.404  67.612  1.00  0.00    -0.047 C  
HETATM   10  C   UNL     1      -9.757   7.606  72.473  1.00  0.00    -0.184 A  
HETATM   11  C   UNL     1      -9.381   7.046  73.684  1.00  0.00    -0.226 A  
HETATM   12  C   UNL     1      -7.247   8.012  66.712  1.00  0.00    -0.082 C  
HETATM   13  C   UNL     1      -8.927   6.530  67.859  1.00  0.00    -0.115 C  
HETATM   14  H   UNL     1      -4.695   6.059  69.241  1.00  0.00     0.000 HD 
HETATM   15  O   UNL     1      -8.572   7.513  67.004  1.00  0.00    -0.119 OA 
HETATM   16  C   UNL     1      -8.471   5.137  72.490  1.00  0.00    -0.121 A  
HETATM   17  O   UNL     1     -10.092   6.156  67.870  1.00  0.00    -0.132 OA 
HETATM   18  C   UNL     1      -8.770   5.795  73.697  1.00  0.00    -0.122 A  
ENDROOT
BRANCH  10  19
HETATM   19  N   UNL     1     -10.291   8.935  72.442  1.00  0.00    -0.166 N  
HETATM   20  H   UNL     1      -9.747   9.720  72.802  1.00  0.00     0.000 HD 
BRANCH  19  21
HETATM   21  S   UNL     1     -11.863   9.189  71.789  1.00  0.00    -0.385 S  
HETATM   22  O   UNL     1     -12.477   7.878  71.661  1.00  0.00    -0.301 OA 
HETATM   23  O   UNL     1     -12.502  10.224  72.578  1.00  0.00     0.227 OA 
BRANCH  21  24
HETATM   24  C   UNL     1     -11.635   9.857  70.150  1.00  0.00    -0.218 A  
HETATM   25  C   UNL     1     -11.116  11.525  68.478  1.00  0.00    -0.287 A  
HETATM   26  N   UNL     1     -11.548   8.901  69.243  1.00  0.00     0.524 NA 
HETATM   27  F   UNL     1     -11.692  11.935  65.673  1.00  0.00    -0.396 F  
HETATM   28  C   UNL     1     -10.753  11.024  66.072  1.00  0.00    -0.177 C  
HETATM   29  F   UNL     1      -9.554  11.675  65.978  1.00  0.00    -0.210 F  
HETATM   30  C   UNL     1     -11.221   9.293  67.995  1.00  0.00     0.303 A  
HETATM   31  F   UNL     1     -10.742  10.147  65.042  1.00  0.00    -0.236 F  
HETATM   32  C   UNL     1     -11.018  10.575  67.491  1.00  0.00    -0.365 A  
HETATM   33  C   UNL     1     -11.405  11.189  69.817  1.00  0.00    -0.354 A  
ENDBRANCH  21  24
ENDBRANCH  19  21
ENDBRANCH  10  19
BRANCH  12  34
HETATM   34  C   UNL     1      -6.839   7.520  65.315  1.00  0.00    -0.048 C  
BRANCH  34  35
HETATM   35  C   UNL     1      -7.957   6.658  64.688  1.00  0.00    -0.113 C  
BRANCH  35  36
HETATM   36  C   UNL     1      -7.852   5.247  65.135  1.00  0.00    -0.093 A  
HETATM   37  C   UNL     1      -6.582   3.376  65.926  1.00  0.00    -0.040 A  
HETATM   38  C   UNL     1      -6.639   4.725  65.573  1.00  0.00    -0.041 A  
HETATM   39  C   UNL     1      -8.932   3.126  65.433  1.00  0.00    -0.142 A  
HETATM   40  C   UNL     1      -7.719   2.585  65.863  1.00  0.00    -0.080 A  
HETATM   41  C   UNL     1      -8.998   4.463  65.072  1.00  0.00    -0.145 A  
ENDBRANCH  35  36
ENDBRANCH  34  35
ENDBRANCH  12  34
BRANCH  12  42
HETATM   42  C   UNL     1      -7.372   9.617  66.712  1.00  0.00    -0.091 C  
BRANCH  42  43
HETATM   43  C   UNL     1      -6.046  10.407  66.627  1.00  0.00    -0.068 C  
HETATM   44  C   UNL     1      -5.136  10.355  65.401  1.00  0.00    -0.088 C  
ENDBRANCH  42  43
ENDBRANCH  12  42
TORSDOF 8
ENDMDL
MODEL      141
REMARK 921   NORMALIZED FREE ENERGY PREDICTED BY IDOCK:   -3.41 KCAL/MOL
REMARK 922        TOTAL FREE ENERGY PREDICTED BY IDOCK:   -6.99 KCAL/MOL
REMARK 923 INTER-LIGAND FREE ENERGY PREDICTED BY IDOCK:   -4.43 KCAL/MOL
REMARK 924 INTRA-LIGAND FREE ENERGY PREDICTED BY IDOCK:   -2.56 KCAL/MOL
REMARK 927      BINDING AFFINITY PREDICTED BY RF-SCORE:    0.00 PKD
ROOT
HETATM    1  C   UNL     1     -11.953  15.315  70.392  1.00  0.00    -0.374 C  
HETATM    2  C   UNL     1     -12.419  13.983  71.039  1.00  0.00    -0.444 A  
HETATM    3  C   UNL     1     -11.198  16.263  71.345  1.00  0.00    -0.091 C  
HETATM    4  C   UNL     1     -11.229  15.161  69.016  1.00  0.00    -0.282 C  
HETATM    5  C   UNL     1     -11.989  16.746  72.550  1.00  0.00    -0.034 C  
HETATM    6  C   UNL     1     -11.664  12.797  70.984  1.00  0.00     0.782 A  
HETATM    7  C   UNL     1     -11.857  15.232  67.821  1.00  0.00    -0.093 C  
HETATM    8  O   UNL     1     -13.224  15.435  67.725  1.00  0.00     2.034 OA 
HETATM    9  C   UNL     1     -11.200  14.855  66.480  1.00  0.00    -0.335 C  
HETATM   10  C   UNL     1     -12.174  11.567  71.455  1.00  0.00     0.019 A  
HETATM   11  C   UNL     1     -13.416  11.517  72.069  1.00  0.00    -0.298 A  
HETATM   12  C   UNL     1      -9.698  14.571  66.506  1.00  0.00    -0.285 C  
HETATM   13  C   UNL     1      -9.759  14.922  68.997  1.00  0.00    -0.212 C  
HETATM   14  H   UNL     1     -13.666  15.485  66.885  1.00  0.00     0.000 HD 
HETATM   15  O   UNL     1      -9.147  14.584  67.842  1.00  0.00    -0.181 OA 
HETATM   16  C   UNL     1     -13.666  13.904  71.699  1.00  0.00    -0.396 A  
HETATM   17  O   UNL     1      -9.085  15.000  70.016  1.00  0.00     0.077 OA 
HETATM   18  C   UNL     1     -14.148  12.691  72.223  1.00  0.00    -0.005 A  
ENDROOT
BRANCH  10  19
HETATM   19  N   UNL     1     -11.461  10.350  71.199  1.00  0.00    -0.262 N  
HETATM   20  H   UNL     1     -10.789   9.993  71.879  1.00  0.00     0.000 HD 
BRANCH  19  21
HETATM   21  S   UNL     1     -11.754   9.502  69.731  1.00  0.00     0.291 S  
HETATM   22  O   UNL     1     -11.967   8.111  70.090  1.00  0.00     0.164 OA 
HETATM   23  O   UNL     1     -12.767  10.235  68.998  1.00  0.00     0.297 OA 
BRANCH  21  24
HETATM   24  C   UNL     1     -10.250   9.603  68.773  1.00  0.00    -0.196 A  
HETATM   25  C   UNL     1      -8.722   9.096  66.969  1.00  0.00    -0.131 A  
HETATM   26  N   UNL     1      -9.541  10.670  69.093  1.00  0.00    -0.198 NA 
HETATM   27  F   UNL     1      -5.874   9.309  66.510  1.00  0.00    -0.053 F  
HETATM   28  C   UNL     1      -6.679  10.414  66.459  1.00  0.00    -0.099 C  
HETATM   29  F   UNL     1      -6.962  10.596  65.134  1.00  0.00    -0.128 F  
HETATM   30  C   UNL     1      -8.465  10.922  68.321  1.00  0.00    -0.134 A  
HETATM   31  F   UNL     1      -5.819  11.415  66.760  1.00  0.00    -0.076 F  
HETATM   32  C   UNL     1      -7.942  10.189  67.259  1.00  0.00    -0.110 A  
HETATM   33  C   UNL     1      -9.890   8.794  67.700  1.00  0.00    -0.228 A  
ENDBRANCH  21  24
ENDBRANCH  19  21
ENDBRANCH  10  19
BRANCH  12  34
HETATM   34  C   UNL     1      -9.113  15.759  65.727  1.00  0.00    -0.187 C  
BRANCH  34  35
HETATM   35  C   UNL     1      -8.223  16.630  66.641  1.00  0.00    -0.301 C  
BRANCH  35  36
HETATM   36  C   UNL     1      -8.930  17.872  67.040  1.00  0.00    -0.254 A  
HETATM   37  C   UNL     1     -10.665  19.498  66.746  1.00  0.00    -0.569 A  
HETATM   38  C   UNL     1     -10.073  18.291  66.368  1.00  0.00    -0.406 A  
HETATM   39  C   UNL     1      -8.992  19.806  68.458  1.00  0.00    -0.291 A  
HETATM   40  C   UNL     1     -10.133  20.245  67.785  1.00  0.00    -0.505 A  
HETATM   41  C   UNL     1      -8.391  18.613  68.086  1.00  0.00    -0.332 A  
ENDBRANCH  35  36
ENDBRANCH  34  35
ENDBRANCH  12  34
BRANCH  12  42
HETATM   42  C   UNL     1      -9.209  13.187  65.842  1.00  0.00     0.166 C  
BRANCH  42  43
HETATM   43  C   UNL     1     -10.300  12.337  65.152  1.00  0.00    -0.316 C  
HETATM   44  C   UNL     1     -10.985  12.773  63.857  1.00  0.00    -0.458 C  
ENDBRANCH  42  43
ENDBRANCH  12  42
TORSDOF 8
ENDMDL
MODEL      142
REMARK 921   NORMALIZED FREE ENERGY PREDICTED BY IDOCK:   -3.29 KCAL/MOL
REMARK 922        TOTAL FREE ENERGY PREDICTED BY IDOCK:   -6.82 KCAL/MOL
REMARK 923 INTER-LIGAND FREE ENERGY PREDICTED BY IDOCK:   -5.61 KCAL/MOL
REMARK 924 INTRA-LIGAND FREE ENERGY PREDICTED BY IDOCK:   -1.21 KCAL/MOL
REMARK 927      BINDING AFFINITY PREDICTED BY RF-SCORE:    0.00 PKD
ROOT
HETATM    1  C   UNL     1     -10.872   9.212  69.128  1.00  0.00    -0.131 C  
HETATM    2  C   UNL     1     -10.389   7.901  68.453  1.00  0.00    -0.235 A  
HETATM    3  C   UNL     1     -11.097   9.106  70.651  1.00  0.00    -0.320 C  
HETATM    4  C   UNL     1     -10.065  10.491  68.738  1.00  0.00    -0.202 C  
HETATM    5  C   UNL     1     -12.154   8.105  71.089  1.00  0.00    -0.281 C  
HETATM    6  C   UNL     1      -9.030   7.606  68.233  1.00  0.00    -0.127 A  
HETATM    7  C   UNL     1     -10.409  11.322  67.730  1.00  0.00    -0.182 C  
HETATM    8  O   UNL     1     -11.522  11.088  66.937  1.00  0.00    -0.384 OA 
HETATM    9  C   UNL     1      -9.503  12.446  67.193  1.00  0.00    -0.198 C  
HETATM   10  C   UNL     1      -8.625   6.475  67.489  1.00  0.00    -0.119 A  
HETATM   11  C   UNL     1      -9.569   5.571  67.025  1.00  0.00    -0.144 A  
HETATM   12  C   UNL     1      -8.229  12.739  67.985  1.00  0.00    -0.168 C  
HETATM   13  C   UNL     1      -8.838  10.834  69.511  1.00  0.00     0.153 C  
HETATM   14  H   UNL     1     -11.764  11.673  66.228  1.00  0.00     0.000 HD 
HETATM   15  O   UNL     1      -8.015  11.809  69.069  1.00  0.00    -0.038 OA 
HETATM   16  C   UNL     1     -11.322   6.944  67.995  1.00  0.00     0.067 A  
HETATM   17  O   UNL     1      -8.538  10.233  70.534  1.00  0.00     0.198 OA 
HETATM   18  C   UNL     1     -10.915   5.786  67.307  1.00  0.00    -0.180 A  
ENDROOT
BRANCH  10  19
HETATM   19  N   UNL     1      -7.251   6.318  67.117  1.00  0.00    -0.073 N  
HETATM   20  H   UNL     1      -6.810   6.978  66.476  1.00  0.00     0.000 HD 
BRANCH  19  21
HETATM   21  S   UNL     1      -6.354   5.000  67.766  1.00  0.00    -0.041 S  
HETATM   22  O   UNL     1      -6.296   3.985  66.727  1.00  0.00    -0.035 OA 
HETATM   23  O   UNL     1      -5.134   5.539  68.335  1.00  0.00    -0.003 OA 
BRANCH  21  24
HETATM   24  C   UNL     1      -7.312   4.348  69.124  1.00  0.00    -0.055 A  
HETATM   25  C   UNL     1      -8.345   4.324  71.310  1.00  0.00    -0.089 A  
HETATM   26  N   UNL     1      -8.050   3.319  68.748  1.00  0.00    -0.060 NA 
HETATM   27  F   UNL     1      -9.325   2.315  73.146  1.00  0.00    -0.080 F  
HETATM   28  C   UNL     1     -10.043   2.661  72.034  1.00  0.00    -0.120 C  
HETATM   29  F   UNL     1     -10.958   3.580  72.464  1.00  0.00    -0.144 F  
HETATM   30  C   UNL     1      -8.926   2.852  69.661  1.00  0.00    -0.106 A  
HETATM   31  F   UNL     1     -10.771   1.545  71.799  1.00  0.00    -0.200 F  
HETATM   32  C   UNL     1      -9.135   3.251  70.978  1.00  0.00    -0.183 A  
HETATM   33  C   UNL     1      -7.440   4.901  70.395  1.00  0.00    -0.058 A  
ENDBRANCH  21  24
ENDBRANCH  19  21
ENDBRANCH  10  19
BRANCH  12  34
HETATM   34  C   UNL     1      -8.511  14.126  68.582  1.00  0.00    -0.120 C  
BRANCH  34  35
HETATM   35  C   UNL     1      -9.830  14.706  68.023  1.00  0.00    -0.216 C  
BRANCH  35  36
HETATM   36  C   UNL     1     -10.823  14.904  69.107  1.00  0.00    -0.253 A  
HETATM   37  C   UNL     1     -13.038  14.704  69.999  1.00  0.00     0.186 A  
HETATM   38  C   UNL     1     -12.128  14.440  68.973  1.00  0.00    -0.298 A  
HETATM   39  C   UNL     1     -11.321  15.842  71.258  1.00  0.00    -0.425 A  
HETATM   40  C   UNL     1     -12.637  15.393  71.133  1.00  0.00    -0.485 A  
HETATM   41  C   UNL     1     -10.411  15.592  70.242  1.00  0.00    -0.277 A  
ENDBRANCH  35  36
ENDBRANCH  34  35
ENDBRANCH  12  34
BRANCH  12  42
HETATM   42  C   UNL     1      -6.849  12.771  67.155  1.00  0.00     0.012 C  
BRANCH  42  43
HETATM   43  C   UNL     1      -6.404  11.437  66.515  1.00  0.00    -0.095 C  
HETATM   44  C   UNL     1      -7.187  10.137  66.696  1.00  0.00    -0.105 C  
ENDBRANCH  42  43
ENDBRANCH  12  42
TORSDOF 8
ENDMDL
MODEL      143
REMARK 921   NORMALIZED FREE ENERGY PREDICTED BY IDOCK:   -3.27 KCAL/MOL
REMARK 922        TOTAL FREE ENERGY PREDICTED BY IDOCK:   -6.79 KCAL/MOL
REMARK 923 INTER-LIGAND FREE ENERGY PREDICTED BY IDOCK:   -5.86 KCAL/MOL
REMARK 924 INTRA-LIGAND FREE ENERGY PREDICTED BY IDOCK:   -0.94 KCAL/MOL
REMARK 927      BINDING AFFINITY PREDICTED BY RF-SCORE:    0.00 PKD
ROOT
HETATM    1  C   UNL     1     -10.471  14.062  66.390  1.00  0.00    -0.284 C  
HETATM    2  C   UNL     1     -10.188  12.658  65.790  1.00  0.00    -0.288 A  
HETATM    3  C   UNL     1     -11.822  14.186  67.123  1.00  0.00    -0.454 C  
HETATM    4  C   UNL     1      -9.293  14.677  67.212  1.00  0.00    -0.212 C  
HETATM    5  C   UNL     1     -13.056  13.942  66.269  1.00  0.00     0.494 C  
HETATM    6  C   UNL     1      -9.460  11.664  66.471  1.00  0.00    -0.219 A  
HETATM    7  C   UNL     1      -8.357  15.499  66.689  1.00  0.00    -0.251 C  
HETATM    8  O   UNL     1      -8.361  15.854  65.350  1.00  0.00     0.579 OA 
HETATM    9  C   UNL     1      -7.073  15.922  67.428  1.00  0.00    -0.230 C  
HETATM   10  C   UNL     1      -9.094  10.451  65.848  1.00  0.00    -0.165 A  
HETATM   11  C   UNL     1      -9.524  10.172  64.559  1.00  0.00    -0.364 A  
HETATM   12  C   UNL     1      -6.968  15.529  68.902  1.00  0.00    -0.130 C  
HETATM   13  C   UNL     1      -9.178  14.351  68.661  1.00  0.00    -0.181 C  
HETATM   14  H   UNL     1      -7.703  16.432  64.982  1.00  0.00     0.000 HD 
HETATM   15  O   UNL     1      -8.065  14.699  69.342  1.00  0.00    -0.089 OA 
HETATM   16  C   UNL     1     -10.636  12.329  64.491  1.00  0.00    -0.346 A  
HETATM   17  O   UNL     1     -10.062  13.747  69.253  1.00  0.00     0.039 OA 
HETATM   18  C   UNL     1     -10.324  11.096  63.892  1.00  0.00    -0.441 A  
ENDROOT
BRANCH  10  19
HETATM   19  N   UNL     1      -8.187   9.555  66.501  1.00  0.00    -0.118 N  
HETATM   20  H   UNL     1      -8.424   9.149  67.407  1.00  0.00     0.000 HD 
BRANCH  19  21
HETATM   21  S   UNL     1      -6.692   9.174  65.738  1.00  0.00    -0.073 S  
HETATM   22  O   UNL     1      -6.552  10.090  64.618  1.00  0.00    -0.117 OA 
HETATM   23  O   UNL     1      -5.676   9.116  66.771  1.00  0.00    -0.046 OA 
BRANCH  21  24
HETATM   24  C   UNL     1      -6.857   7.521  65.084  1.00  0.00    -0.047 A  
HETATM   25  C   UNL     1      -6.195   5.517  63.903  1.00  0.00    -0.022 A  
HETATM   26  N   UNL     1      -7.862   6.874  65.647  1.00  0.00    -0.102 NA 
HETATM   27  F   UNL     1      -7.535   3.272  62.665  1.00  0.00    -0.047 F  
HETATM   28  C   UNL     1      -7.416   3.357  64.026  1.00  0.00    -0.067 C  
HETATM   29  F   UNL     1      -6.322   2.601  64.343  1.00  0.00    -0.020 F  
HETATM   30  C   UNL     1      -7.976   5.567  65.336  1.00  0.00    -0.109 A  
HETATM   31  F   UNL     1      -8.469   2.624  64.456  1.00  0.00    -0.085 F  
HETATM   32  C   UNL     1      -7.226   4.795  64.453  1.00  0.00    -0.055 A  
HETATM   33  C   UNL     1      -5.980   6.876  64.218  1.00  0.00    -0.036 A  
ENDBRANCH  21  24
ENDBRANCH  19  21
ENDBRANCH  10  19
BRANCH  12  34
HETATM   34  C   UNL     1      -7.063  16.883  69.622  1.00  0.00     0.142 C  
BRANCH  34  35
HETATM   35  C   UNL     1      -6.888  18.050  68.624  1.00  0.00    -0.249 C  
BRANCH  35  36
HETATM   36  C   UNL     1      -8.204  18.590  68.204  1.00  0.00    -0.315 A  
HETATM   37  C   UNL     1     -10.594  18.672  68.353  1.00  0.00    -0.132 A  
HETATM   38  C   UNL     1      -9.377  18.176  68.826  1.00  0.00    -0.261 A  
HETATM   39  C   UNL     1      -9.435  19.991  66.696  1.00  0.00    -0.524 A  
HETATM   40  C   UNL     1     -10.622  19.576  67.302  1.00  0.00    -0.610 A  
HETATM   41  C   UNL     1      -8.222  19.499  67.152  1.00  0.00    -0.308 A  
ENDBRANCH  35  36
ENDBRANCH  34  35
ENDBRANCH  12  34
BRANCH  12  42
HETATM   42  C   UNL     1      -5.627  14.762  69.355  1.00  0.00    -0.094 C  
BRANCH  42  43
HETATM   43  C   UNL     1      -5.746  13.852  70.599  1.00  0.00    -0.180 C  
HETATM   44  C   UNL     1      -5.969  14.407  72.005  1.00  0.00     0.159 C  
ENDBRANCH  42  43
ENDBRANCH  12  42
TORSDOF 8
ENDMDL
MODEL      144
REMARK 921   NORMALIZED FREE ENERGY PREDICTED BY IDOCK:   -3.00 KCAL/MOL
REMARK 922        TOTAL FREE ENERGY PREDICTED BY IDOCK:   -6.39 KCAL/MOL
REMARK 923 INTER-LIGAND FREE ENERGY PREDICTED BY IDOCK:   -3.74 KCAL/MOL
REMARK 924 INTRA-LIGAND FREE ENERGY PREDICTED BY IDOCK:   -2.65 KCAL/MOL
REMARK 927      BINDING AFFINITY PREDICTED BY RF-SCORE:    0.00 PKD
ROOT
HETATM    1  C   UNL     1      -7.389   9.417  67.269  1.00  0.00    -0.087 C  
HETATM    2  C   UNL     1      -6.546  10.717  67.369  1.00  0.00    -0.071 A  
HETATM    3  C   UNL     1      -6.597   8.117  67.518  1.00  0.00    -0.058 C  
HETATM    4  C   UNL     1      -8.740   9.446  68.053  1.00  0.00    -0.124 C  
HETATM    5  C   UNL     1      -5.462   7.845  66.544  1.00  0.00    -0.028 C  
HETATM    6  C   UNL     1      -6.441  11.475  68.550  1.00  0.00    -0.054 A  
HETATM    7  C   UNL     1      -9.921   9.811  67.508  1.00  0.00    -0.184 C  
HETATM    8  O   UNL     1     -10.023  10.212  66.185  1.00  0.00    -0.220 OA 
HETATM    9  C   UNL     1     -11.204  10.062  68.323  1.00  0.00    -0.195 C  
HETATM   10  C   UNL     1      -5.786  12.727  68.574  1.00  0.00    -0.061 A  
HETATM   11  C   UNL     1      -5.150  13.204  67.439  1.00  0.00     0.118 A  
HETATM   12  C   UNL     1     -11.162   9.688  69.804  1.00  0.00    -0.174 C  
HETATM   13  C   UNL     1      -8.748   9.050  69.489  1.00  0.00    -0.144 C  
HETATM   14  H   UNL     1     -10.854  10.469  65.802  1.00  0.00     0.000 HD 
HETATM   15  O   UNL     1      -9.852   9.260  70.238  1.00  0.00    -0.190 OA 
HETATM   16  C   UNL     1      -5.861  11.216  66.238  1.00  0.00    -0.139 A  
HETATM   17  O   UNL     1      -7.764   8.557  70.023  1.00  0.00    -0.081 OA 
HETATM   18  C   UNL     1      -5.157  12.433  66.279  1.00  0.00     1.205 A  
ENDROOT
BRANCH  10  19
HETATM   19  N   UNL     1      -5.874  13.558  69.739  1.00  0.00    -0.109 N  
HETATM   20  H   UNL     1      -5.394  13.293  70.600  1.00  0.00     0.000 HD 
BRANCH  19  21
HETATM   21  S   UNL     1      -6.798  15.007  69.664  1.00  0.00    -0.187 S  
HETATM   22  O   UNL     1      -7.406  15.180  70.973  1.00  0.00     0.977 OA 
HETATM   23  O   UNL     1      -5.947  16.041  69.108  1.00  0.00    -0.118 OA 
BRANCH  21  24
HETATM   24  C   UNL     1      -8.103  14.722  68.480  1.00  0.00    -0.146 A  
HETATM   25  C   UNL     1      -9.147  14.609  66.301  1.00  0.00    -0.196 A  
HETATM   26  N   UNL     1      -9.093  14.023  69.006  1.00  0.00     0.066 NA 
HETATM   27  F   UNL     1     -11.847  14.645  65.264  1.00  0.00    -0.346 F  
HETATM   28  C   UNL     1     -11.336  13.522  65.857  1.00  0.00    -0.308 C  
HETATM   29  F   UNL     1     -10.893  12.738  64.829  1.00  0.00    -0.286 F  
HETATM   30  C   UNL     1     -10.056  13.622  68.152  1.00  0.00    -0.245 A  
HETATM   31  F   UNL     1     -12.450  12.896  66.302  1.00  0.00    -0.442 F  
HETATM   32  C   UNL     1     -10.205  13.884  66.793  1.00  0.00    -0.268 A  
HETATM   33  C   UNL     1      -8.076  15.023  67.121  1.00  0.00    -0.245 A  
ENDBRANCH  21  24
ENDBRANCH  19  21
ENDBRANCH  10  19
BRANCH  12  34
HETATM   34  C   UNL     1     -12.116   8.486  69.878  1.00  0.00     0.891 C  
BRANCH  34  35
HETATM   35  C   UNL     1     -11.554   7.396  70.818  1.00  0.00    -0.317 C  
BRANCH  35  36
HETATM   36  C   UNL     1     -10.895   6.317  70.044  1.00  0.00    -0.387 A  
HETATM   37  C   UNL     1      -9.493   4.379  69.901  1.00  0.00    -0.253 A  
HETATM   38  C   UNL     1     -10.141   5.338  70.682  1.00  0.00    -0.310 A  
HETATM   39  C   UNL     1     -10.393   5.376  67.895  1.00  0.00    -0.222 A  
HETATM   40  C   UNL     1      -9.623   4.395  68.521  1.00  0.00    -0.208 A  
HETATM   41  C   UNL     1     -11.034   6.338  68.660  1.00  0.00    -0.423 A  
ENDBRANCH  35  36
ENDBRANCH  34  35
ENDBRANCH  12  34
BRANCH  12  42
HETATM   42  C   UNL     1     -11.625  10.820  70.852  1.00  0.00    -0.233 C  
BRANCH  42  43
HETATM   43  C   UNL     1     -12.478  10.337  72.048  1.00  0.00    -0.209 C  
HETATM   44  C   UNL     1     -14.000  10.467  72.077  1.00  0.00     0.276 C  
ENDBRANCH  42  43
ENDBRANCH  12  42
TORSDOF 8
ENDMDL
MODEL      145
REMARK 921   NORMALIZED FREE ENERGY PREDICTED BY IDOCK:   -2.81 KCAL/MOL
REMARK 922        TOTAL FREE ENERGY PREDICTED BY IDOCK:   -6.11 KCAL/MOL
REMARK 923 INTER-LIGAND FREE ENERGY PREDICTED BY IDOCK:   -4.52 KCAL/MOL
REMARK 924 INTRA-LIGAND FREE ENERGY PREDICTED BY IDOCK:   -1.59 KCAL/MOL
REMARK 927      BINDING AFFINITY PREDICTED BY RF-SCORE:    0.00 PKD
ROOT
HETATM    1  C   UNL     1     -10.396   8.837  68.057  1.00  0.00    -0.273 C  
HETATM    2  C   UNL     1     -10.078   7.402  67.558  1.00  0.00    -0.250 A  
HETATM    3  C   UNL     1     -10.851   8.920  69.528  1.00  0.00    -0.163 C  
HETATM    4  C   UNL     1      -9.313   9.910  67.712  1.00  0.00    -0.154 C  
HETATM    5  C   UNL     1     -12.130   8.168  69.862  1.00  0.00     0.894 C  
HETATM    6  C   UNL     1      -8.782   6.852  67.577  1.00  0.00    -0.120 A  
HETATM    7  C   UNL     1      -9.347  10.686  66.607  1.00  0.00    -0.165 C  
HETATM    8  O   UNL     1     -10.359  10.577  65.667  1.00  0.00    -0.256 OA 
HETATM    9  C   UNL     1      -8.177  11.576  66.144  1.00  0.00     0.018 C  
HETATM   10  C   UNL     1      -8.496   5.600  66.986  1.00  0.00    -0.110 A  
HETATM   11  C   UNL     1      -9.517   4.837  66.442  1.00  0.00    -0.159 A  
HETATM   12  C   UNL     1      -6.997  11.715  67.105  1.00  0.00    -0.144 C  
HETATM   13  C   UNL     1      -8.168  10.104  68.644  1.00  0.00    -0.111 C  
HETATM   14  H   UNL     1     -10.383  11.124  64.889  1.00  0.00     0.000 HD 
HETATM   15  O   UNL     1      -7.121  10.871  68.272  1.00  0.00    -0.071 OA 
HETATM   16  C   UNL     1     -11.100   6.585  67.025  1.00  0.00    -0.411 A  
HETATM   17  O   UNL     1      -8.136   9.561  69.740  1.00  0.00    -0.107 OA 
HETATM   18  C   UNL     1     -10.826   5.312  66.492  1.00  0.00    -0.196 A  
ENDROOT
BRANCH  10  19
HETATM   19  N   UNL     1      -7.137   5.168  66.848  1.00  0.00    -0.071 N  
HETATM   20  H   UNL     1      -6.792   4.828  65.950  1.00  0.00     0.000 HD 
BRANCH  19  21
HETATM   21  S   UNL     1      -6.097   5.230  68.217  1.00  0.00    -0.027 S  
HETATM   22  O   UNL     1      -5.283   4.027  68.175  1.00  0.00    -0.007 OA 
HETATM   23  O   UNL     1      -5.472   6.538  68.232  1.00  0.00    -0.010 OA 
BRANCH  21  24
HETATM   24  C   UNL     1      -7.144   5.142  69.660  1.00  0.00    -0.055 A  
HETATM   25  C   UNL     1      -8.731   4.169  71.203  1.00  0.00    -0.128 A  
HETATM   26  N   UNL     1      -6.824   6.065  70.549  1.00  0.00    -0.053 NA 
HETATM   27  F   UNL     1     -10.567   5.141  73.216  1.00  0.00    -0.194 F  
HETATM   28  C   UNL     1      -9.222   5.081  73.461  1.00  0.00    -0.126 C  
HETATM   29  F   UNL     1      -9.027   3.904  74.128  1.00  0.00    -0.091 F  
HETATM   30  C   UNL     1      -7.452   5.986  71.739  1.00  0.00    -0.095 A  
HETATM   31  F   UNL     1      -9.055   6.036  74.406  1.00  0.00    -0.123 F  
HETATM   32  C   UNL     1      -8.444   5.107  72.164  1.00  0.00    -0.125 A  
HETATM   33  C   UNL     1      -8.081   4.155  69.951  1.00  0.00    -0.059 A  
ENDBRANCH  21  24
ENDBRANCH  19  21
ENDBRANCH  10  19
BRANCH  12  34
HETATM   34  C   UNL     1      -7.095  13.181  67.554  1.00  0.00    -0.156 C  
BRANCH  34  35
HETATM   35  C   UNL     1      -8.204  13.921  66.774  1.00  0.00     0.184 C  
BRANCH  35  36
HETATM   36  C   UNL     1      -9.248  14.433  67.694  1.00  0.00    -0.196 A  
HETATM   37  C   UNL     1     -10.393  16.227  68.795  1.00  0.00    -0.261 A  
HETATM   38  C   UNL     1      -9.436  15.799  67.872  1.00  0.00    -0.212 A  
HETATM   39  C   UNL     1     -10.960  13.935  69.300  1.00  0.00    -0.222 A  
HETATM   40  C   UNL     1     -11.152  15.303  69.497  1.00  0.00    -0.286 A  
HETATM   41  C   UNL     1     -10.007  13.499  68.391  1.00  0.00    -0.232 A  
ENDBRANCH  35  36
ENDBRANCH  34  35
ENDBRANCH  12  34
BRANCH  12  42
HETATM   42  C   UNL     1      -5.532  11.422  66.504  1.00  0.00    -0.137 C  
BRANCH  42  43
HETATM   43  C   UNL     1      -5.483  10.843  65.072  1.00  0.00    -0.014 C  
HETATM   44  C   UNL     1      -5.129   9.384  64.787  1.00  0.00    -0.044 C  
ENDBRANCH  42  43
ENDBRANCH  12  42
TORSDOF 8
ENDMDL
MODEL      146
REMARK 921   NORMALIZED FREE ENERGY PREDICTED BY IDOCK:   -2.77 KCAL/MOL
REMARK 922        TOTAL FREE ENERGY PREDICTED BY IDOCK:   -6.06 KCAL/MOL
REMARK 923 INTER-LIGAND FREE ENERGY PREDICTED BY IDOCK:   -5.54 KCAL/MOL
REMARK 924 INTRA-LIGAND FREE ENERGY PREDICTED BY IDOCK:   -0.52 KCAL/MOL
REMARK 927      BINDING AFFINITY PREDICTED BY RF-SCORE:    0.00 PKD
ROOT
HETATM    1  C   UNL     1      -7.890  11.036  69.823  1.00  0.00     0.356 C  
HETATM    2  C   UNL     1      -8.172   9.518  69.983  1.00  0.00    -0.181 A  
HETATM    3  C   UNL     1      -6.403  11.429  69.939  1.00  0.00    -0.141 C  
HETATM    4  C   UNL     1      -8.586  11.711  68.597  1.00  0.00    -0.086 C  
HETATM    5  C   UNL     1      -5.744  11.113  71.272  1.00  0.00     0.185 C  
HETATM    6  C   UNL     1      -8.263   8.635  68.891  1.00  0.00    -0.123 A  
HETATM    7  C   UNL     1      -9.790  12.320  68.655  1.00  0.00    -0.089 C  
HETATM    8  O   UNL     1     -10.524  12.380  69.829  1.00  0.00    -0.053 OA 
HETATM    9  C   UNL     1     -10.582  12.781  67.417  1.00  0.00    -0.241 C  
HETATM   10  C   UNL     1      -8.663   7.289  69.053  1.00  0.00    -0.132 A  
HETATM   11  C   UNL     1      -8.895   6.779  70.321  1.00  0.00    -0.152 A  
HETATM   12  C   UNL     1      -9.860  12.705  66.072  1.00  0.00    -0.254 C  
HETATM   13  C   UNL     1      -7.896  11.693  67.277  1.00  0.00    -0.157 C  
HETATM   14  H   UNL     1     -11.371  12.808  69.870  1.00  0.00     0.000 HD 
HETATM   15  O   UNL     1      -8.559  12.083  66.167  1.00  0.00    -0.052 OA 
HETATM   16  C   UNL     1      -8.385   8.959  71.262  1.00  0.00    -0.223 A  
HETATM   17  O   UNL     1      -6.740  11.307  67.164  1.00  0.00    -0.093 OA 
HETATM   18  C   UNL     1      -8.722   7.604  71.430  1.00  0.00    -0.132 A  
ENDROOT
BRANCH  10  19
HETATM   19  N   UNL     1      -8.937   6.480  67.903  1.00  0.00    -0.117 N  
HETATM   20  H   UNL     1      -9.325   5.543  68.010  1.00  0.00     0.000 HD 
BRANCH  19  21
HETATM   21  S   UNL     1      -8.602   7.112  66.337  1.00  0.00    -0.140 S  
HETATM   22  O   UNL     1      -9.875   7.535  65.778  1.00  0.00     0.315 OA 
HETATM   23  O   UNL     1      -7.509   8.055  66.471  1.00  0.00    -0.085 OA 
BRANCH  21  24
HETATM   24  C   UNL     1      -7.990   5.751  65.356  1.00  0.00    -0.117 A  
HETATM   25  C   UNL     1      -7.401   4.545  63.345  1.00  0.00    -0.053 A  
HETATM   26  N   UNL     1      -7.300   4.896  66.089  1.00  0.00    -0.077 NA 
HETATM   27  F   UNL     1      -6.994   1.779  62.600  1.00  0.00    -0.019 F  
HETATM   28  C   UNL     1      -6.046   2.462  63.313  1.00  0.00    -0.010 C  
HETATM   29  F   UNL     1      -5.143   2.902  62.386  1.00  0.00    -0.003 F  
HETATM   30  C   UNL     1      -6.666   3.914  65.416  1.00  0.00    -0.052 A  
HETATM   31  F   UNL     1      -5.402   1.469  63.967  1.00  0.00    -0.004 F  
HETATM   32  C   UNL     1      -6.673   3.621  64.055  1.00  0.00    -0.043 A  
HETATM   33  C   UNL     1      -8.053   5.628  63.971  1.00  0.00    -0.123 A  
ENDBRANCH  21  24
ENDBRANCH  19  21
ENDBRANCH  10  19
BRANCH  12  34
HETATM   34  C   UNL     1      -9.667  14.184  65.705  1.00  0.00    -0.246 C  
BRANCH  34  35
HETATM   35  C   UNL     1      -8.689  14.870  66.686  1.00  0.00    -0.262 C  
BRANCH  35  36
HETATM   36  C   UNL     1      -8.972  16.322  66.789  1.00  0.00    -0.259 A  
HETATM   37  C   UNL     1      -8.261  18.608  66.865  1.00  0.00    -0.268 A  
HETATM   38  C   UNL     1      -7.947  17.257  66.703  1.00  0.00    -0.296 A  
HETATM   39  C   UNL     1     -10.592  18.053  67.155  1.00  0.00    -0.337 A  
HETATM   40  C   UNL     1      -9.572  19.003  67.083  1.00  0.00    -0.360 A  
HETATM   41  C   UNL     1     -10.291  16.708  67.003  1.00  0.00    -0.301 A  
ENDBRANCH  35  36
ENDBRANCH  34  35
ENDBRANCH  12  34
BRANCH  12  42
HETATM   42  C   UNL     1     -10.625  11.941  64.878  1.00  0.00    -0.333 C  
BRANCH  42  43
HETATM   43  C   UNL     1      -9.913  11.928  63.506  1.00  0.00    -0.422 C  
HETATM   44  C   UNL     1      -9.458  10.637  62.828  1.00  0.00    -0.355 C  
ENDBRANCH  42  43
ENDBRANCH  12  42
TORSDOF 8
ENDMDL
MODEL      147
REMARK 921   NORMALIZED FREE ENERGY PREDICTED BY IDOCK:   -2.66 KCAL/MOL
REMARK 922        TOTAL FREE ENERGY PREDICTED BY IDOCK:   -5.90 KCAL/MOL
REMARK 923 INTER-LIGAND FREE ENERGY PREDICTED BY IDOCK:   -2.97 KCAL/MOL
REMARK 924 INTRA-LIGAND FREE ENERGY PREDICTED BY IDOCK:   -2.93 KCAL/MOL
REMARK 927      BINDING AFFINITY PREDICTED BY RF-SCORE:    0.00 PKD
ROOT
HETATM    1  C   UNL     1      -6.362  11.405  69.398  1.00  0.00    -0.100 C  
HETATM    2  C   UNL     1      -7.608  12.225  68.970  1.00  0.00     0.103 A  
HETATM    3  C   UNL     1      -5.888  11.664  70.843  1.00  0.00     0.074 C  
HETATM    4  C   UNL     1      -6.428   9.881  69.062  1.00  0.00    -0.048 C  
HETATM    5  C   UNL     1      -5.459  13.091  71.146  1.00  0.00    -0.170 C  
HETATM    6  C   UNL     1      -8.923  11.733  69.069  1.00  0.00     0.247 A  
HETATM    7  C   UNL     1      -5.936   9.336  67.928  1.00  0.00    -0.049 C  
HETATM    8  O   UNL     1      -5.334  10.109  66.948  1.00  0.00    -0.040 OA 
HETATM    9  C   UNL     1      -6.198   7.884  67.486  1.00  0.00    -0.051 C  
HETATM   10  C   UNL     1     -10.025  12.441  68.539  1.00  0.00    -0.170 A  
HETATM   11  C   UNL     1      -9.843  13.696  67.979  1.00  0.00    -0.244 A  
HETATM   12  C   UNL     1      -6.900   6.975  68.494  1.00  0.00    -0.073 C  
HETATM   13  C   UNL     1      -7.069   8.955  70.038  1.00  0.00    -0.049 C  
HETATM   14  H   UNL     1      -4.987   9.726  66.150  1.00  0.00     0.000 HD 
HETATM   15  O   UNL     1      -7.322   7.676  69.685  1.00  0.00    -0.084 OA 
HETATM   16  C   UNL     1      -7.462  13.519  68.422  1.00  0.00    -0.124 A  
HETATM   17  O   UNL     1      -7.400   9.331  71.154  1.00  0.00    -0.228 OA 
HETATM   18  C   UNL     1      -8.566  14.252  67.951  1.00  0.00    -0.171 A  
ENDROOT
BRANCH  10  19
HETATM   19  N   UNL     1     -11.314  11.819  68.480  1.00  0.00    -0.247 N  
HETATM   20  H   UNL     1     -11.704  11.523  67.584  1.00  0.00     0.000 HD 
BRANCH  19  21
HETATM   21  S   UNL     1     -12.195  11.578  69.938  1.00  0.00    -0.223 S  
HETATM   22  O   UNL     1     -11.668  12.528  70.904  1.00  0.00     0.175 OA 
HETATM   23  O   UNL     1     -13.606  11.579  69.602  1.00  0.00     1.637 OA 
BRANCH  21  24
HETATM   24  C   UNL     1     -11.802   9.932  70.508  1.00  0.00    -0.270 A  
HETATM   25  C   UNL     1     -10.719   7.770  70.493  1.00  0.00    -0.238 A  
HETATM   26  N   UNL     1     -12.191   9.745  71.756  1.00  0.00    -0.388 NA 
HETATM   27  F   UNL     1     -11.233   5.158  71.624  1.00  0.00    -0.206 F  
HETATM   28  C   UNL     1     -10.754   6.178  72.400  1.00  0.00    -0.231 C  
HETATM   29  F   UNL     1      -9.401   5.993  72.447  1.00  0.00    -0.146 F  
HETATM   30  C   UNL     1     -11.804   8.589  72.332  1.00  0.00    -0.367 A  
HETATM   31  F   UNL     1     -11.186   5.831  73.635  1.00  0.00    -0.266 F  
HETATM   32  C   UNL     1     -11.100   7.518  71.788  1.00  0.00    -0.276 A  
HETATM   33  C   UNL     1     -11.042   8.978  69.838  1.00  0.00    -0.155 A  
ENDBRANCH  21  24
ENDBRANCH  19  21
ENDBRANCH  10  19
BRANCH  12  34
HETATM   34  C   UNL     1      -5.795   5.980  68.881  1.00  0.00    -0.016 C  
BRANCH  34  35
HETATM   35  C   UNL     1      -5.787   5.735  70.406  1.00  0.00    -0.024 C  
BRANCH  35  36
HETATM   36  C   UNL     1      -6.396   4.423  70.735  1.00  0.00    -0.025 A  
HETATM   37  C   UNL     1      -6.226   2.089  71.252  1.00  0.00    -0.018 A  
HETATM   38  C   UNL     1      -5.601   3.314  71.006  1.00  0.00    -0.012 A  
HETATM   39  C   UNL     1      -8.394   3.118  70.986  1.00  0.00    -0.087 A  
HETATM   40  C   UNL     1      -7.609   1.994  71.248  1.00  0.00    -0.036 A  
HETATM   41  C   UNL     1      -7.784   4.338  70.733  1.00  0.00    -0.056 A  
ENDBRANCH  35  36
ENDBRANCH  34  35
ENDBRANCH  12  34
BRANCH  12  42
HETATM   42  C   UNL     1      -8.197   6.176  67.972  1.00  0.00    -0.114 C  
BRANCH  42  43
HETATM   43  C   UNL     1      -7.960   5.154  66.836  1.00  0.00    -0.104 C  
HETATM   44  C   UNL     1      -8.395   3.693  66.941  1.00  0.00    -0.103 C  
ENDBRANCH  42  43
ENDBRANCH  12  42
TORSDOF 8
ENDMDL
MODEL      148
REMARK 921   NORMALIZED FREE ENERGY PREDICTED BY IDOCK:   -2.61 KCAL/MOL
REMARK 922        TOTAL FREE ENERGY PREDICTED BY IDOCK:   -5.82 KCAL/MOL
REMARK 923 INTER-LIGAND FREE ENERGY PREDICTED BY IDOCK:   -5.58 KCAL/MOL
REMARK 924 INTRA-LIGAND FREE ENERGY PREDICTED BY IDOCK:   -0.24 KCAL/MOL
REMARK 927      BINDING AFFINITY PREDICTED BY RF-SCORE:    0.00 PKD
ROOT
HETATM    1  C   UNL     1      -8.069   8.500  65.453  1.00  0.00    -0.127 C  
HETATM    2  C   UNL     1      -8.551   9.941  65.772  1.00  0.00    -0.151 A  
HETATM    3  C   UNL     1      -6.813   8.425  64.562  1.00  0.00    -0.069 C  
HETATM    4  C   UNL     1      -7.976   7.548  66.688  1.00  0.00    -0.110 C  
HETATM    5  C   UNL     1      -6.954   9.035  63.177  1.00  0.00    -0.089 C  
HETATM    6  C   UNL     1      -8.170  10.639  66.933  1.00  0.00    -0.123 A  
HETATM    7  C   UNL     1      -8.973   6.728  67.086  1.00  0.00    -0.115 C  
HETATM    8  O   UNL     1     -10.188   6.679  66.421  1.00  0.00    -0.414 OA 
HETATM    9  C   UNL     1      -8.978   5.963  68.423  1.00  0.00    -0.112 C  
HETATM   10  C   UNL     1      -8.735  11.889  67.269  1.00  0.00    -0.171 A  
HETATM   11  C   UNL     1      -9.627  12.506  66.406  1.00  0.00    -0.247 A  
HETATM   12  C   UNL     1      -7.688   6.002  69.241  1.00  0.00    -0.095 C  
HETATM   13  C   UNL     1      -6.720   7.527  67.489  1.00  0.00    -0.067 C  
HETATM   14  H   UNL     1     -10.890   6.102  66.700  1.00  0.00     0.000 HD 
HETATM   15  O   UNL     1      -6.686   6.873  68.670  1.00  0.00    -0.055 OA 
HETATM   16  C   UNL     1      -9.438  10.610  64.899  1.00  0.00    -0.293 A  
HETATM   17  O   UNL     1      -5.713   8.115  67.116  1.00  0.00    -0.036 OA 
HETATM   18  C   UNL     1      -9.953  11.883  65.203  1.00  0.00    -0.276 A  
ENDROOT
BRANCH  10  19
HETATM   19  N   UNL     1      -8.474  12.472  68.552  1.00  0.00    -0.327 N  
HETATM   20  H   UNL     1      -8.263  11.879  69.356  1.00  0.00     0.000 HD 
BRANCH  19  21
HETATM   21  S   UNL     1      -8.520  14.184  68.718  1.00  0.00    -0.005 S  
HETATM   22  O   UNL     1      -7.408  14.548  69.580  1.00  0.00    -0.137 OA 
HETATM   23  O   UNL     1      -8.633  14.749  67.387  1.00  0.00    -0.172 OA 
BRANCH  21  24
HETATM   24  C   UNL     1     -10.037  14.575  69.574  1.00  0.00     0.091 A  
HETATM   25  C   UNL     1     -12.417  14.569  70.002  1.00  0.00    -0.348 A  
HETATM   26  N   UNL     1      -9.804  15.023  70.795  1.00  0.00     0.734 NA 
HETATM   27  F   UNL     1     -14.288  16.210  71.477  1.00  0.00    -0.029 F  
HETATM   28  C   UNL     1     -13.456  15.337  72.124  1.00  0.00    -0.446 C  
HETATM   29  F   UNL     1     -14.201  14.209  72.326  1.00  0.00    -0.511 F  
HETATM   30  C   UNL     1     -10.887  15.200  71.579  1.00  0.00     0.154 A  
HETATM   31  F   UNL     1     -13.348  15.894  73.352  1.00  0.00    -0.557 F  
HETATM   32  C   UNL     1     -12.237  15.040  71.279  1.00  0.00    -0.380 A  
HETATM   33  C   UNL     1     -11.332  14.311  69.138  1.00  0.00    -0.312 A  
ENDBRANCH  21  24
ENDBRANCH  19  21
ENDBRANCH  10  19
BRANCH  12  34
HETATM   34  C   UNL     1      -7.182   4.554  69.150  1.00  0.00    -0.052 C  
BRANCH  34  35
HETATM   35  C   UNL     1      -8.293   3.558  69.551  1.00  0.00    -0.082 C  
BRANCH  35  36
HETATM   36  C   UNL     1      -8.174   3.179  70.980  1.00  0.00    -0.078 A  
HETATM   37  C   UNL     1      -7.181   1.898  72.745  1.00  0.00    -0.031 A  
HETATM   38  C   UNL     1      -7.212   2.265  71.398  1.00  0.00    -0.032 A  
HETATM   39  C   UNL     1      -9.030   3.379  73.212  1.00  0.00    -0.100 A  
HETATM   40  C   UNL     1      -8.077   2.455  73.644  1.00  0.00    -0.058 A  
HETATM   41  C   UNL     1      -9.074   3.745  71.876  1.00  0.00    -0.163 A  
ENDBRANCH  35  36
ENDBRANCH  34  35
ENDBRANCH  12  34
BRANCH  12  42
HETATM   42  C   UNL     1      -7.821   6.439  70.786  1.00  0.00    -0.106 C  
BRANCH  42  43
HETATM   43  C   UNL     1      -7.117   7.755  71.188  1.00  0.00    -0.050 C  
HETATM   44  C   UNL     1      -5.636   7.814  71.559  1.00  0.00    -0.035 C  
ENDBRANCH  42  43
ENDBRANCH  12  42
TORSDOF 8
ENDMDL
MODEL      149
REMARK 921   NORMALIZED FREE ENERGY PREDICTED BY IDOCK:   -2.60 KCAL/MOL
REMARK 922        TOTAL FREE ENERGY PREDICTED BY IDOCK:   -5.81 KCAL/MOL
REMARK 923 INTER-LIGAND FREE ENERGY PREDICTED BY IDOCK:   -3.21 KCAL/MOL
REMARK 924 INTRA-LIGAND FREE ENERGY PREDICTED BY IDOCK:   -2.59 KCAL/MOL
REMARK 927      BINDING AFFINITY PREDICTED BY RF-SCORE:    0.00 PKD
ROOT
HETATM    1  C   UNL     1     -10.780  11.244  69.455  1.00  0.00    -0.188 C  
HETATM    2  C   UNL     1     -10.819  12.783  69.655  1.00  0.00     0.279 A  
HETATM    3  C   UNL     1     -12.003  10.661  68.719  1.00  0.00    -0.069 C  
HETATM    4  C   UNL     1      -9.432  10.686  68.895  1.00  0.00    -0.199 C  
HETATM    5  C   UNL     1     -13.342  10.866  69.409  1.00  0.00     1.952 C  
HETATM    6  C   UNL     1     -10.217  13.689  68.762  1.00  0.00    -0.155 A  
HETATM    7  C   UNL     1      -8.421  10.237  69.670  1.00  0.00    -0.115 C  
HETATM    8  O   UNL     1      -8.499  10.252  71.054  1.00  0.00     0.141 OA 
HETATM    9  C   UNL     1      -7.013   9.904  69.142  1.00  0.00    -0.057 C  
HETATM   10  C   UNL     1     -10.143  15.072  69.042  1.00  0.00    -0.241 A  
HETATM   11  C   UNL     1     -10.746  15.586  70.180  1.00  0.00    -0.345 A  
HETATM   12  C   UNL     1      -6.830   9.909  67.625  1.00  0.00    -0.084 C  
HETATM   13  C   UNL     1      -9.229  10.637  67.420  1.00  0.00    -0.143 C  
HETATM   14  H   UNL     1      -7.788   9.936  71.600  1.00  0.00     0.000 HD 
HETATM   15  O   UNL     1      -8.008  10.355  66.918  1.00  0.00    -0.111 OA 
HETATM   16  C   UNL     1     -11.450  13.343  70.788  1.00  0.00     0.619 A  
HETATM   17  O   UNL     1     -10.143  10.873  66.640  1.00  0.00    -0.204 OA 
HETATM   18  C   UNL     1     -11.430  14.727  71.036  1.00  0.00    -0.263 A  
ENDROOT
BRANCH  10  19
HETATM   19  N   UNL     1      -9.350  15.930  68.212  1.00  0.00    -0.192 N  
HETATM   20  H   UNL     1      -8.391  16.161  68.473  1.00  0.00     0.000 HD 
BRANCH  19  21
HETATM   21  S   UNL     1     -10.039  16.564  66.768  1.00  0.00    -0.297 S  
HETATM   22  O   UNL     1     -11.060  17.513  67.176  1.00  0.00    -0.051 OA 
HETATM   23  O   UNL     1      -8.947  16.984  65.911  1.00  0.00    -0.517 OA 
BRANCH  21  24
HETATM   24  C   UNL     1     -10.846  15.201  65.943  1.00  0.00    -0.339 A  
HETATM   25  C   UNL     1     -12.693  13.881  65.113  1.00  0.00    -0.434 A  
HETATM   26  N   UNL     1     -10.002  14.525  65.184  1.00  0.00    -0.311 NA 
HETATM   27  F   UNL     1     -13.119  11.131  64.322  1.00  0.00     0.474 F  
HETATM   28  C   UNL     1     -12.455  12.003  63.503  1.00  0.00    -0.540 C  
HETATM   29  F   UNL     1     -13.394  12.460  62.622  1.00  0.00     0.182 F  
HETATM   30  C   UNL     1     -10.543  13.572  64.399  1.00  0.00    -0.377 A  
HETATM   31  F   UNL     1     -11.676  11.176  62.768  1.00  0.00     0.013 F  
HETATM   32  C   UNL     1     -11.864  13.140  64.307  1.00  0.00    -0.462 A  
HETATM   33  C   UNL     1     -12.210  14.928  65.925  1.00  0.00     0.082 A  
ENDBRANCH  21  24
ENDBRANCH  19  21
ENDBRANCH  10  19
BRANCH  12  34
HETATM   34  C   UNL     1      -6.603   8.423  67.304  1.00  0.00    -0.059 C  
BRANCH  34  35
HETATM   35  C   UNL     1      -7.366   7.524  68.303  1.00  0.00    -0.096 C  
BRANCH  35  36
HETATM   36  C   UNL     1      -8.549   6.903  67.660  1.00  0.00    -0.121 A  
HETATM   37  C   UNL     1      -9.571   5.638  65.900  1.00  0.00    -0.053 A  
HETATM   38  C   UNL     1      -8.417   6.152  66.497  1.00  0.00    -0.119 A  
HETATM   39  C   UNL     1     -10.929   6.602  67.648  1.00  0.00    -0.392 A  
HETATM   40  C   UNL     1     -10.814   5.856  66.474  1.00  0.00    -0.214 A  
HETATM   41  C   UNL     1      -9.791   7.123  68.245  1.00  0.00    -0.159 A  
ENDBRANCH  35  36
ENDBRANCH  34  35
ENDBRANCH  12  34
BRANCH  12  42
HETATM   42  C   UNL     1      -5.610  10.786  67.044  1.00  0.00    -0.048 C  
BRANCH  42  43
HETATM   43  C   UNL     1      -5.713  11.202  65.558  1.00  0.00     0.131 C  
HETATM   44  C   UNL     1      -5.439  10.229  64.412  1.00  0.00    -0.130 C  
ENDBRANCH  42  43
ENDBRANCH  12  42
TORSDOF 8
ENDMDL
MODEL      150
REMARK 921   NORMALIZED FREE ENERGY PREDICTED BY IDOCK:   -2.44 KCAL/MOL
REMARK 922        TOTAL FREE ENERGY PREDICTED BY IDOCK:   -5.57 KCAL/MOL
REMARK 923 INTER-LIGAND FREE ENERGY PREDICTED BY IDOCK:   -5.81 KCAL/MOL
REMARK 924 INTRA-LIGAND FREE ENERGY PREDICTED BY IDOCK:    0.24 KCAL/MOL
REMARK 927      BINDING AFFINITY PREDICTED BY RF-SCORE:    0.00 PKD
ROOT
HETATM    1  C   UNL     1      -7.866  11.943  68.837  1.00  0.00     0.015 C  
HETATM    2  C   UNL     1      -7.527  10.572  68.194  1.00  0.00    -0.090 A  
HETATM    3  C   UNL     1      -6.638  12.770  69.271  1.00  0.00    -0.086 C  
HETATM    4  C   UNL     1      -8.908  12.801  68.050  1.00  0.00    -0.195 C  
HETATM    5  C   UNL     1      -5.754  12.126  70.325  1.00  0.00    -0.163 C  
HETATM    6  C   UNL     1      -7.405  10.384  66.804  1.00  0.00    -0.110 A  
HETATM    7  C   UNL     1     -10.238  12.779  68.290  1.00  0.00    -0.244 C  
HETATM    8  O   UNL     1     -10.792  11.964  69.264  1.00  0.00    -0.381 OA 
HETATM    9  C   UNL     1     -11.288  13.439  67.376  1.00  0.00    -0.338 C  
HETATM   10  C   UNL     1      -7.239   9.100  66.238  1.00  0.00    -0.091 A  
HETATM   11  C   UNL     1      -7.105   7.989  67.057  1.00  0.00    -0.082 A  
HETATM   12  C   UNL     1     -10.759  14.321  66.246  1.00  0.00    -0.297 C  
HETATM   13  C   UNL     1      -8.428  13.704  66.966  1.00  0.00    -0.125 C  
HETATM   14  H   UNL     1     -11.727  11.949  69.433  1.00  0.00     0.000 HD 
HETATM   15  O   UNL     1      -9.318  14.295  66.141  1.00  0.00    -0.252 OA 
HETATM   16  C   UNL     1      -7.355   9.424  69.000  1.00  0.00    -0.072 A  
HETATM   17  O   UNL     1      -7.235  13.906  66.784  1.00  0.00     0.346 OA 
HETATM   18  C   UNL     1      -7.128   8.154  68.439  1.00  0.00    -0.077 A  
ENDROOT
BRANCH  10  19
HETATM   19  N   UNL     1      -7.321   8.928  64.818  1.00  0.00    -0.095 N  
HETATM   20  H   UNL     1      -8.014   9.441  64.274  1.00  0.00     0.000 HD 
BRANCH  19  21
HETATM   21  S   UNL     1      -6.233   7.842  64.044  1.00  0.00    -0.058 S  
HETATM   22  O   UNL     1      -5.930   8.414  62.743  1.00  0.00    -0.081 OA 
HETATM   23  O   UNL     1      -5.168   7.547  64.983  1.00  0.00    -0.028 OA 
BRANCH  21  24
HETATM   24  C   UNL     1      -7.128   6.319  63.784  1.00  0.00    -0.050 A  
HETATM   25  C   UNL     1      -7.429   3.967  63.310  1.00  0.00    -0.051 A  
HETATM   26  N   UNL     1      -8.369   6.403  64.229  1.00  0.00     0.002 NA 
HETATM   27  F   UNL     1      -9.576   2.276  62.361  1.00  0.00    -0.089 F  
HETATM   28  C   UNL     1      -9.560   2.736  63.650  1.00  0.00    -0.111 C  
HETATM   29  F   UNL     1      -9.016   1.724  64.390  1.00  0.00    -0.092 F  
HETATM   30  C   UNL     1      -9.081   5.258  64.220  1.00  0.00     0.197 A  
HETATM   31  F   UNL     1     -10.873   2.726  63.978  1.00  0.00    -0.156 F  
HETATM   32  C   UNL     1      -8.728   3.995  63.754  1.00  0.00    -0.110 A  
HETATM   33  C   UNL     1      -6.604   5.111  63.333  1.00  0.00    -0.026 A  
ENDBRANCH  21  24
ENDBRANCH  19  21
ENDBRANCH  10  19
BRANCH  12  34
HETATM   34  C   UNL     1     -11.190  15.729  66.683  1.00  0.00    -0.000 C  
BRANCH  34  35
HETATM   35  C   UNL     1     -10.364  16.809  65.948  1.00  0.00    -0.341 C  
BRANCH  35  36
HETATM   36  C   UNL     1      -9.108  17.104  66.679  1.00  0.00    -0.280 A  
HETATM   37  C   UNL     1      -7.651  16.835  68.562  1.00  0.00    -0.217 A  
HETATM   38  C   UNL     1      -8.820  16.477  67.886  1.00  0.00    -0.193 A  
HETATM   39  C   UNL     1      -7.088  18.392  66.805  1.00  0.00    -0.228 A  
HETATM   40  C   UNL     1      -6.791  17.779  68.023  1.00  0.00    -0.191 A  
HETATM   41  C   UNL     1      -8.249  18.050  66.129  1.00  0.00    -0.180 A  
ENDBRANCH  35  36
ENDBRANCH  34  35
ENDBRANCH  12  34
BRANCH  12  42
HETATM   42  C   UNL     1     -11.313  14.014  64.765  1.00  0.00    -0.366 C  
BRANCH  42  43
HETATM   43  C   UNL     1     -11.792  12.569  64.500  1.00  0.00    -0.448 C  
HETATM   44  C   UNL     1     -10.834  11.379  64.463  1.00  0.00    -0.375 C  
ENDBRANCH  42  43
ENDBRANCH  12  42
TORSDOF 8
ENDMDL
MODEL      151
REMARK 921   NORMALIZED FREE ENERGY PREDICTED BY IDOCK:   -2.28 KCAL/MOL
REMARK 922        TOTAL FREE ENERGY PREDICTED BY IDOCK:   -5.33 KCAL/MOL
REMARK 923 INTER-LIGAND FREE ENERGY PREDICTED BY IDOCK:   -6.65 KCAL/MOL
REMARK 924 INTRA-LIGAND FREE ENERGY PREDICTED BY IDOCK:    1.31 KCAL/MOL
REMARK 927      BINDING AFFINITY PREDICTED BY RF-SCORE:    0.00 PKD
ROOT
HETATM    1  C   UNL     1     -10.220  13.135  67.144  1.00  0.00    -0.244 C  
HETATM    2  C   UNL     1      -9.881  12.095  66.043  1.00  0.00    -0.260 A  
HETATM    3  C   UNL     1     -10.682  12.525  68.484  1.00  0.00    -0.263 C  
HETATM    4  C   UNL     1      -9.150  14.256  67.343  1.00  0.00    -0.199 C  
HETATM    5  C   UNL     1     -11.952  11.692  68.421  1.00  0.00    -0.266 C  
HETATM    6  C   UNL     1      -8.579  11.611  65.817  1.00  0.00     0.131 A  
HETATM    7  C   UNL     1      -9.190  15.455  66.721  1.00  0.00    -0.249 C  
HETATM    8  O   UNL     1     -10.197  15.782  65.828  1.00  0.00    -0.320 OA 
HETATM    9  C   UNL     1      -8.031  16.469  66.732  1.00  0.00    -0.290 C  
HETATM   10  C   UNL     1      -8.275  10.777  64.718  1.00  0.00     0.047 A  
HETATM   11  C   UNL     1      -9.284  10.340  63.874  1.00  0.00    -0.312 A  
HETATM   12  C   UNL     1      -6.856  16.160  67.660  1.00  0.00    -0.152 C  
HETATM   13  C   UNL     1      -8.011  14.010  68.270  1.00  0.00    -0.146 C  
HETATM   14  H   UNL     1     -10.226  16.625  65.390  1.00  0.00     0.000 HD 
HETATM   15  O   UNL     1      -6.972  14.872  68.304  1.00  0.00    -0.102 OA 
HETATM   16  C   UNL     1     -10.891  11.606  65.183  1.00  0.00    -0.346 A  
HETATM   17  O   UNL     1      -7.976  13.022  68.993  1.00  0.00     0.099 OA 
HETATM   18  C   UNL     1     -10.598  10.726  64.126  1.00  0.00    -0.203 A  
ENDROOT
BRANCH  10  19
HETATM   19  N   UNL     1      -6.910  10.471  64.408  1.00  0.00    -0.349 N  
HETATM   20  H   UNL     1      -6.408  11.006  63.699  1.00  0.00     0.000 HD 
BRANCH  19  21
HETATM   21  S   UNL     1      -6.129   9.188  65.249  1.00  0.00    -0.064 S  
HETATM   22  O   UNL     1      -5.697   8.233  64.242  1.00  0.00    -0.057 OA 
HETATM   23  O   UNL     1      -5.168   9.782  66.158  1.00  0.00    -0.038 OA 
BRANCH  21  24
HETATM   24  C   UNL     1      -7.376   8.403  66.258  1.00  0.00    -0.086 A  
HETATM   25  C   UNL     1      -8.378   7.525  68.276  1.00  0.00    -0.125 A  
HETATM   26  N   UNL     1      -8.544   8.361  65.642  1.00  0.00    -0.166 NA 
HETATM   27  F   UNL     1     -10.454   5.619  68.930  1.00  0.00    -0.231 F  
HETATM   28  C   UNL     1     -10.767   6.872  68.477  1.00  0.00    -0.207 C  
HETATM   29  F   UNL     1     -11.016   7.611  69.599  1.00  0.00    -0.245 F  
HETATM   30  C   UNL     1      -9.587   7.928  66.377  1.00  0.00    -0.181 A  
HETATM   31  F   UNL     1     -11.986   6.684  67.921  1.00  0.00     0.214 F  
HETATM   32  C   UNL     1      -9.617   7.454  67.686  1.00  0.00    -0.164 A  
HETATM   33  C   UNL     1      -7.248   8.014  67.588  1.00  0.00    -0.091 A  
ENDBRANCH  21  24
ENDBRANCH  19  21
ENDBRANCH  10  19
BRANCH  12  34
HETATM   34  C   UNL     1      -6.974  17.253  68.733  1.00  0.00    -0.230 C  
BRANCH  34  35
HETATM   35  C   UNL     1      -8.449  17.466  69.140  1.00  0.00     0.064 C  
BRANCH  35  36
HETATM   36  C   UNL     1      -9.040  18.614  68.409  1.00  0.00    -0.352 A  
HETATM   37  C   UNL     1      -8.967  20.877  67.626  1.00  0.00    -0.090 A  
HETATM   38  C   UNL     1      -8.341  19.809  68.272  1.00  0.00    -0.312 A  
HETATM   39  C   UNL     1     -10.932  19.525  67.249  1.00  0.00    -0.460 A  
HETATM   40  C   UNL     1     -10.248  20.734  67.114  1.00  0.00    -0.028 A  
HETATM   41  C   UNL     1     -10.323  18.460  67.896  1.00  0.00    -0.425 A  
ENDBRANCH  35  36
ENDBRANCH  34  35
ENDBRANCH  12  34
BRANCH  12  42
HETATM   42  C   UNL     1      -5.385  16.193  67.005  1.00  0.00     0.144 C  
BRANCH  42  43
HETATM   43  C   UNL     1      -5.165  17.218  65.868  1.00  0.00     0.124 C  
HETATM   44  C   UNL     1      -5.834  18.591  65.859  1.00  0.00    -0.218 C  
ENDBRANCH  42  43
ENDBRANCH  12  42
TORSDOF 8
ENDMDL
MODEL      152
REMARK 921   NORMALIZED FREE ENERGY PREDICTED BY IDOCK:   -2.22 KCAL/MOL
REMARK 922        TOTAL FREE ENERGY PREDICTED BY IDOCK:   -5.25 KCAL/MOL
REMARK 923 INTER-LIGAND FREE ENERGY PREDICTED BY IDOCK:   -5.41 KCAL/MOL
REMARK 924 INTRA-LIGAND FREE ENERGY PREDICTED BY IDOCK:    0.16 KCAL/MOL
REMARK 927      BINDING AFFINITY PREDICTED BY RF-SCORE:    0.00 PKD
ROOT
HETATM    1  C   UNL     1     -12.491  13.772  70.526  1.00  0.00    -0.409 C  
HETATM    2  C   UNL     1     -12.143  12.267  70.676  1.00  0.00    -0.330 A  
HETATM    3  C   UNL     1     -12.503  14.564  71.849  1.00  0.00    -0.406 C  
HETATM    4  C   UNL     1     -11.709  14.520  69.397  1.00  0.00    -0.361 C  
HETATM    5  C   UNL     1     -13.516  14.097  72.882  1.00  0.00    -0.466 C  
HETATM    6  C   UNL     1     -10.838  11.761  70.531  1.00  0.00     1.648 A  
HETATM    7  C   UNL     1     -12.168  14.670  68.136  1.00  0.00    -0.059 C  
HETATM    8  O   UNL     1     -13.387  14.148  67.733  1.00  0.00     1.744 OA 
HETATM    9  C   UNL     1     -11.314  15.198  66.967  1.00  0.00    -0.277 C  
HETATM   10  C   UNL     1     -10.573  10.373  70.529  1.00  0.00     0.070 A  
HETATM   11  C   UNL     1     -11.597   9.468  70.760  1.00  0.00    -0.378 A  
HETATM   12  C   UNL     1      -9.934  15.753  67.319  1.00  0.00    -0.238 C  
HETATM   13  C   UNL     1     -10.378  15.109  69.711  1.00  0.00    -0.210 C  
HETATM   14  H   UNL     1     -13.709  14.254  66.845  1.00  0.00     0.000 HD 
HETATM   15  O   UNL     1      -9.598  15.577  68.714  1.00  0.00    -0.190 OA 
HETATM   16  C   UNL     1     -13.158  11.320  70.940  1.00  0.00    -0.095 A  
HETATM   17  O   UNL     1      -9.955  15.160  70.859  1.00  0.00     0.392 OA 
HETATM   18  C   UNL     1     -12.885   9.941  71.000  1.00  0.00    -0.417 A  
ENDROOT
BRANCH  10  19
HETATM   19  N   UNL     1      -9.269   9.894  70.179  1.00  0.00    -0.367 N  
HETATM   20  H   UNL     1      -8.491   9.988  70.833  1.00  0.00     0.000 HD 
BRANCH  19  21
HETATM   21  S   UNL     1      -9.034   9.157  68.642  1.00  0.00    -0.136 S  
HETATM   22  O   UNL     1      -7.601   9.146  68.401  1.00  0.00    -0.081 OA 
HETATM   23  O   UNL     1      -9.790   7.919  68.631  1.00  0.00    -0.162 OA 
BRANCH  21  24
HETATM   24  C   UNL     1      -9.791  10.234  67.437  1.00  0.00    -0.179 A  
HETATM   25  C   UNL     1     -10.066  11.348  65.308  1.00  0.00    -0.315 A  
HETATM   26  N   UNL     1     -11.023  10.562  67.783  1.00  0.00    -0.294 NA 
HETATM   27  F   UNL     1     -11.415  13.716  64.337  1.00  0.00    -0.348 F  
HETATM   28  C   UNL     1     -12.116  12.577  64.630  1.00  0.00    -0.428 C  
HETATM   29  F   UNL     1     -12.273  11.931  63.436  1.00  0.00    -0.557 F  
HETATM   30  C   UNL     1     -11.736  11.246  66.866  1.00  0.00     0.271 A  
HETATM   31  F   UNL     1     -13.347  13.059  64.917  1.00  0.00    -0.333 F  
HETATM   32  C   UNL     1     -11.351  11.722  65.615  1.00  0.00    -0.293 A  
HETATM   33  C   UNL     1      -9.273  10.589  66.194  1.00  0.00    -0.197 A  
ENDBRANCH  21  24
ENDBRANCH  19  21
ENDBRANCH  10  19
BRANCH  12  34
HETATM   34  C   UNL     1     -10.091  17.256  67.043  1.00  0.00    -0.303 C  
BRANCH  34  35
HETATM   35  C   UNL     1      -9.160  18.082  67.958  1.00  0.00    -0.274 C  
BRANCH  35  36
HETATM   36  C   UNL     1      -7.746  17.668  67.788  1.00  0.00    -0.210 A  
HETATM   37  C   UNL     1      -5.736  17.511  66.494  1.00  0.00    -0.234 A  
HETATM   38  C   UNL     1      -7.046  17.976  66.626  1.00  0.00    -0.245 A  
HETATM   39  C   UNL     1      -5.856  16.488  68.677  1.00  0.00    -0.125 A  
HETATM   40  C   UNL     1      -5.145  16.780  67.512  1.00  0.00    -0.148 A  
HETATM   41  C   UNL     1      -7.160  16.938  68.816  1.00  0.00    -0.216 A  
ENDBRANCH  35  36
ENDBRANCH  34  35
ENDBRANCH  12  34
BRANCH  12  42
HETATM   42  C   UNL     1      -8.684  15.171  66.488  1.00  0.00    -0.280 C  
BRANCH  42  43
HETATM   43  C   UNL     1      -8.270  13.715  66.804  1.00  0.00     0.186 C  
HETATM   44  C   UNL     1      -8.164  13.182  68.232  1.00  0.00    -0.154 C  
ENDBRANCH  42  43
ENDBRANCH  12  42
TORSDOF 8
ENDMDL
MODEL      153
REMARK 921   NORMALIZED FREE ENERGY PREDICTED BY IDOCK:   -2.19 KCAL/MOL
REMARK 922        TOTAL FREE ENERGY PREDICTED BY IDOCK:   -5.21 KCAL/MOL
REMARK 923 INTER-LIGAND FREE ENERGY PREDICTED BY IDOCK:   -3.43 KCAL/MOL
REMARK 924 INTRA-LIGAND FREE ENERGY PREDICTED BY IDOCK:   -1.79 KCAL/MOL
REMARK 927      BINDING AFFINITY PREDICTED BY RF-SCORE:    0.00 PKD
ROOT
HETATM    1  C   UNL     1      -7.180  13.329  68.873  1.00  0.00    -0.054 C  
HETATM    2  C   UNL     1      -7.090  11.861  69.368  1.00  0.00     0.055 A  
HETATM    3  C   UNL     1      -6.613  13.566  67.458  1.00  0.00    -0.130 C  
HETATM    4  C   UNL     1      -8.575  14.007  69.071  1.00  0.00     0.161 C  
HETATM    5  C   UNL     1      -5.135  13.255  67.285  1.00  0.00     0.293 C  
HETATM    6  C   UNL     1      -8.139  10.935  69.221  1.00  0.00    -0.062 A  
HETATM    7  C   UNL     1      -8.908  14.743  70.154  1.00  0.00     0.881 C  
HETATM    8  O   UNL     1      -8.023  14.945  71.201  1.00  0.00     1.245 OA 
HETATM    9  C   UNL     1     -10.340  15.218  70.464  1.00  0.00    -0.008 C  
HETATM   10  C   UNL     1      -8.085   9.650  69.808  1.00  0.00    -0.155 A  
HETATM   11  C   UNL     1      -6.944   9.237  70.478  1.00  0.00    -0.093 A  
HETATM   12  C   UNL     1     -11.390  14.992  69.376  1.00  0.00    -0.297 C  
HETATM   13  C   UNL     1      -9.612  13.844  68.015  1.00  0.00    -0.219 C  
HETATM   14  H   UNL     1      -8.257  15.463  71.963  1.00  0.00     0.000 HD 
HETATM   15  O   UNL     1     -10.881  14.242  68.251  1.00  0.00    -0.236 OA 
HETATM   16  C   UNL     1      -5.930  11.398  70.030  1.00  0.00    -0.135 A  
HETATM   17  O   UNL     1      -9.351  13.330  66.935  1.00  0.00    -0.230 OA 
HETATM   18  C   UNL     1      -5.852  10.098  70.560  1.00  0.00    -0.091 A  
ENDROOT
BRANCH  10  19
HETATM   19  N   UNL     1      -9.248   8.814  69.808  1.00  0.00    -0.152 N  
HETATM   20  H   UNL     1      -9.427   8.177  69.030  1.00  0.00     0.000 HD 
BRANCH  19  21
HETATM   21  S   UNL     1     -10.339   8.898  71.136  1.00  0.00    -0.296 S  
HETATM   22  O   UNL     1      -9.738   9.792  72.111  1.00  0.00     0.979 OA 
HETATM   23  O   UNL     1     -11.658   9.175  70.601  1.00  0.00    -0.266 OA 
BRANCH  21  24
HETATM   24  C   UNL     1     -10.405   7.263  71.849  1.00  0.00    -0.188 A  
HETATM   25  C   UNL     1     -11.429   5.235  72.678  1.00  0.00    -0.270 A  
HETATM   26  N   UNL     1      -9.225   6.670  71.815  1.00  0.00    -0.148 NA 
HETATM   27  F   UNL     1     -10.679   3.081  74.457  1.00  0.00    -0.214 F  
HETATM   28  C   UNL     1     -10.181   3.147  73.184  1.00  0.00    -0.148 C  
HETATM   29  F   UNL     1     -10.981   2.327  72.439  1.00  0.00    -0.164 F  
HETATM   30  C   UNL     1      -9.200   5.375  72.188  1.00  0.00    -0.143 A  
HETATM   31  F   UNL     1      -9.014   2.472  73.293  1.00  0.00    -0.074 F  
HETATM   32  C   UNL     1     -10.229   4.568  72.669  1.00  0.00    -0.236 A  
HETATM   33  C   UNL     1     -11.545   6.576  72.255  1.00  0.00    -0.330 A  
ENDBRANCH  21  24
ENDBRANCH  19  21
ENDBRANCH  10  19
BRANCH  12  34
HETATM   34  C   UNL     1     -11.704  16.421  68.906  1.00  0.00    -0.059 C  
BRANCH  34  35
HETATM   35  C   UNL     1     -11.191  16.650  67.467  1.00  0.00     0.051 C  
BRANCH  35  36
HETATM   36  C   UNL     1      -9.972  17.495  67.468  1.00  0.00    -0.315 A  
HETATM   37  C   UNL     1      -8.834  19.554  67.923  1.00  0.00    -0.372 A  
HETATM   38  C   UNL     1      -9.994  18.780  68.000  1.00  0.00    -0.401 A  
HETATM   39  C   UNL     1      -7.672  17.742  66.829  1.00  0.00    -0.258 A  
HETATM   40  C   UNL     1      -7.683  19.038  67.348  1.00  0.00    -0.254 A  
HETATM   41  C   UNL     1      -8.821  16.968  66.893  1.00  0.00    -0.251 A  
ENDBRANCH  35  36
ENDBRANCH  34  35
ENDBRANCH  12  34
BRANCH  12  42
HETATM   42  C   UNL     1     -12.748  14.251  69.821  1.00  0.00    -0.003 C  
BRANCH  42  43
HETATM   43  C   UNL     1     -12.775  13.673  71.255  1.00  0.00    -0.443 C  
HETATM   44  C   UNL     1     -12.899  12.176  71.535  1.00  0.00    -0.394 C  
ENDBRANCH  42  43
ENDBRANCH  12  42
TORSDOF 8
ENDMDL
MODEL      154
REMARK 921   NORMALIZED FREE ENERGY PREDICTED BY IDOCK:   -2.10 KCAL/MOL
REMARK 922        TOTAL FREE ENERGY PREDICTED BY IDOCK:   -5.07 KCAL/MOL
REMARK 923 INTER-LIGAND FREE ENERGY PREDICTED BY IDOCK:   -6.93 KCAL/MOL
REMARK 924 INTRA-LIGAND FREE ENERGY PREDICTED BY IDOCK:    1.86 KCAL/MOL
REMARK 927      BINDING AFFINITY PREDICTED BY RF-SCORE:    0.00 PKD
ROOT
HETATM    1  C   UNL     1      -7.432  11.277  69.424  1.00  0.00     0.014 C  
HETATM    2  C   UNL     1      -7.269   9.862  68.807  1.00  0.00    -0.076 A  
HETATM    3  C   UNL     1      -6.143  11.865  70.033  1.00  0.00    -0.153 C  
HETATM    4  C   UNL     1      -8.182  12.308  68.520  1.00  0.00    -0.096 C  
HETATM    5  C   UNL     1      -5.543  11.075  71.185  1.00  0.00     0.020 C  
HETATM    6  C   UNL     1      -6.998   9.646  67.443  1.00  0.00    -0.084 A  
HETATM    7  C   UNL     1      -9.513  12.535  68.580  1.00  0.00    -0.097 C  
HETATM    8  O   UNL     1     -10.334  11.844  69.456  1.00  0.00    -0.404 OA 
HETATM    9  C   UNL     1     -10.290  13.372  67.546  1.00  0.00    -0.226 C  
HETATM   10  C   UNL     1      -6.997   8.349  66.881  1.00  0.00    -0.074 A  
HETATM   11  C   UNL     1      -7.183   7.239  67.690  1.00  0.00    -0.091 A  
HETATM   12  C   UNL     1      -9.459  14.133  66.513  1.00  0.00    -0.285 C  
HETATM   13  C   UNL     1      -7.402  13.098  67.527  1.00  0.00    -0.148 C  
HETATM   14  H   UNL     1     -11.270  12.004  69.498  1.00  0.00     0.000 HD 
HETATM   15  O   UNL     1      -8.047  13.839  66.601  1.00  0.00     0.171 OA 
HETATM   16  C   UNL     1      -7.423   8.709  69.608  1.00  0.00    -0.068 A  
HETATM   17  O   UNL     1      -6.178  13.075  67.510  1.00  0.00    -0.154 OA 
HETATM   18  C   UNL     1      -7.361   7.415  69.060  1.00  0.00    -0.091 A  
ENDROOT
BRANCH  10  19
HETATM   19  N   UNL     1      -6.917   8.185  65.460  1.00  0.00    -0.062 N  
HETATM   20  H   UNL     1      -7.100   7.276  65.033  1.00  0.00     0.000 HD 
BRANCH  19  21
HETATM   21  S   UNL     1      -6.509   9.542  64.483  1.00  0.00    -0.099 S  
HETATM   22  O   UNL     1      -5.720  10.432  65.317  1.00  0.00    -0.106 OA 
HETATM   23  O   UNL     1      -5.970   9.036  63.235  1.00  0.00    -0.087 OA 
BRANCH  21  24
HETATM   24  C   UNL     1      -8.041  10.367  64.086  1.00  0.00    -0.095 A  
HETATM   25  C   UNL     1      -9.747  11.335  62.670  1.00  0.00    -0.187 A  
HETATM   26  N   UNL     1      -8.871  10.372  65.113  1.00  0.00    -0.180 NA 
HETATM   27  F   UNL     1     -11.886  13.258  62.978  1.00  0.00    -0.522 F  
HETATM   28  C   UNL     1     -12.012  11.983  63.458  1.00  0.00    -0.507 C  
HETATM   29  F   UNL     1     -12.693  11.297  62.492  1.00  0.00    -0.041 F  
HETATM   30  C   UNL     1     -10.114  10.833  64.870  1.00  0.00    -0.322 A  
HETATM   31  F   UNL     1     -12.910  12.136  64.459  1.00  0.00    -0.520 F  
HETATM   32  C   UNL     1     -10.651  11.370  63.703  1.00  0.00    -0.476 A  
HETATM   33  C   UNL     1      -8.443  10.821  62.833  1.00  0.00    -0.168 A  
ENDBRANCH  21  24
ENDBRANCH  19  21
ENDBRANCH  10  19
BRANCH  12  34
HETATM   34  C   UNL     1      -9.677  15.600  66.914  1.00  0.00    -0.240 C  
BRANCH  34  35
HETATM   35  C   UNL     1      -8.729  16.001  68.066  1.00  0.00    -0.171 C  
BRANCH  35  36
HETATM   36  C   UNL     1      -8.669  17.475  68.215  1.00  0.00    -0.270 A  
HETATM   37  C   UNL     1      -9.676  19.583  68.747  1.00  0.00    -0.513 A  
HETATM   38  C   UNL     1      -9.766  18.191  68.682  1.00  0.00    -0.367 A  
HETATM   39  C   UNL     1      -7.410  19.496  67.918  1.00  0.00    -0.310 A  
HETATM   40  C   UNL     1      -8.507  20.228  68.374  1.00  0.00     0.105 A  
HETATM   41  C   UNL     1      -7.491  18.114  67.842  1.00  0.00    -0.228 A  
ENDBRANCH  35  36
ENDBRANCH  34  35
ENDBRANCH  12  34
BRANCH  12  42
HETATM   42  C   UNL     1      -9.856  13.924  64.966  1.00  0.00    -0.081 C  
BRANCH  42  43
HETATM   43  C   UNL     1     -10.596  15.098  64.285  1.00  0.00     0.635 C  
HETATM   44  C   UNL     1     -12.120  15.178  64.214  1.00  0.00    -0.277 C  
ENDBRANCH  42  43
ENDBRANCH  12  42
TORSDOF 8
ENDMDL
MODEL      155
REMARK 921   NORMALIZED FREE ENERGY PREDICTED BY IDOCK:   -1.99 KCAL/MOL
REMARK 922        TOTAL FREE ENERGY PREDICTED BY IDOCK:   -4.91 KCAL/MOL
REMARK 923 INTER-LIGAND FREE ENERGY PREDICTED BY IDOCK:   -4.10 KCAL/MOL
REMARK 924 INTRA-LIGAND FREE ENERGY PREDICTED BY IDOCK:   -0.80 KCAL/MOL
REMARK 927      BINDING AFFINITY PREDICTED BY RF-SCORE:    0.00 PKD
ROOT
HETATM    1  C   UNL     1      -8.815  10.337  67.913  1.00  0.00    -0.122 C  
HETATM    2  C   UNL     1      -8.693  11.853  67.604  1.00  0.00    -0.162 A  
HETATM    3  C   UNL     1      -7.480   9.640  68.247  1.00  0.00    -0.077 C  
HETATM    4  C   UNL     1      -9.947   9.960  68.922  1.00  0.00    -0.188 C  
HETATM    5  C   UNL     1      -6.435   9.663  67.143  1.00  0.00    -0.070 C  
HETATM    6  C   UNL     1      -8.869  12.853  68.578  1.00  0.00    -0.044 A  
HETATM    7  C   UNL     1     -11.198   9.606  68.554  1.00  0.00     0.050 C  
HETATM    8  O   UNL     1     -11.585   9.565  67.224  1.00  0.00     0.063 OA 
HETATM    9  C   UNL     1     -12.375   9.458  69.537  1.00  0.00     1.230 C  
HETATM   10  C   UNL     1      -8.895  14.225  68.241  1.00  0.00    -0.185 A  
HETATM   11  C   UNL     1      -8.658  14.627  66.935  1.00  0.00    -0.233 A  
HETATM   12  C   UNL     1     -12.040   9.535  71.026  1.00  0.00    -0.318 C  
HETATM   13  C   UNL     1      -9.650   9.985  70.382  1.00  0.00     0.081 C  
HETATM   14  H   UNL     1     -12.465   9.316  66.965  1.00  0.00     0.000 HD 
HETATM   15  O   UNL     1     -10.655   9.864  71.275  1.00  0.00    -0.194 OA 
HETATM   16  C   UNL     1      -8.423  12.297  66.290  1.00  0.00     0.199 A  
HETATM   17  O   UNL     1      -8.510  10.139  70.800  1.00  0.00     0.192 OA 
HETATM   18  C   UNL     1      -8.387  13.665  65.964  1.00  0.00     1.462 A  
ENDROOT
BRANCH  10  19
HETATM   19  N   UNL     1      -9.276  15.197  69.222  1.00  0.00    -0.311 N  
HETATM   20  H   UNL     1      -8.995  15.085  70.197  1.00  0.00     0.000 HD 
BRANCH  19  21
HETATM   21  S   UNL     1     -10.215  16.554  68.735  1.00  0.00    -0.286 S  
HETATM   22  O   UNL     1     -11.232  16.052  67.826  1.00  0.00    -0.315 OA 
HETATM   23  O   UNL     1     -10.594  17.276  69.934  1.00  0.00    -0.070 OA 
BRANCH  21  24
HETATM   24  C   UNL     1      -9.126  17.625  67.811  1.00  0.00    -0.247 A  
HETATM   25  C   UNL     1      -7.033  18.418  66.896  1.00  0.00    -0.214 A  
HETATM   26  N   UNL     1      -9.799  18.412  66.990  1.00  0.00    -0.311 NA 
HETATM   27  F   UNL     1      -5.998  20.925  65.889  1.00  0.00    -0.231 F  
HETATM   28  C   UNL     1      -6.850  20.163  65.137  1.00  0.00    -0.274 C  
HETATM   29  F   UNL     1      -6.046  19.434  64.306  1.00  0.00    -0.283 F  
HETATM   30  C   UNL     1      -9.061  19.150  66.137  1.00  0.00    -0.224 A  
HETATM   31  F   UNL     1      -7.425  21.083  64.328  1.00  0.00     0.079 F  
HETATM   32  C   UNL     1      -7.678  19.260  66.023  1.00  0.00    -0.293 A  
HETATM   33  C   UNL     1      -7.735  17.578  67.786  1.00  0.00    -0.209 A  
ENDBRANCH  21  24
ENDBRANCH  19  21
ENDBRANCH  10  19
BRANCH  12  34
HETATM   34  C   UNL     1     -12.293   8.098  71.507  1.00  0.00    -0.335 C  
BRANCH  34  35
HETATM   35  C   UNL     1     -11.183   7.148  71.004  1.00  0.00    -0.298 C  
BRANCH  35  36
HETATM   36  C   UNL     1     -10.404   6.596  72.139  1.00  0.00    -0.222 A  
HETATM   37  C   UNL     1      -8.705   5.159  73.029  1.00  0.00    -0.114 A  
HETATM   38  C   UNL     1      -9.367   5.694  71.922  1.00  0.00    -0.161 A  
HETATM   39  C   UNL     1     -10.097   6.457  74.515  1.00  0.00    -0.358 A  
HETATM   40  C   UNL     1      -9.063   5.542  74.313  1.00  0.00    -0.122 A  
HETATM   41  C   UNL     1     -10.767   6.988  73.423  1.00  0.00    -0.379 A  
ENDBRANCH  35  36
ENDBRANCH  34  35
ENDBRANCH  12  34
BRANCH  12  42
HETATM   42  C   UNL     1     -12.903  10.568  71.912  1.00  0.00    -0.509 C  
BRANCH  42  43
HETATM   43  C   UNL     1     -12.534  12.062  71.773  1.00  0.00     0.026 C  
HETATM   44  C   UNL     1     -12.555  12.793  70.432  1.00  0.00    -0.126 C  
ENDBRANCH  42  43
ENDBRANCH  12  42
TORSDOF 8
ENDMDL
MODEL      156
REMARK 921   NORMALIZED FREE ENERGY PREDICTED BY IDOCK:   -1.90 KCAL/MOL
REMARK 922        TOTAL FREE ENERGY PREDICTED BY IDOCK:   -4.78 KCAL/MOL
REMARK 923 INTER-LIGAND FREE ENERGY PREDICTED BY IDOCK:   -5.14 KCAL/MOL
REMARK 924 INTRA-LIGAND FREE ENERGY PREDICTED BY IDOCK:    0.36 KCAL/MOL
REMARK 927      BINDING AFFINITY PREDICTED BY RF-SCORE:    0.00 PKD
ROOT
HETATM    1  C   UNL     1     -11.546  14.820  65.567  1.00  0.00    -0.301 C  
HETATM    2  C   UNL     1     -10.663  16.084  65.751  1.00  0.00    -0.310 A  
HETATM    3  C   UNL     1     -11.894  14.488  64.102  1.00  0.00    -0.290 C  
HETATM    4  C   UNL     1     -11.069  13.562  66.362  1.00  0.00    -0.311 C  
HETATM    5  C   UNL     1     -12.688  15.550  63.360  1.00  0.00     1.944 C  
HETATM    6  C   UNL     1      -9.260  16.034  65.844  1.00  0.00    -0.321 A  
HETATM    7  C   UNL     1     -11.513  13.237  67.596  1.00  0.00    -0.321 C  
HETATM    8  O   UNL     1     -12.433  14.021  68.272  1.00  0.00    -0.498 OA 
HETATM    9  C   UNL     1     -10.885  12.138  68.474  1.00  0.00    -0.267 C  
HETATM   10  C   UNL     1      -8.493  17.179  66.155  1.00  0.00    -0.203 A  
HETATM   11  C   UNL     1      -9.108  18.413  66.293  1.00  0.00    -0.213 A  
HETATM   12  C   UNL     1      -9.826  11.254  67.816  1.00  0.00    -0.173 C  
HETATM   13  C   UNL     1     -10.067  12.653  65.739  1.00  0.00    -0.271 C  
HETATM   14  H   UNL     1     -12.745  13.793  69.140  1.00  0.00     0.000 HD 
HETATM   15  O   UNL     1      -9.490  11.681  66.478  1.00  0.00    -0.194 OA 
HETATM   16  C   UNL     1     -11.255  17.361  65.866  1.00  0.00     0.700 A  
HETATM   17  O   UNL     1      -9.728  12.779  64.569  1.00  0.00    -0.064 OA 
HETATM   18  C   UNL     1     -10.486  18.513  66.114  1.00  0.00    -0.447 A  
ENDROOT
BRANCH  10  19
HETATM   19  N   UNL     1      -7.094  17.049  66.438  1.00  0.00    -0.260 N  
HETATM   20  H   UNL     1      -6.400  17.469  65.819  1.00  0.00     0.000 HD 
BRANCH  19  21
HETATM   21  S   UNL     1      -6.602  16.174  67.836  1.00  0.00    -0.152 S  
HETATM   22  O   UNL     1      -6.017  14.931  67.363  1.00  0.00    -0.338 OA 
HETATM   23  O   UNL     1      -5.832  17.078  68.668  1.00  0.00    -0.137 OA 
BRANCH  21  24
HETATM   24  C   UNL     1      -8.088  15.778  68.742  1.00  0.00    -0.179 A  
HETATM   25  C   UNL     1      -9.519  14.522  70.233  1.00  0.00     1.273 A  
HETATM   26  N   UNL     1      -8.914  16.808  68.794  1.00  0.00    -0.257 NA 
HETATM   27  F   UNL     1     -12.364  14.258  70.684  1.00  0.00    -0.335 F  
HETATM   28  C   UNL     1     -11.681  15.358  71.127  1.00  0.00    -0.368 C  
HETATM   29  F   UNL     1     -11.393  15.103  72.438  1.00  0.00    -0.494 F  
HETATM   30  C   UNL     1      -9.995  16.662  69.586  1.00  0.00    -0.005 A  
HETATM   31  F   UNL     1     -12.648  16.303  71.172  1.00  0.00    -0.419 F  
HETATM   32  C   UNL     1     -10.416  15.558  70.321  1.00  0.00    -0.282 A  
HETATM   33  C   UNL     1      -8.339  14.616  69.465  1.00  0.00     0.159 A  
ENDBRANCH  21  24
ENDBRANCH  19  21
ENDBRANCH  10  19
BRANCH  12  34
HETATM   34  C   UNL     1     -10.528   9.890  67.729  1.00  0.00    -0.292 C  
BRANCH  34  35
HETATM   35  C   UNL     1     -10.853   9.349  69.140  1.00  0.00    -0.176 C  
BRANCH  35  36
HETATM   36  C   UNL     1     -10.827   7.866  69.157  1.00  0.00    -0.054 A  
HETATM   37  C   UNL     1     -10.643   5.774  70.312  1.00  0.00    -0.369 A  
HETATM   38  C   UNL     1     -10.723   7.168  70.356  1.00  0.00    -0.255 A  
HETATM   39  C   UNL     1     -10.807   5.820  67.904  1.00  0.00    -0.257 A  
HETATM   40  C   UNL     1     -10.691   5.107  69.098  1.00  0.00     0.086 A  
HETATM   41  C   UNL     1     -10.879   7.205  67.935  1.00  0.00    -0.219 A  
ENDBRANCH  35  36
ENDBRANCH  34  35
ENDBRANCH  12  34
BRANCH  12  42
HETATM   42  C   UNL     1      -8.424  11.099  68.594  1.00  0.00    -0.153 C  
BRANCH  42  43
HETATM   43  C   UNL     1      -8.448  10.249  69.885  1.00  0.00    -0.013 C  
HETATM   44  C   UNL     1      -7.302   9.316  70.276  1.00  0.00    -0.100 C  
ENDBRANCH  42  43
ENDBRANCH  12  42
TORSDOF 8
ENDMDL
MODEL      157
REMARK 921   NORMALIZED FREE ENERGY PREDICTED BY IDOCK:   -1.38 KCAL/MOL
REMARK 922        TOTAL FREE ENERGY PREDICTED BY IDOCK:   -4.02 KCAL/MOL
REMARK 923 INTER-LIGAND FREE ENERGY PREDICTED BY IDOCK:   -2.81 KCAL/MOL
REMARK 924 INTRA-LIGAND FREE ENERGY PREDICTED BY IDOCK:   -1.21 KCAL/MOL
REMARK 927      BINDING AFFINITY PREDICTED BY RF-SCORE:    0.00 PKD
ROOT
HETATM    1  C   UNL     1      -9.800  17.090  66.694  1.00  0.00    -0.297 C  
HETATM    2  C   UNL     1     -11.015  16.144  66.495  1.00  0.00    -0.047 A  
HETATM    3  C   UNL     1     -10.169  18.536  67.082  1.00  0.00    -0.408 C  
HETATM    4  C   UNL     1      -8.654  16.513  67.585  1.00  0.00    -0.189 C  
HETATM    5  C   UNL     1     -11.009  19.294  66.067  1.00  0.00    -0.193 C  
HETATM    6  C   UNL     1     -11.522  15.319  67.516  1.00  0.00    -0.271 A  
HETATM    7  C   UNL     1      -7.583  15.848  67.099  1.00  0.00    -0.220 C  
HETATM    8  O   UNL     1      -7.424  15.609  65.743  1.00  0.00     0.987 OA 
HETATM    9  C   UNL     1      -6.575  15.081  67.976  1.00  0.00    -0.156 C  
HETATM   10  C   UNL     1     -12.533  14.365  67.269  1.00  0.00     0.154 A  
HETATM   11  C   UNL     1     -13.118  14.277  66.015  1.00  0.00     0.307 A  
HETATM   12  C   UNL     1      -6.709  15.255  69.489  1.00  0.00    -0.172 C  
HETATM   13  C   UNL     1      -8.727  16.696  69.062  1.00  0.00    -0.193 C  
HETATM   14  H   UNL     1      -6.671  15.141  65.401  1.00  0.00     0.000 HD 
HETATM   15  O   UNL     1      -7.865  16.036  69.864  1.00  0.00     0.115 OA 
HETATM   16  C   UNL     1     -11.653  16.051  65.238  1.00  0.00     0.287 A  
HETATM   17  O   UNL     1      -9.572  17.416  69.576  1.00  0.00     0.084 OA 
HETATM   18  C   UNL     1     -12.703  15.144  65.007  1.00  0.00     0.391 A  
ENDROOT
BRANCH  10  19
HETATM   19  N   UNL     1     -12.880  13.411  68.280  1.00  0.00     0.708 N  
HETATM   20  H   UNL     1     -13.844  13.093  68.383  1.00  0.00     0.000 HD 
BRANCH  19  21
HETATM   21  S   UNL     1     -11.647  12.809  69.320  1.00  0.00    -0.311 S  
HETATM   22  O   UNL     1     -10.720  13.904  69.543  1.00  0.00    -0.096 OA 
HETATM   23  O   UNL     1     -12.299  12.158  70.440  1.00  0.00    -0.303 OA 
BRANCH  21  24
HETATM   24  C   UNL     1     -10.790  11.533  68.411  1.00  0.00    -0.211 A  
HETATM   25  C   UNL     1      -8.904  10.215  67.667  1.00  0.00    -0.125 A  
HETATM   26  N   UNL     1     -11.628  10.632  67.930  1.00  0.00    -0.489 NA 
HETATM   27  F   UNL     1      -8.291   8.521  65.404  1.00  0.00    -0.121 F  
HETATM   28  C   UNL     1      -9.102   8.079  66.413  1.00  0.00    -0.183 C  
HETATM   29  F   UNL     1      -8.289   7.359  67.243  1.00  0.00    -0.113 F  
HETATM   30  C   UNL     1     -11.069   9.545  67.361  1.00  0.00     0.133 A  
HETATM   31  F   UNL     1      -9.860   7.146  65.791  1.00  0.00     0.046 F  
HETATM   32  C   UNL     1      -9.726   9.247  67.143  1.00  0.00    -0.225 A  
HETATM   33  C   UNL     1      -9.412  11.356  68.322  1.00  0.00    -0.187 A  
ENDBRANCH  21  24
ENDBRANCH  19  21
ENDBRANCH  10  19
BRANCH  12  34
HETATM   34  C   UNL     1      -5.445  16.050  69.853  1.00  0.00    -0.143 C  
BRANCH  34  35
HETATM   35  C   UNL     1      -5.244  17.236  68.882  1.00  0.00    -0.147 C  
BRANCH  35  36
HETATM   36  C   UNL     1      -5.357  18.530  69.596  1.00  0.00    -0.199 A  
HETATM   37  C   UNL     1      -5.353  19.838  71.604  1.00  0.00    -0.427 A  
HETATM   38  C   UNL     1      -5.178  18.604  70.974  1.00  0.00    -0.282 A  
HETATM   39  C   UNL     1      -5.843  20.877  69.480  1.00  0.00    -0.209 A  
HETATM   40  C   UNL     1      -5.677  20.964  70.864  1.00  0.00     0.179 A  
HETATM   41  C   UNL     1      -5.678  19.656  68.845  1.00  0.00    -0.249 A  
ENDBRANCH  35  36
ENDBRANCH  34  35
ENDBRANCH  12  34
BRANCH  12  42
HETATM   42  C   UNL     1      -6.781  13.909  70.371  1.00  0.00     0.265 C  
BRANCH  42  43
HETATM   43  C   UNL     1      -5.428  13.313  70.821  1.00  0.00    -0.174 C  
HETATM   44  C   UNL     1      -5.232  11.819  71.074  1.00  0.00    -0.124 C  
ENDBRANCH  42  43
ENDBRANCH  12  42
TORSDOF 8
ENDMDL
MODEL      158
REMARK 921   NORMALIZED FREE ENERGY PREDICTED BY IDOCK:   -1.33 KCAL/MOL
REMARK 922        TOTAL FREE ENERGY PREDICTED BY IDOCK:   -3.95 KCAL/MOL
REMARK 923 INTER-LIGAND FREE ENERGY PREDICTED BY IDOCK:   -1.82 KCAL/MOL
REMARK 924 INTRA-LIGAND FREE ENERGY PREDICTED BY IDOCK:   -2.13 KCAL/MOL
REMARK 927      BINDING AFFINITY PREDICTED BY RF-SCORE:    0.00 PKD
ROOT
HETATM    1  C   UNL     1      -6.486  11.455  69.525  1.00  0.00    -0.122 C  
HETATM    2  C   UNL     1      -7.630  12.447  69.185  1.00  0.00     0.223 A  
HETATM    3  C   UNL     1      -5.814  11.693  70.892  1.00  0.00     0.074 C  
HETATM    4  C   UNL     1      -6.829   9.948  69.289  1.00  0.00    -0.057 C  
HETATM    5  C   UNL     1      -5.135  13.042  71.062  1.00  0.00    -0.146 C  
HETATM    6  C   UNL     1      -8.985  12.179  69.454  1.00  0.00     1.103 A  
HETATM    7  C   UNL     1      -6.562   9.285  68.143  1.00  0.00    -0.059 C  
HETATM    8  O   UNL     1      -5.965   9.908  67.059  1.00  0.00    -0.051 OA 
HETATM    9  C   UNL     1      -7.099   7.877  67.819  1.00  0.00    -0.086 C  
HETATM   10  C   UNL     1     -10.017  13.034  69.006  1.00  0.00     0.234 A  
HETATM   11  C   UNL     1      -9.707  14.218  68.355  1.00  0.00    -0.225 A  
HETATM   12  C   UNL     1      -7.812   7.136  68.949  1.00  0.00    -0.115 C  
HETATM   13  C   UNL     1      -7.489   9.180  70.382  1.00  0.00    -0.106 C  
HETATM   14  H   UNL     1      -5.777   9.441  66.253  1.00  0.00     0.000 HD 
HETATM   15  O   UNL     1      -7.978   7.946  70.135  1.00  0.00    -0.102 OA 
HETATM   16  C   UNL     1      -7.348  13.677  68.548  1.00  0.00    -0.114 A  
HETATM   17  O   UNL     1      -7.626   9.651  71.503  1.00  0.00    -0.199 OA 
HETATM   18  C   UNL     1      -8.371  14.558  68.156  1.00  0.00    -0.147 A  
ENDROOT
BRANCH  10  19
HETATM   19  N   UNL     1     -11.386  12.627  69.122  1.00  0.00    -0.302 N  
HETATM   20  H   UNL     1     -12.086  13.270  69.493  1.00  0.00     0.000 HD 
BRANCH  19  21
HETATM   21  S   UNL     1     -11.831  11.040  68.628  1.00  0.00    -0.161 S  
HETATM   22  O   UNL     1     -11.167  10.120  69.536  1.00  0.00    -0.238 OA 
HETATM   23  O   UNL     1     -13.274  11.016  68.484  1.00  0.00     2.105 OA 
BRANCH  21  24
HETATM   24  C   UNL     1     -11.146  10.800  66.997  1.00  0.00    -0.174 A  
HETATM   25  C   UNL     1     -10.731  11.281  64.664  1.00  0.00    -0.371 A  
HETATM   26  N   UNL     1     -10.144   9.940  67.013  1.00  0.00    -0.206 NA 
HETATM   27  F   UNL     1      -9.874   9.794  62.335  1.00  0.00    -0.201 F  
HETATM   28  C   UNL     1      -8.978  10.168  63.299  1.00  0.00    -0.247 C  
HETATM   29  F   UNL     1      -8.411  11.323  62.839  1.00  0.00    -0.123 F  
HETATM   30  C   UNL     1      -9.458   9.806  65.859  1.00  0.00    -0.226 A  
HETATM   31  F   UNL     1      -8.004   9.238  63.168  1.00  0.00    -0.125 F  
HETATM   32  C   UNL     1      -9.682  10.396  64.618  1.00  0.00    -0.392 A  
HETATM   33  C   UNL     1     -11.465  11.514  65.846  1.00  0.00    -0.086 A  
ENDBRANCH  21  24
ENDBRANCH  19  21
ENDBRANCH  10  19
BRANCH  12  34
HETATM   34  C   UNL     1      -6.839   5.992  69.274  1.00  0.00    -0.062 C  
BRANCH  34  35
HETATM   35  C   UNL     1      -6.730   5.780  70.800  1.00  0.00    -0.052 C  
BRANCH  35  36
HETATM   36  C   UNL     1      -7.537   4.613  71.232  1.00  0.00    -0.080 A  
HETATM   37  C   UNL     1      -8.363   3.131  72.924  1.00  0.00    -0.080 A  
HETATM   38  C   UNL     1      -7.640   4.274  72.577  1.00  0.00    -0.079 A  
HETATM   39  C   UNL     1      -8.879   2.728  70.600  1.00  0.00    -0.144 A  
HETATM   40  C   UNL     1      -8.982   2.369  71.945  1.00  0.00    -0.128 A  
HETATM   41  C   UNL     1      -8.157   3.856  70.244  1.00  0.00    -0.056 A  
ENDBRANCH  35  36
ENDBRANCH  34  35
ENDBRANCH  12  34
BRANCH  12  42
HETATM   42  C   UNL     1      -9.270   6.537  68.618  1.00  0.00    -0.127 C  
BRANCH  42  43
HETATM   43  C   UNL     1      -9.534   6.154  67.144  1.00  0.00    -0.128 C  
HETATM   44  C   UNL     1     -10.746   5.330  66.714  1.00  0.00    -0.241 C  
ENDBRANCH  42  43
ENDBRANCH  12  42
TORSDOF 8
ENDMDL
MODEL      159
REMARK 921   NORMALIZED FREE ENERGY PREDICTED BY IDOCK:   -0.97 KCAL/MOL
REMARK 922        TOTAL FREE ENERGY PREDICTED BY IDOCK:   -3.41 KCAL/MOL
REMARK 923 INTER-LIGAND FREE ENERGY PREDICTED BY IDOCK:   -1.53 KCAL/MOL
REMARK 924 INTRA-LIGAND FREE ENERGY PREDICTED BY IDOCK:   -1.89 KCAL/MOL
REMARK 927      BINDING AFFINITY PREDICTED BY RF-SCORE:    0.00 PKD
ROOT
HETATM    1  C   UNL     1      -6.486  11.455  69.525  1.00  0.00    -0.122 C  
HETATM    2  C   UNL     1      -7.630  12.447  69.185  1.00  0.00     0.223 A  
HETATM    3  C   UNL     1      -5.814  11.693  70.892  1.00  0.00     0.074 C  
HETATM    4  C   UNL     1      -6.829   9.948  69.289  1.00  0.00    -0.057 C  
HETATM    5  C   UNL     1      -5.135  13.042  71.062  1.00  0.00    -0.146 C  
HETATM    6  C   UNL     1      -8.985  12.179  69.454  1.00  0.00     1.103 A  
HETATM    7  C   UNL     1      -6.562   9.285  68.143  1.00  0.00    -0.059 C  
HETATM    8  O   UNL     1      -5.965   9.908  67.059  1.00  0.00    -0.051 OA 
HETATM    9  C   UNL     1      -7.099   7.877  67.819  1.00  0.00    -0.086 C  
HETATM   10  C   UNL     1     -10.017  13.034  69.006  1.00  0.00     0.234 A  
HETATM   11  C   UNL     1      -9.707  14.218  68.355  1.00  0.00    -0.225 A  
HETATM   12  C   UNL     1      -7.812   7.136  68.949  1.00  0.00    -0.115 C  
HETATM   13  C   UNL     1      -7.489   9.180  70.382  1.00  0.00    -0.106 C  
HETATM   14  H   UNL     1      -5.777   9.441  66.253  1.00  0.00     0.000 HD 
HETATM   15  O   UNL     1      -7.978   7.946  70.135  1.00  0.00    -0.102 OA 
HETATM   16  C   UNL     1      -7.348  13.677  68.548  1.00  0.00    -0.114 A  
HETATM   17  O   UNL     1      -7.626   9.651  71.503  1.00  0.00    -0.199 OA 
HETATM   18  C   UNL     1      -8.371  14.558  68.156  1.00  0.00    -0.147 A  
ENDROOT
BRANCH  10  19
HETATM   19  N   UNL     1     -11.386  12.627  69.122  1.00  0.00    -0.302 N  
HETATM   20  H   UNL     1     -12.086  13.270  69.493  1.00  0.00     0.000 HD 
BRANCH  19  21
HETATM   21  S   UNL     1     -11.831  11.040  68.628  1.00  0.00    -0.161 S  
HETATM   22  O   UNL     1     -11.167  10.120  69.536  1.00  0.00    -0.238 OA 
HETATM   23  O   UNL     1     -13.274  11.016  68.484  1.00  0.00     2.105 OA 
BRANCH  21  24
HETATM   24  C   UNL     1     -11.146  10.800  66.997  1.00  0.00    -0.174 A  
HETATM   25  C   UNL     1     -10.731  11.281  64.664  1.00  0.00    -0.371 A  
HETATM   26  N   UNL     1     -10.144   9.940  67.013  1.00  0.00    -0.206 NA 
HETATM   27  F   UNL     1      -9.874   9.794  62.335  1.00  0.00    -0.201 F  
HETATM   28  C   UNL     1      -8.978  10.168  63.299  1.00  0.00    -0.247 C  
HETATM   29  F   UNL     1      -8.411  11.323  62.839  1.00  0.00    -0.123 F  
HETATM   30  C   UNL     1      -9.458   9.806  65.859  1.00  0.00    -0.226 A  
HETATM   31  F   UNL     1      -8.004   9.238  63.168  1.00  0.00    -0.125 F  
HETATM   32  C   UNL     1      -9.682  10.396  64.618  1.00  0.00    -0.392 A  
HETATM   33  C   UNL     1     -11.465  11.514  65.846  1.00  0.00    -0.086 A  
ENDBRANCH  21  24
ENDBRANCH  19  21
ENDBRANCH  10  19
BRANCH  12  34
HETATM   34  C   UNL     1      -6.839   5.992  69.274  1.00  0.00    -0.062 C  
BRANCH  34  35
HETATM   35  C   UNL     1      -7.523   4.620  69.086  1.00  0.00    -0.056 C  
BRANCH  35  36
HETATM   36  C   UNL     1      -7.123   4.000  67.799  1.00  0.00    -0.059 A  
HETATM   37  C   UNL     1      -6.111   4.111  65.630  1.00  0.00    -0.024 A  
HETATM   38  C   UNL     1      -6.411   4.724  66.848  1.00  0.00    -0.045 A  
HETATM   39  C   UNL     1      -7.200   2.083  66.359  1.00  0.00    -0.056 A  
HETATM   40  C   UNL     1      -6.496   2.801  65.391  1.00  0.00    -0.031 A  
HETATM   41  C   UNL     1      -7.511   2.685  67.569  1.00  0.00    -0.057 A  
ENDBRANCH  35  36
ENDBRANCH  34  35
ENDBRANCH  12  34
BRANCH  12  42
HETATM   42  C   UNL     1      -9.270   6.537  68.618  1.00  0.00    -0.127 C  
BRANCH  42  43
HETATM   43  C   UNL     1      -9.534   6.154  67.144  1.00  0.00    -0.128 C  
HETATM   44  C   UNL     1     -10.746   5.330  66.714  1.00  0.00    -0.241 C  
ENDBRANCH  42  43
ENDBRANCH  12  42
TORSDOF 8
ENDMDL
MODEL      160
REMARK 921   NORMALIZED FREE ENERGY PREDICTED BY IDOCK:   -0.83 KCAL/MOL
REMARK 922        TOTAL FREE ENERGY PREDICTED BY IDOCK:   -3.21 KCAL/MOL
REMARK 923 INTER-LIGAND FREE ENERGY PREDICTED BY IDOCK:   -2.60 KCAL/MOL
REMARK 924 INTRA-LIGAND FREE ENERGY PREDICTED BY IDOCK:   -0.61 KCAL/MOL
REMARK 927      BINDING AFFINITY PREDICTED BY RF-SCORE:    0.00 PKD
ROOT
HETATM    1  C   UNL     1     -11.146   9.781  68.897  1.00  0.00    -0.139 C  
HETATM    2  C   UNL     1     -10.643   8.595  68.032  1.00  0.00    -0.205 A  
HETATM    3  C   UNL     1     -11.308   9.459  70.397  1.00  0.00    -0.295 C  
HETATM    4  C   UNL     1     -10.398  11.133  68.661  1.00  0.00    -0.219 C  
HETATM    5  C   UNL     1     -12.312   8.366  70.727  1.00  0.00     0.061 C  
HETATM    6  C   UNL     1      -9.285   8.387  67.729  1.00  0.00    -0.142 A  
HETATM    7  C   UNL     1     -10.810  12.079  67.789  1.00  0.00    -0.215 C  
HETATM    8  O   UNL     1     -11.943  11.912  67.009  1.00  0.00    -0.615 OA 
HETATM    9  C   UNL     1      -9.964  13.301  67.383  1.00  0.00    -0.233 C  
HETATM   10  C   UNL     1      -8.869   7.385  66.823  1.00  0.00    -0.137 A  
HETATM   11  C   UNL     1      -9.797   6.517  66.270  1.00  0.00    -0.032 A  
HETATM   12  C   UNL     1      -8.672  13.534  68.166  1.00  0.00    -0.174 C  
HETATM   13  C   UNL     1      -9.156  11.415  69.434  1.00  0.00     0.540 C  
HETATM   14  H   UNL     1     -12.233  12.578  66.396  1.00  0.00     0.000 HD 
HETATM   15  O   UNL     1      -8.385  12.473  69.104  1.00  0.00     0.318 OA 
HETATM   16  C   UNL     1     -11.559   7.674  67.476  1.00  0.00     1.424 A  
HETATM   17  O   UNL     1      -8.797  10.692  70.353  1.00  0.00     0.703 OA 
HETATM   18  C   UNL     1     -11.139   6.638  66.623  1.00  0.00    -0.007 A  
ENDROOT
BRANCH  10  19
HETATM   19  N   UNL     1      -7.505   7.335  66.387  1.00  0.00    -0.082 N  
HETATM   20  H   UNL     1      -7.266   7.526  65.413  1.00  0.00     0.000 HD 
BRANCH  19  21
HETATM   21  S   UNL     1      -6.276   6.949  67.528  1.00  0.00    -0.038 S  
HETATM   22  O   UNL     1      -5.199   6.321  66.783  1.00  0.00    -0.011 OA 
HETATM   23  O   UNL     1      -6.026   8.138  68.320  1.00  0.00    -0.039 OA 
BRANCH  21  24
HETATM   24  C   UNL     1      -6.969   5.731  68.635  1.00  0.00    -0.071 A  
HETATM   25  C   UNL     1      -7.544   4.721  70.755  1.00  0.00    -0.065 A  
HETATM   26  N   UNL     1      -7.810   4.928  68.008  1.00  0.00    -0.083 NA 
HETATM   27  F   UNL     1      -8.220   2.073  71.703  1.00  0.00    -0.048 F  
HETATM   28  C   UNL     1      -9.131   2.827  71.015  1.00  0.00    -0.111 C  
HETATM   29  F   UNL     1      -9.902   3.427  71.971  1.00  0.00    -0.196 F  
HETATM   30  C   UNL     1      -8.504   4.072  68.785  1.00  0.00    -0.082 A  
HETATM   31  F   UNL     1      -9.938   1.886  70.472  1.00  0.00    -0.153 F  
HETATM   32  C   UNL     1      -8.428   3.857  70.158  1.00  0.00    -0.091 A  
HETATM   33  C   UNL     1      -6.817   5.679  70.017  1.00  0.00    -0.060 A  
ENDBRANCH  21  24
ENDBRANCH  19  21
ENDBRANCH  10  19
BRANCH  12  34
HETATM   34  C   UNL     1      -8.980  14.814  68.958  1.00  0.00    -0.135 C  
BRANCH  34  35
HETATM   35  C   UNL     1     -10.275  15.481  68.443  1.00  0.00    -0.215 C  
BRANCH  35  36
HETATM   36  C   UNL     1     -10.009  16.863  67.976  1.00  0.00    -0.279 A  
HETATM   37  C   UNL     1      -8.560  18.749  67.689  1.00  0.00    -0.293 A  
HETATM   38  C   UNL     1      -8.741  17.424  68.089  1.00  0.00    -0.256 A  
HETATM   39  C   UNL     1     -10.884  18.897  67.053  1.00  0.00    -0.392 A  
HETATM   40  C   UNL     1      -9.620  19.477  67.170  1.00  0.00    -0.430 A  
HETATM   41  C   UNL     1     -11.077  17.584  67.454  1.00  0.00     0.097 A  
ENDBRANCH  35  36
ENDBRANCH  34  35
ENDBRANCH  12  34
BRANCH  12  42
HETATM   42  C   UNL     1      -7.327  13.734  67.303  1.00  0.00    -0.020 C  
BRANCH  42  43
HETATM   43  C   UNL     1      -6.368  12.523  67.239  1.00  0.00    -0.126 C  
HETATM   44  C   UNL     1      -5.753  11.895  68.489  1.00  0.00    -0.049 C  
ENDBRANCH  42  43
ENDBRANCH  12  42
TORSDOF 8
ENDMDL
MODEL      161
REMARK 921   NORMALIZED FREE ENERGY PREDICTED BY IDOCK:   -0.80 KCAL/MOL
REMARK 922        TOTAL FREE ENERGY PREDICTED BY IDOCK:   -3.17 KCAL/MOL
REMARK 923 INTER-LIGAND FREE ENERGY PREDICTED BY IDOCK:   -3.21 KCAL/MOL
REMARK 924 INTRA-LIGAND FREE ENERGY PREDICTED BY IDOCK:    0.03 KCAL/MOL
REMARK 927      BINDING AFFINITY PREDICTED BY RF-SCORE:    0.00 PKD
ROOT
HETATM    1  C   UNL     1      -7.154  14.640  70.047  1.00  0.00     0.005 C  
HETATM    2  C   UNL     1      -6.562  13.279  69.593  1.00  0.00     0.002 A  
HETATM    3  C   UNL     1      -6.103  15.696  70.448  1.00  0.00    -0.003 C  
HETATM    4  C   UNL     1      -8.253  15.228  69.105  1.00  0.00    -0.234 C  
HETATM    5  C   UNL     1      -5.212  15.321  71.620  1.00  0.00    -0.042 C  
HETATM    6  C   UNL     1      -6.309  12.963  68.245  1.00  0.00    -0.085 A  
HETATM    7  C   UNL     1      -9.578  15.020  69.271  1.00  0.00    -0.180 C  
HETATM    8  O   UNL     1     -10.072  14.237  70.302  1.00  0.00     0.144 OA 
HETATM    9  C   UNL     1     -10.646  15.399  68.227  1.00  0.00    -0.253 C  
HETATM   10  C   UNL     1      -5.907  11.668  67.847  1.00  0.00    -0.047 A  
HETATM   11  C   UNL     1      -5.666  10.689  68.799  1.00  0.00    -0.040 A  
HETATM   12  C   UNL     1     -10.175  16.225  67.031  1.00  0.00    -0.280 C  
HETATM   13  C   UNL     1      -7.837  16.073  67.951  1.00  0.00    -0.138 C  
HETATM   14  H   UNL     1     -11.004  14.091  70.419  1.00  0.00     0.000 HD 
HETATM   15  O   UNL     1      -8.743  16.420  67.012  1.00  0.00    -0.181 OA 
HETATM   16  C   UNL     1      -6.277  12.269  70.539  1.00  0.00     0.234 A  
HETATM   17  O   UNL     1      -6.679  16.443  67.814  1.00  0.00    -0.119 OA 
HETATM   18  C   UNL     1      -5.817  10.999  70.148  1.00  0.00    -0.117 A  
ENDROOT
BRANCH  10  19
HETATM   19  N   UNL     1      -5.855  11.331  66.455  1.00  0.00    -0.138 N  
HETATM   20  H   UNL     1      -5.294  11.887  65.809  1.00  0.00     0.000 HD 
BRANCH  19  21
HETATM   21  S   UNL     1      -6.751   9.976  65.889  1.00  0.00    -0.110 S  
HETATM   22  O   UNL     1      -8.100  10.449  65.627  1.00  0.00    -0.147 OA 
HETATM   23  O   UNL     1      -5.976   9.348  64.837  1.00  0.00    -0.063 OA 
BRANCH  21  24
HETATM   24  C   UNL     1      -6.825   8.810  67.240  1.00  0.00    -0.067 A  
HETATM   25  C   UNL     1      -7.859   7.345  68.862  1.00  0.00    -0.117 A  
HETATM   26  N   UNL     1      -5.648   8.256  67.468  1.00  0.00    -0.038 NA 
HETATM   27  F   UNL     1      -7.120   6.170  71.400  1.00  0.00    -0.068 F  
HETATM   28  C   UNL     1      -6.621   5.677  70.225  1.00  0.00    -0.046 C  
HETATM   29  F   UNL     1      -7.425   4.618  69.906  1.00  0.00    -0.051 F  
HETATM   30  C   UNL     1      -5.629   7.250  68.365  1.00  0.00    -0.022 A  
HETATM   31  F   UNL     1      -5.457   5.110  70.618  1.00  0.00    -0.004 F  
HETATM   32  C   UNL     1      -6.661   6.735  69.145  1.00  0.00    -0.056 A  
HETATM   33  C   UNL     1      -7.969   8.371  67.900  1.00  0.00    -0.115 A  
ENDBRANCH  21  24
ENDBRANCH  19  21
ENDBRANCH  10  19
BRANCH  12  34
HETATM   34  C   UNL     1     -10.847  17.586  67.271  1.00  0.00    -0.132 C  
BRANCH  34  35
HETATM   35  C   UNL     1     -10.429  18.604  66.188  1.00  0.00    -0.473 C  
BRANCH  35  36
HETATM   36  C   UNL     1      -9.212  19.345  66.599  1.00  0.00    -0.393 A  
HETATM   37  C   UNL     1      -6.940  20.024  66.255  1.00  0.00    -0.267 A  
HETATM   38  C   UNL     1      -8.078  19.360  65.793  1.00  0.00    -0.016 A  
HETATM   39  C   UNL     1      -8.103  20.658  68.274  1.00  0.00     0.300 A  
HETATM   40  C   UNL     1      -6.954  20.672  67.481  1.00  0.00    -0.395 A  
HETATM   41  C   UNL     1      -9.236  19.995  67.828  1.00  0.00    -0.435 A  
ENDBRANCH  35  36
ENDBRANCH  34  35
ENDBRANCH  12  34
BRANCH  12  42
HETATM   42  C   UNL     1     -10.563  15.674  65.568  1.00  0.00    -0.422 C  
BRANCH  42  43
HETATM   43  C   UNL     1     -12.069  15.457  65.297  1.00  0.00     0.327 C  
HETATM   44  C   UNL     1     -12.746  15.913  64.005  1.00  0.00     1.079 C  
ENDBRANCH  42  43
ENDBRANCH  12  42
TORSDOF 8
ENDMDL
MODEL      162
REMARK 921   NORMALIZED FREE ENERGY PREDICTED BY IDOCK:   -0.58 KCAL/MOL
REMARK 922        TOTAL FREE ENERGY PREDICTED BY IDOCK:   -2.84 KCAL/MOL
REMARK 923 INTER-LIGAND FREE ENERGY PREDICTED BY IDOCK:   -1.24 KCAL/MOL
REMARK 924 INTRA-LIGAND FREE ENERGY PREDICTED BY IDOCK:   -1.59 KCAL/MOL
REMARK 927      BINDING AFFINITY PREDICTED BY RF-SCORE:    0.00 PKD
ROOT
HETATM    1  C   UNL     1      -7.032  15.028  67.769  1.00  0.00    -0.193 C  
HETATM    2  C   UNL     1      -6.698  13.548  67.443  1.00  0.00    -0.044 A  
HETATM    3  C   UNL     1      -6.629  16.034  66.671  1.00  0.00     0.409 C  
HETATM    4  C   UNL     1      -8.482  15.277  68.294  1.00  0.00    -0.154 C  
HETATM    5  C   UNL     1      -5.144  16.097  66.354  1.00  0.00     1.183 C  
HETATM    6  C   UNL     1      -7.620  12.665  66.850  1.00  0.00     0.113 A  
HETATM    7  C   UNL     1      -8.816  15.302  69.603  1.00  0.00    -0.108 C  
HETATM    8  O   UNL     1      -7.878  15.089  70.601  1.00  0.00     0.178 OA 
HETATM    9  C   UNL     1     -10.267  15.316  70.121  1.00  0.00    -0.166 C  
HETATM   10  C   UNL     1      -7.340  11.288  66.697  1.00  0.00    -0.131 A  
HETATM   11  C   UNL     1      -6.098  10.786  67.055  1.00  0.00    -0.068 A  
HETATM   12  C   UNL     1     -11.368  15.501  69.078  1.00  0.00    -0.326 C  
HETATM   13  C   UNL     1      -9.577  15.502  67.309  1.00  0.00    -0.213 C  
HETATM   14  H   UNL     1      -8.113  15.107  71.522  1.00  0.00     0.000 HD 
HETATM   15  O   UNL     1     -10.862  15.514  67.724  1.00  0.00    -0.292 OA 
HETATM   16  C   UNL     1      -5.433  13.010  67.768  1.00  0.00    -0.118 A  
HETATM   17  O   UNL     1      -9.345  15.652  66.117  1.00  0.00    -0.293 OA 
HETATM   18  C   UNL     1      -5.131  11.652  67.559  1.00  0.00    -0.062 A  
ENDROOT
BRANCH  10  19
HETATM   19  N   UNL     1      -8.373  10.390  66.276  1.00  0.00    -0.141 N  
HETATM   20  H   UNL     1      -8.174   9.654  65.598  1.00  0.00     0.000 HD 
BRANCH  19  21
HETATM   21  S   UNL     1      -9.955  10.570  66.930  1.00  0.00    -0.208 S  
HETATM   22  O   UNL     1     -10.194  11.998  67.053  1.00  0.00    -0.202 OA 
HETATM   23  O   UNL     1     -10.849   9.741  66.145  1.00  0.00     0.087 OA 
BRANCH  21  24
HETATM   24  C   UNL     1      -9.913   9.870  68.572  1.00  0.00    -0.159 A  
HETATM   25  C   UNL     1     -10.738   9.311  70.775  1.00  0.00    -0.350 A  
HETATM   26  N   UNL     1      -8.926   9.003  68.706  1.00  0.00    -0.136 NA 
HETATM   27  F   UNL     1      -9.582   8.596  73.329  1.00  0.00    -0.241 F  
HETATM   28  C   UNL     1      -9.641   7.690  72.306  1.00  0.00    -0.165 C  
HETATM   29  F   UNL     1     -10.764   6.947  72.543  1.00  0.00    -0.206 F  
HETATM   30  C   UNL     1      -8.901   8.305  69.859  1.00  0.00    -0.138 A  
HETATM   31  F   UNL     1      -8.617   6.855  72.597  1.00  0.00    -0.119 F  
HETATM   32  C   UNL     1      -9.730   8.399  70.973  1.00  0.00    -0.218 A  
HETATM   33  C   UNL     1     -10.860  10.044  69.576  1.00  0.00    -0.283 A  
ENDBRANCH  21  24
ENDBRANCH  19  21
ENDBRANCH  10  19
BRANCH  12  34
HETATM   34  C   UNL     1     -11.915  16.899  69.406  1.00  0.00     1.428 C  
BRANCH  34  35
HETATM   35  C   UNL     1     -12.095  17.734  68.118  1.00  0.00     2.912 C  
BRANCH  35  36
HETATM   36  C   UNL     1     -10.860  18.491  67.800  1.00  0.00    -0.289 A  
HETATM   37  C   UNL     1      -9.401  19.589  66.249  1.00  0.00    -0.431 A  
HETATM   38  C   UNL     1     -10.606  18.932  66.505  1.00  0.00    -0.462 A  
HETATM   39  C   UNL     1      -8.767  19.377  68.569  1.00  0.00    -0.407 A  
HETATM   40  C   UNL     1      -8.493  19.814  67.272  1.00  0.00    -0.363 A  
HETATM   41  C   UNL     1      -9.957  18.716  68.833  1.00  0.00    -0.399 A  
ENDBRANCH  35  36
ENDBRANCH  34  35
ENDBRANCH  12  34
BRANCH  12  42
HETATM   42  C   UNL     1     -12.568  14.428  69.089  1.00  0.00     0.176 C  
BRANCH  42  43
HETATM   43  C   UNL     1     -12.545  13.388  70.233  1.00  0.00    -0.187 C  
HETATM   44  C   UNL     1     -13.151  13.665  71.608  1.00  0.00    -0.455 C  
ENDBRANCH  42  43
ENDBRANCH  12  42
TORSDOF 8
ENDMDL
MODEL      163
REMARK 921   NORMALIZED FREE ENERGY PREDICTED BY IDOCK:   -0.39 KCAL/MOL
REMARK 922        TOTAL FREE ENERGY PREDICTED BY IDOCK:   -2.56 KCAL/MOL
REMARK 923 INTER-LIGAND FREE ENERGY PREDICTED BY IDOCK:   -2.61 KCAL/MOL
REMARK 924 INTRA-LIGAND FREE ENERGY PREDICTED BY IDOCK:    0.05 KCAL/MOL
REMARK 927      BINDING AFFINITY PREDICTED BY RF-SCORE:    0.00 PKD
ROOT
HETATM    1  C   UNL     1      -7.169  14.638  70.060  1.00  0.00     0.072 C  
HETATM    2  C   UNL     1      -6.606  13.283  69.554  1.00  0.00    -0.040 A  
HETATM    3  C   UNL     1      -6.095  15.690  70.405  1.00  0.00    -0.003 C  
HETATM    4  C   UNL     1      -8.326  15.235  69.197  1.00  0.00    -0.233 C  
HETATM    5  C   UNL     1      -5.130  15.303  71.514  1.00  0.00    -0.132 C  
HETATM    6  C   UNL     1      -6.440  12.982  68.189  1.00  0.00    -0.100 A  
HETATM    7  C   UNL     1      -9.637  15.024  69.444  1.00  0.00    -0.139 C  
HETATM    8  O   UNL     1     -10.065  14.229  70.496  1.00  0.00     0.496 OA 
HETATM    9  C   UNL     1     -10.769  15.413  68.474  1.00  0.00    -0.256 C  
HETATM   10  C   UNL     1      -6.063  11.692  67.752  1.00  0.00    -0.052 A  
HETATM   11  C   UNL     1      -5.761  10.703  68.675  1.00  0.00    -0.040 A  
HETATM   12  C   UNL     1     -10.376  16.254  67.260  1.00  0.00    -0.285 C  
HETATM   13  C   UNL     1      -7.985  16.093  68.028  1.00  0.00    -0.145 C  
HETATM   14  H   UNL     1     -10.987  14.080  70.670  1.00  0.00     0.000 HD 
HETATM   15  O   UNL     1      -8.948  16.450  67.152  1.00  0.00    -0.194 OA 
HETATM   16  C   UNL     1      -6.261  12.263  70.469  1.00  0.00     0.234 A  
HETATM   17  O   UNL     1      -6.838  16.467  67.822  1.00  0.00    -0.118 OA 
HETATM   18  C   UNL     1      -5.827  10.997  70.035  1.00  0.00    -0.102 A  
ENDROOT
BRANCH  10  19
HETATM   19  N   UNL     1      -6.099  11.371  66.356  1.00  0.00    -0.294 N  
HETATM   20  H   UNL     1      -5.587  11.940  65.681  1.00  0.00     0.000 HD 
BRANCH  19  21
HETATM   21  S   UNL     1      -7.018  10.013  65.835  1.00  0.00    -0.120 S  
HETATM   22  O   UNL     1      -6.236   9.352  64.804  1.00  0.00    -0.072 OA 
HETATM   23  O   UNL     1      -7.435   9.287  67.019  1.00  0.00    -0.090 OA 
BRANCH  21  24
HETATM   24  C   UNL     1      -8.501  10.657  65.077  1.00  0.00    -0.133 A  
HETATM   25  C   UNL     1     -10.162  10.971  63.348  1.00  0.00    -0.404 A  
HETATM   26  N   UNL     1      -9.312  11.190  65.973  1.00  0.00    -0.199 NA 
HETATM   27  F   UNL     1     -12.168  12.952  62.700  1.00  0.00    -0.260 F  
HETATM   28  C   UNL     1     -12.368  12.053  63.712  1.00  0.00    -0.496 C  
HETATM   29  F   UNL     1     -13.107  11.044  63.161  1.00  0.00     0.230 F  
HETATM   30  C   UNL     1     -10.527  11.566  65.525  1.00  0.00    -0.275 A  
HETATM   31  F   UNL     1     -13.239  12.708  64.515  1.00  0.00    -0.387 F  
HETATM   32  C   UNL     1     -11.046  11.537  64.234  1.00  0.00    -0.385 A  
HETATM   33  C   UNL     1      -8.892  10.507  63.750  1.00  0.00    -0.208 A  
ENDBRANCH  21  24
ENDBRANCH  19  21
ENDBRANCH  10  19
BRANCH  12  34
HETATM   34  C   UNL     1     -11.032  17.610  67.558  1.00  0.00    -0.085 C  
BRANCH  34  35
HETATM   35  C   UNL     1     -10.686  18.641  66.460  1.00  0.00    -0.294 C  
BRANCH  35  36
HETATM   36  C   UNL     1      -9.445  19.379  66.799  1.00  0.00    -0.404 A  
HETATM   37  C   UNL     1      -7.200  20.062  66.314  1.00  0.00    -0.298 A  
HETATM   38  C   UNL     1      -8.366  19.402  65.921  1.00  0.00    -0.093 A  
HETATM   39  C   UNL     1      -8.230  20.677  68.410  1.00  0.00     0.461 A  
HETATM   40  C   UNL     1      -7.135  20.699  67.544  1.00  0.00    -0.391 A  
HETATM   41  C   UNL     1      -9.390  20.018  68.032  1.00  0.00    -0.401 A  
ENDBRANCH  35  36
ENDBRANCH  34  35
ENDBRANCH  12  34
BRANCH  12  42
HETATM   42  C   UNL     1     -10.856  15.718  65.819  1.00  0.00    -0.286 C  
BRANCH  42  43
HETATM   43  C   UNL     1      -9.737  15.340  64.822  1.00  0.00     0.713 C  
HETATM   44  C   UNL     1      -9.772  14.055  63.995  1.00  0.00     2.596 C  
ENDBRANCH  42  43
ENDBRANCH  12  42
TORSDOF 8
ENDMDL
MODEL      164
REMARK 921   NORMALIZED FREE ENERGY PREDICTED BY IDOCK:   -0.16 KCAL/MOL
REMARK 922        TOTAL FREE ENERGY PREDICTED BY IDOCK:   -2.23 KCAL/MOL
REMARK 923 INTER-LIGAND FREE ENERGY PREDICTED BY IDOCK:   -2.29 KCAL/MOL
REMARK 924 INTRA-LIGAND FREE ENERGY PREDICTED BY IDOCK:    0.06 KCAL/MOL
REMARK 927      BINDING AFFINITY PREDICTED BY RF-SCORE:    0.00 PKD
ROOT
HETATM    1  C   UNL     1      -6.729  10.265  69.309  1.00  0.00    -0.063 C  
HETATM    2  C   UNL     1      -7.649  11.514  69.288  1.00  0.00     0.075 A  
HETATM    3  C   UNL     1      -6.726   9.491  70.643  1.00  0.00    -0.110 C  
HETATM    4  C   UNL     1      -6.877   9.317  68.076  1.00  0.00    -0.068 C  
HETATM    5  C   UNL     1      -6.241  10.273  71.853  1.00  0.00     0.827 C  
HETATM    6  C   UNL     1      -8.975  11.484  68.818  1.00  0.00    -0.053 A  
HETATM    7  C   UNL     1      -6.113   9.400  66.964  1.00  0.00    -0.064 C  
HETATM    8  O   UNL     1      -5.129  10.366  66.824  1.00  0.00    -0.039 OA 
HETATM    9  C   UNL     1      -6.401   8.628  65.663  1.00  0.00    -0.056 C  
HETATM   10  C   UNL     1      -9.742  12.662  68.675  1.00  0.00    -0.042 A  
HETATM   11  C   UNL     1      -9.227  13.883  69.083  1.00  0.00     0.332 A  
HETATM   12  C   UNL     1      -7.505   7.573  65.719  1.00  0.00    -0.079 C  
HETATM   13  C   UNL     1      -7.915   8.249  68.108  1.00  0.00    -0.123 C  
HETATM   14  H   UNL     1      -4.592  10.425  66.042  1.00  0.00     0.000 HD 
HETATM   15  O   UNL     1      -8.200   7.554  66.986  1.00  0.00    -0.120 OA 
HETATM   16  C   UNL     1      -7.166  12.769  69.724  1.00  0.00     0.679 A  
HETATM   17  O   UNL     1      -8.543   7.998  69.128  1.00  0.00    -0.135 OA 
HETATM   18  C   UNL     1      -7.951  13.933  69.641  1.00  0.00     0.738 A  
ENDROOT
BRANCH  10  19
HETATM   19  N   UNL     1     -11.009  12.616  68.008  1.00  0.00    -0.225 N  
HETATM   20  H   UNL     1     -11.411  11.722  67.723  1.00  0.00     0.000 HD 
BRANCH  19  21
HETATM   21  S   UNL     1     -11.842  14.088  67.692  1.00  0.00    -0.386 S  
HETATM   22  O   UNL     1     -12.628  13.872  66.489  1.00  0.00    -0.384 OA 
HETATM   23  O   UNL     1     -12.485  14.499  68.925  1.00  0.00    -0.118 OA 
BRANCH  21  24
HETATM   24  C   UNL     1     -10.596  15.314  67.328  1.00  0.00    -0.290 A  
HETATM   25  C   UNL     1      -8.841  16.398  66.066  1.00  0.00    -0.296 A  
HETATM   26  N   UNL     1     -10.737  16.389  68.083  1.00  0.00    -0.323 NA 
HETATM   27  F   UNL     1      -6.683  18.240  66.629  1.00  0.00    -0.189 F  
HETATM   28  C   UNL     1      -7.978  18.677  66.550  1.00  0.00    -0.278 C  
HETATM   29  F   UNL     1      -8.123  19.150  65.276  1.00  0.00     0.183 F  
HETATM   30  C   UNL     1      -9.942  17.435  67.781  1.00  0.00    -0.301 A  
HETATM   31  F   UNL     1      -7.958  19.787  67.322  1.00  0.00    -0.278 F  
HETATM   32  C   UNL     1      -8.938  17.541  66.822  1.00  0.00    -0.272 A  
HETATM   33  C   UNL     1      -9.671  15.279  66.289  1.00  0.00    -0.325 A  
ENDBRANCH  21  24
ENDBRANCH  19  21
ENDBRANCH  10  19
BRANCH  12  34
HETATM   34  C   UNL     1      -6.725   6.257  65.573  1.00  0.00    -0.048 C  
BRANCH  34  35
HETATM   35  C   UNL     1      -7.692   5.055  65.468  1.00  0.00    -0.087 C  
BRANCH  35  36
HETATM   36  C   UNL     1      -7.065   3.823  66.005  1.00  0.00    -0.063 A  
HETATM   37  C   UNL     1      -5.834   1.787  65.717  1.00  0.00    -0.017 A  
HETATM   38  C   UNL     1      -6.354   2.963  65.173  1.00  0.00    -0.027 A  
HETATM   39  C   UNL     1      -6.712   2.379  67.888  1.00  0.00    -0.039 A  
HETATM   40  C   UNL     1      -6.006   1.501  67.063  1.00  0.00    -0.019 A  
HETATM   41  C   UNL     1      -7.239   3.546  67.356  1.00  0.00    -0.059 A  
ENDBRANCH  35  36
ENDBRANCH  34  35
ENDBRANCH  12  34
BRANCH  12  42
HETATM   42  C   UNL     1      -8.650   7.659  64.590  1.00  0.00     0.185 C  
BRANCH  42  43
HETATM   43  C   UNL     1      -8.335   8.544  63.362  1.00  0.00    -0.094 C  
HETATM   44  C   UNL     1      -9.218   9.721  62.950  1.00  0.00    -0.241 C  
ENDBRANCH  42  43
ENDBRANCH  12  42
TORSDOF 8
ENDMDL
MODEL      165
REMARK 921   NORMALIZED FREE ENERGY PREDICTED BY IDOCK:   -0.07 KCAL/MOL
REMARK 922        TOTAL FREE ENERGY PREDICTED BY IDOCK:   -2.09 KCAL/MOL
REMARK 923 INTER-LIGAND FREE ENERGY PREDICTED BY IDOCK:   -2.00 KCAL/MOL
REMARK 924 INTRA-LIGAND FREE ENERGY PREDICTED BY IDOCK:   -0.09 KCAL/MOL
REMARK 927      BINDING AFFINITY PREDICTED BY RF-SCORE:    0.00 PKD
ROOT
HETATM    1  C   UNL     1     -11.490   7.686  71.057  1.00  0.00    -0.294 C  
HETATM    2  C   UNL     1     -12.069   9.124  71.136  1.00  0.00    -0.365 A  
HETATM    3  C   UNL     1     -12.544   6.563  71.144  1.00  0.00    -0.043 C  
HETATM    4  C   UNL     1     -10.469   7.449  69.898  1.00  0.00    -0.238 C  
HETATM    5  C   UNL     1     -13.350   6.519  72.432  1.00  0.00     0.345 C  
HETATM    6  C   UNL     1     -12.396   9.884  69.997  1.00  0.00     0.113 A  
HETATM    7  C   UNL     1      -9.131   7.580  70.034  1.00  0.00    -0.148 C  
HETATM    8  O   UNL     1      -8.551   7.959  71.234  1.00  0.00    -0.118 OA 
HETATM    9  C   UNL     1      -8.141   7.575  68.853  1.00  0.00    -0.127 C  
HETATM   10  C   UNL     1     -12.784  11.239  70.093  1.00  0.00    -0.041 A  
HETATM   11  C   UNL     1     -12.937  11.834  71.336  1.00  0.00    -0.408 A  
HETATM   12  C   UNL     1      -8.710   7.211  67.482  1.00  0.00    -0.121 C  
HETATM   13  C   UNL     1     -10.980   7.053  68.556  1.00  0.00    -0.077 C  
HETATM   14  H   UNL     1      -7.610   8.051  71.330  1.00  0.00     0.000 HD 
HETATM   15  O   UNL     1     -10.145   7.043  67.495  1.00  0.00    -0.158 OA 
HETATM   16  C   UNL     1     -12.266   9.750  72.387  1.00  0.00     0.259 A  
HETATM   17  O   UNL     1     -12.155   6.759  68.380  1.00  0.00     1.182 OA 
HETATM   18  C   UNL     1     -12.712  11.080  72.485  1.00  0.00     1.207 A  
ENDROOT
BRANCH  10  19
HETATM   19  N   UNL     1     -12.913  12.032  68.907  1.00  0.00     1.705 N  
HETATM   20  H   UNL     1     -13.776  12.542  68.717  1.00  0.00     0.000 HD 
BRANCH  19  21
HETATM   21  S   UNL     1     -11.592  12.113  67.807  1.00  0.00    -0.330 S  
HETATM   22  O   UNL     1     -10.552  11.250  68.342  1.00  0.00    -0.179 OA 
HETATM   23  O   UNL     1     -12.118  11.889  66.475  1.00  0.00    -0.568 OA 
BRANCH  21  24
HETATM   24  C   UNL     1     -10.992  13.794  67.849  1.00  0.00    -0.253 A  
HETATM   25  C   UNL     1      -9.437  15.612  67.500  1.00  0.00    -0.214 A  
HETATM   26  N   UNL     1     -11.972  14.654  68.060  1.00  0.00    -0.301 NA 
HETATM   27  F   UNL     1      -9.023  18.258  68.593  1.00  0.00    -0.307 F  
HETATM   28  C   UNL     1     -10.031  18.016  67.701  1.00  0.00    -0.329 C  
HETATM   29  F   UNL     1      -9.533  18.381  66.482  1.00  0.00    -0.282 F  
HETATM   30  C   UNL     1     -11.650  15.959  67.956  1.00  0.00    -0.168 A  
HETATM   31  F   UNL     1     -10.926  18.985  68.003  1.00  0.00    -0.380 F  
HETATM   32  C   UNL     1     -10.414  16.553  67.716  1.00  0.00    -0.308 A  
HETATM   33  C   UNL     1      -9.706  14.228  67.543  1.00  0.00    -0.223 A  
ENDBRANCH  21  24
ENDBRANCH  19  21
ENDBRANCH  10  19
BRANCH  12  34
HETATM   34  C   UNL     1      -8.063   5.846  67.197  1.00  0.00    -0.102 C  
BRANCH  34  35
HETATM   35  C   UNL     1      -7.791   5.672  65.686  1.00  0.00    -0.099 C  
BRANCH  35  36
HETATM   36  C   UNL     1      -8.755   4.720  65.081  1.00  0.00    -0.144 A  
HETATM   37  C   UNL     1     -10.988   3.955  64.674  1.00  0.00     0.021 A  
HETATM   38  C   UNL     1     -10.126   4.912  65.212  1.00  0.00     0.031 A  
HETATM   39  C   UNL     1      -9.103   2.679  63.870  1.00  0.00    -0.105 A  
HETATM   40  C   UNL     1     -10.481   2.852  64.004  1.00  0.00    -0.075 A  
HETATM   41  C   UNL     1      -8.237   3.619  64.408  1.00  0.00    -0.090 A  
ENDBRANCH  35  36
ENDBRANCH  34  35
ENDBRANCH  12  34
BRANCH  12  42
HETATM   42  C   UNL     1      -8.397   8.227  66.273  1.00  0.00    -0.124 C  
BRANCH  42  43
HETATM   43  C   UNL     1      -7.280   9.266  66.523  1.00  0.00    -0.086 C  
HETATM   44  C   UNL     1      -6.257   9.117  67.649  1.00  0.00    -0.058 C  
ENDBRANCH  42  43
ENDBRANCH  12  42
TORSDOF 8
ENDMDL
MODEL      166
REMARK 921   NORMALIZED FREE ENERGY PREDICTED BY IDOCK:   -0.00 KCAL/MOL
REMARK 922        TOTAL FREE ENERGY PREDICTED BY IDOCK:   -2.00 KCAL/MOL
REMARK 923 INTER-LIGAND FREE ENERGY PREDICTED BY IDOCK:   -1.14 KCAL/MOL
REMARK 924 INTRA-LIGAND FREE ENERGY PREDICTED BY IDOCK:   -0.85 KCAL/MOL
REMARK 927      BINDING AFFINITY PREDICTED BY RF-SCORE:    0.00 PKD
ROOT
HETATM    1  C   UNL     1     -11.110  13.832  68.603  1.00  0.00    -0.293 C  
HETATM    2  C   UNL     1     -11.274  12.386  69.142  1.00  0.00    -0.295 A  
HETATM    3  C   UNL     1     -11.751  14.923  69.484  1.00  0.00    -0.353 C  
HETATM    4  C   UNL     1      -9.660  14.209  68.158  1.00  0.00    -0.218 C  
HETATM    5  C   UNL     1     -13.256  14.814  69.670  1.00  0.00     0.849 C  
HETATM    6  C   UNL     1     -10.308  11.750  69.943  1.00  0.00     1.015 A  
HETATM    7  C   UNL     1      -9.202  14.083  66.893  1.00  0.00    -0.260 C  
HETATM    8  O   UNL     1      -9.998  13.584  65.874  1.00  0.00    -0.294 OA 
HETATM    9  C   UNL     1      -7.722  14.231  66.495  1.00  0.00     1.172 C  
HETATM   10  C   UNL     1     -10.416  10.387  70.299  1.00  0.00    -0.048 A  
HETATM   11  C   UNL     1     -11.537   9.657  69.934  1.00  0.00    -0.077 A  
HETATM   12  C   UNL     1      -6.766  14.735  67.576  1.00  0.00    -0.130 C  
HETATM   13  C   UNL     1      -8.709  14.741  69.174  1.00  0.00    -0.085 C  
HETATM   14  H   UNL     1      -9.676  13.495  64.984  1.00  0.00     0.000 HD 
HETATM   15  O   UNL     1      -7.402  14.879  68.865  1.00  0.00    -0.118 OA 
HETATM   16  C   UNL     1     -12.418  11.624  68.813  1.00  0.00     0.460 A  
HETATM   17  O   UNL     1      -9.078  15.035  70.303  1.00  0.00     0.334 OA 
HETATM   18  C   UNL     1     -12.555  10.284  69.220  1.00  0.00     0.753 A  
ENDROOT
BRANCH  10  19
HETATM   19  N   UNL     1      -9.320   9.725  70.942  1.00  0.00    -0.211 N  
HETATM   20  H   UNL     1      -8.417  10.192  71.036  1.00  0.00     0.000 HD 
BRANCH  19  21
HETATM   21  S   UNL     1      -9.546   8.133  71.554  1.00  0.00    -0.188 S  
HETATM   22  O   UNL     1      -8.644   7.989  72.684  1.00  0.00    -0.144 OA 
HETATM   23  O   UNL     1     -10.972   7.929  71.724  1.00  0.00    -0.231 OA 
BRANCH  21  24
HETATM   24  C   UNL     1      -9.014   7.011  70.272  1.00  0.00    -0.149 A  
HETATM   25  C   UNL     1      -8.987   5.983  68.083  1.00  0.00    -0.112 A  
HETATM   26  N   UNL     1      -7.847   6.464  70.559  1.00  0.00    -0.105 NA 
HETATM   27  F   UNL     1      -8.083   3.478  66.952  1.00  0.00    -0.085 F  
HETATM   28  C   UNL     1      -7.193   4.466  67.275  1.00  0.00    -0.069 C  
HETATM   29  F   UNL     1      -6.960   5.140  66.110  1.00  0.00    -0.059 F  
HETATM   30  C   UNL     1      -7.284   5.720  69.585  1.00  0.00    -0.069 A  
HETATM   31  F   UNL     1      -6.054   3.771  67.496  1.00  0.00    -0.025 F  
HETATM   32  C   UNL     1      -7.776   5.383  68.327  1.00  0.00    -0.081 A  
HETATM   33  C   UNL     1      -9.617   6.815  69.033  1.00  0.00    -0.135 A  
ENDBRANCH  21  24
ENDBRANCH  19  21
ENDBRANCH  10  19
BRANCH  12  34
HETATM   34  C   UNL     1      -6.380  16.131  67.065  1.00  0.00    -0.075 C  
BRANCH  34  35
HETATM   35  C   UNL     1      -6.396  17.161  68.216  1.00  0.00    -0.149 C  
BRANCH  35  36
HETATM   36  C   UNL     1      -7.440  18.191  67.992  1.00  0.00    -0.242 A  
HETATM   37  C   UNL     1      -9.416  18.985  66.893  1.00  0.00    -0.355 A  
HETATM   38  C   UNL     1      -8.493  17.960  67.113  1.00  0.00    -0.242 A  
HETATM   39  C   UNL     1      -8.236  20.407  68.447  1.00  0.00     0.188 A  
HETATM   40  C   UNL     1      -9.292  20.195  67.559  1.00  0.00    -0.507 A  
HETATM   41  C   UNL     1      -7.310  19.399  68.666  1.00  0.00    -0.375 A  
ENDBRANCH  35  36
ENDBRANCH  34  35
ENDBRANCH  12  34
BRANCH  12  42
HETATM   42  C   UNL     1      -5.438  13.861  67.836  1.00  0.00    -0.091 C  
BRANCH  42  43
HETATM   43  C   UNL     1      -5.569  12.336  67.618  1.00  0.00    -0.107 C  
HETATM   44  C   UNL     1      -5.286  11.670  66.272  1.00  0.00     0.060 C  
ENDBRANCH  42  43
ENDBRANCH  12  42
TORSDOF 8
ENDMDL
MODEL      167
REMARK 921   NORMALIZED FREE ENERGY PREDICTED BY IDOCK:    0.08 KCAL/MOL
REMARK 922        TOTAL FREE ENERGY PREDICTED BY IDOCK:   -1.88 KCAL/MOL
REMARK 923 INTER-LIGAND FREE ENERGY PREDICTED BY IDOCK:   -0.64 KCAL/MOL
REMARK 924 INTRA-LIGAND FREE ENERGY PREDICTED BY IDOCK:   -1.24 KCAL/MOL
REMARK 927      BINDING AFFINITY PREDICTED BY RF-SCORE:    0.00 PKD
ROOT
HETATM    1  C   UNL     1      -9.422  14.567  69.921  1.00  0.00     0.665 C  
HETATM    2  C   UNL     1      -9.014  15.936  69.314  1.00  0.00    -0.251 A  
HETATM    3  C   UNL     1     -10.711  14.597  70.766  1.00  0.00     0.372 C  
HETATM    4  C   UNL     1      -9.401  13.369  68.917  1.00  0.00     0.211 C  
HETATM    5  C   UNL     1     -10.671  15.496  71.991  1.00  0.00     0.654 C  
HETATM    6  C   UNL     1      -9.383  16.343  68.018  1.00  0.00    -0.216 A  
HETATM    7  C   UNL     1      -8.339  12.554  68.738  1.00  0.00     0.136 C  
HETATM    8  O   UNL     1      -7.155  12.732  69.436  1.00  0.00    -0.310 OA 
HETATM    9  C   UNL     1      -8.227  11.524  67.598  1.00  0.00    -0.131 C  
HETATM   10  C   UNL     1      -8.880  17.529  67.439  1.00  0.00    -0.229 A  
HETATM   11  C   UNL     1      -8.066  18.375  68.177  1.00  0.00    -0.305 A  
HETATM   12  C   UNL     1      -9.478  11.299  66.750  1.00  0.00    -0.179 C  
HETATM   13  C   UNL     1     -10.615  13.092  68.100  1.00  0.00    -0.245 C  
HETATM   14  H   UNL     1      -6.408  12.158  69.310  1.00  0.00     0.000 HD 
HETATM   15  O   UNL     1     -10.555  12.201  67.087  1.00  0.00    -0.219 OA 
HETATM   16  C   UNL     1      -8.210  16.835  70.050  1.00  0.00     1.640 A  
HETATM   17  O   UNL     1     -11.672  13.675  68.305  1.00  0.00    -0.321 OA 
HETATM   18  C   UNL     1      -7.759  18.047  69.495  1.00  0.00     0.420 A  
ENDROOT
BRANCH  10  19
HETATM   19  N   UNL     1      -9.116  17.805  66.053  1.00  0.00    -0.087 N  
HETATM   20  H   UNL     1      -8.338  18.015  65.427  1.00  0.00     0.000 HD 
BRANCH  19  21
HETATM   21  S   UNL     1     -10.731  17.780  65.459  1.00  0.00     0.248 S  
HETATM   22  O   UNL     1     -11.601  17.945  66.611  1.00  0.00     1.152 OA 
HETATM   23  O   UNL     1     -10.802  18.707  64.347  1.00  0.00     0.985 OA 
BRANCH  21  24
HETATM   24  C   UNL     1     -11.004  16.148  64.788  1.00  0.00    -0.313 A  
HETATM   25  C   UNL     1     -10.673  13.768  64.518  1.00  0.00    -0.405 A  
HETATM   26  N   UNL     1     -12.147  16.078  64.130  1.00  0.00    -0.697 NA 
HETATM   27  F   UNL     1     -11.214  11.792  62.475  1.00  0.00     0.220 F  
HETATM   28  C   UNL     1     -12.218  12.277  63.268  1.00  0.00    -0.423 C  
HETATM   29  F   UNL     1     -12.362  11.359  64.271  1.00  0.00    -0.159 F  
HETATM   30  C   UNL     1     -12.520  14.851  63.716  1.00  0.00     0.423 A  
HETATM   31  F   UNL     1     -13.313  12.102  62.492  1.00  0.00     0.172 F  
HETATM   32  C   UNL     1     -11.849  13.635  63.822  1.00  0.00    -0.373 A  
HETATM   33  C   UNL     1     -10.238  15.010  65.026  1.00  0.00    -0.349 A  
ENDBRANCH  21  24
ENDBRANCH  19  21
ENDBRANCH  10  19
BRANCH  12  34
HETATM   34  C   UNL     1      -9.899   9.873  67.135  1.00  0.00    -0.235 C  
BRANCH  34  35
HETATM   35  C   UNL     1      -9.622   9.604  68.631  1.00  0.00    -0.154 C  
BRANCH  35  36
HETATM   36  C   UNL     1     -10.080   8.248  69.019  1.00  0.00    -0.208 A  
HETATM   37  C   UNL     1     -10.711   6.627  70.668  1.00  0.00    -0.286 A  
HETATM   38  C   UNL     1     -10.339   7.935  70.350  1.00  0.00    -0.212 A  
HETATM   39  C   UNL     1     -10.588   6.004  68.339  1.00  0.00    -0.322 A  
HETATM   40  C   UNL     1     -10.840   5.673  69.671  1.00  0.00    -0.365 A  
HETATM   41  C   UNL     1     -10.211   7.298  68.013  1.00  0.00    -0.225 A  
ENDBRANCH  35  36
ENDBRANCH  34  35
ENDBRANCH  12  34
BRANCH  12  42
HETATM   42  C   UNL     1      -9.300  11.405  65.152  1.00  0.00    -0.172 C  
BRANCH  42  43
HETATM   43  C   UNL     1      -9.359  10.074  64.368  1.00  0.00    -0.348 C  
HETATM   44  C   UNL     1      -8.620   9.865  63.047  1.00  0.00    -0.197 C  
ENDBRANCH  42  43
ENDBRANCH  12  42
TORSDOF 8
ENDMDL
MODEL      168
REMARK 921   NORMALIZED FREE ENERGY PREDICTED BY IDOCK:    0.17 KCAL/MOL
REMARK 922        TOTAL FREE ENERGY PREDICTED BY IDOCK:   -1.74 KCAL/MOL
REMARK 923 INTER-LIGAND FREE ENERGY PREDICTED BY IDOCK:   -1.52 KCAL/MOL
REMARK 924 INTRA-LIGAND FREE ENERGY PREDICTED BY IDOCK:   -0.22 KCAL/MOL
REMARK 927      BINDING AFFINITY PREDICTED BY RF-SCORE:    0.00 PKD
ROOT
HETATM    1  C   UNL     1      -7.073  15.034  67.756  1.00  0.00    -0.189 C  
HETATM    2  C   UNL     1      -6.722  13.543  67.506  1.00  0.00    -0.144 A  
HETATM    3  C   UNL     1      -6.647  15.993  66.626  1.00  0.00     0.409 C  
HETATM    4  C   UNL     1      -8.538  15.295  68.232  1.00  0.00    -0.159 C  
HETATM    5  C   UNL     1      -5.154  16.052  66.345  1.00  0.00     1.418 C  
HETATM    6  C   UNL     1      -7.622  12.628  66.928  1.00  0.00     0.113 A  
HETATM    7  C   UNL     1      -8.907  15.376  69.529  1.00  0.00    -0.217 C  
HETATM    8  O   UNL     1      -7.994  15.215  70.560  1.00  0.00     0.124 OA 
HETATM    9  C   UNL     1     -10.370  15.403  70.008  1.00  0.00    -0.288 C  
HETATM   10  C   UNL     1      -7.330  11.248  66.844  1.00  0.00    -0.145 A  
HETATM   11  C   UNL     1      -6.096  10.770  67.257  1.00  0.00    -0.056 A  
HETATM   12  C   UNL     1     -11.444  15.535  68.929  1.00  0.00    -0.354 C  
HETATM   13  C   UNL     1      -9.608  15.469  67.210  1.00  0.00    -0.213 C  
HETATM   14  H   UNL     1      -8.254  15.272  71.472  1.00  0.00     0.000 HD 
HETATM   15  O   UNL     1     -10.903  15.491  67.590  1.00  0.00    -0.292 OA 
HETATM   16  C   UNL     1      -5.462  13.029  67.887  1.00  0.00    -0.116 A  
HETATM   17  O   UNL     1      -9.345  15.568  66.019  1.00  0.00    -0.316 OA 
HETATM   18  C   UNL     1      -5.148  11.665  67.747  1.00  0.00    -0.052 A  
ENDROOT
BRANCH  10  19
HETATM   19  N   UNL     1      -8.347  10.325  66.437  1.00  0.00    -0.128 N  
HETATM   20  H   UNL     1      -8.399  10.007  65.469  1.00  0.00     0.000 HD 
BRANCH  19  21
HETATM   21  S   UNL     1      -9.479   9.760  67.604  1.00  0.00    -0.145 S  
HETATM   22  O   UNL     1      -9.054  10.291  68.887  1.00  0.00    -0.149 OA 
HETATM   23  O   UNL     1     -10.808  10.042  67.096  1.00  0.00    -0.243 OA 
BRANCH  21  24
HETATM   24  C   UNL     1      -9.316   7.983  67.657  1.00  0.00    -0.143 A  
HETATM   25  C   UNL     1      -9.264   5.725  66.794  1.00  0.00    -0.135 A  
HETATM   26  N   UNL     1      -8.753   7.581  68.783  1.00  0.00    -0.129 NA 
HETATM   27  F   UNL     1      -9.587   3.059  67.870  1.00  0.00    -0.243 F  
HETATM   28  C   UNL     1      -8.430   3.762  68.068  1.00  0.00    -0.094 C  
HETATM   29  F   UNL     1      -7.571   3.326  67.099  1.00  0.00    -0.070 F  
HETATM   30  C   UNL     1      -8.444   6.270  68.857  1.00  0.00    -0.120 A  
HETATM   31  F   UNL     1      -7.952   3.218  69.211  1.00  0.00    -0.050 F  
HETATM   32  C   UNL     1      -8.683   5.248  67.943  1.00  0.00    -0.102 A  
HETATM   33  C   UNL     1      -9.573   7.090  66.621  1.00  0.00    -0.220 A  
ENDBRANCH  21  24
ENDBRANCH  19  21
ENDBRANCH  10  19
BRANCH  12  34
HETATM   34  C   UNL     1     -12.008  16.942  69.180  1.00  0.00     1.289 C  
BRANCH  34  35
HETATM   35  C   UNL     1     -11.799  17.845  67.944  1.00  0.00     1.975 C  
BRANCH  35  36
HETATM   36  C   UNL     1     -10.472  18.506  67.990  1.00  0.00    -0.395 A  
HETATM   37  C   UNL     1      -8.383  18.968  69.068  1.00  0.00    -0.215 A  
HETATM   38  C   UNL     1      -9.595  18.275  69.044  1.00  0.00    -0.179 A  
HETATM   39  C   UNL     1      -8.942  20.060  66.989  1.00  0.00    -0.445 A  
HETATM   40  C   UNL     1      -8.057  19.847  68.047  1.00  0.00    -0.307 A  
HETATM   41  C   UNL     1     -10.152  19.383  66.959  1.00  0.00    -0.492 A  
ENDBRANCH  35  36
ENDBRANCH  34  35
ENDBRANCH  12  34
BRANCH  12  42
HETATM   42  C   UNL     1     -12.638  14.454  68.957  1.00  0.00     0.235 C  
BRANCH  42  43
HETATM   43  C   UNL     1     -12.892  13.749  70.309  1.00  0.00    -0.093 C  
HETATM   44  C   UNL     1     -13.641  14.421  71.458  1.00  0.00    -0.445 C  
ENDBRANCH  42  43
ENDBRANCH  12  42
TORSDOF 8
ENDMDL
MODEL      169
REMARK 921   NORMALIZED FREE ENERGY PREDICTED BY IDOCK:    0.17 KCAL/MOL
REMARK 922        TOTAL FREE ENERGY PREDICTED BY IDOCK:   -1.74 KCAL/MOL
REMARK 923 INTER-LIGAND FREE ENERGY PREDICTED BY IDOCK:   -6.84 KCAL/MOL
REMARK 924 INTRA-LIGAND FREE ENERGY PREDICTED BY IDOCK:    5.10 KCAL/MOL
REMARK 927      BINDING AFFINITY PREDICTED BY RF-SCORE:    0.00 PKD
ROOT
HETATM    1  C   UNL     1     -11.522  13.666  64.943  1.00  0.00    -0.352 C  
HETATM    2  C   UNL     1     -10.479  12.518  64.897  1.00  0.00    -0.328 A  
HETATM    3  C   UNL     1     -12.977  13.204  65.156  1.00  0.00    -0.199 C  
HETATM    4  C   UNL     1     -11.141  14.865  65.871  1.00  0.00    -0.338 C  
HETATM    5  C   UNL     1     -13.541  12.296  64.075  1.00  0.00     0.961 C  
HETATM    6  C   UNL     1      -9.759  12.087  66.027  1.00  0.00    -0.256 A  
HETATM    7  C   UNL     1     -10.493  15.972  65.445  1.00  0.00    -0.392 C  
HETATM    8  O   UNL     1     -10.094  16.124  64.127  1.00  0.00     0.706 OA 
HETATM    9  C   UNL     1      -9.915  17.045  66.386  1.00  0.00    -0.318 C  
HETATM   10  C   UNL     1      -8.714  11.141  65.928  1.00  0.00    -0.164 A  
HETATM   11  C   UNL     1      -8.428  10.543  64.710  1.00  0.00    -0.150 A  
HETATM   12  C   UNL     1     -10.271  16.925  67.868  1.00  0.00    -0.308 C  
HETATM   13  C   UNL     1     -11.506  14.804  67.314  1.00  0.00    -0.366 C  
HETATM   14  H   UNL     1      -9.639  16.902  63.828  1.00  0.00     0.000 HD 
HETATM   15  O   UNL     1     -11.014  15.724  68.171  1.00  0.00    -0.303 OA 
HETATM   16  C   UNL     1     -10.183  11.867  63.678  1.00  0.00    -0.466 A  
HETATM   17  O   UNL     1     -12.228  13.919  67.755  1.00  0.00    -0.338 OA 
HETATM   18  C   UNL     1      -9.185  10.880  63.591  1.00  0.00    -0.242 A  
ENDROOT
BRANCH  10  19
HETATM   19  N   UNL     1      -7.876  10.879  67.060  1.00  0.00    -0.126 N  
HETATM   20  H   UNL     1      -7.736  11.593  67.776  1.00  0.00     0.000 HD 
BRANCH  19  21
HETATM   21  S   UNL     1      -7.110   9.344  67.196  1.00  0.00    -0.087 S  
HETATM   22  O   UNL     1      -7.857   8.430  66.349  1.00  0.00    -0.095 OA 
HETATM   23  O   UNL     1      -5.689   9.545  66.985  1.00  0.00    -0.049 OA 
BRANCH  21  24
HETATM   24  C   UNL     1      -7.310   8.820  68.891  1.00  0.00    -0.078 A  
HETATM   25  C   UNL     1      -7.144   8.961  71.299  1.00  0.00    -0.103 A  
HETATM   26  N   UNL     1      -8.181   7.832  68.994  1.00  0.00    -0.125 NA 
HETATM   27  F   UNL     1      -7.188   7.105  73.517  1.00  0.00    -0.073 F  
HETATM   28  C   UNL     1      -8.342   7.456  72.871  1.00  0.00    -0.113 C  
HETATM   29  F   UNL     1      -8.890   8.456  73.625  1.00  0.00    -0.307 F  
HETATM   30  C   UNL     1      -8.519   7.467  70.247  1.00  0.00    -0.138 A  
HETATM   31  F   UNL     1      -9.140   6.387  73.098  1.00  0.00    -0.130 F  
HETATM   32  C   UNL     1      -8.040   7.934  71.468  1.00  0.00    -0.117 A  
HETATM   33  C   UNL     1      -6.777   9.433  70.021  1.00  0.00    -0.063 A  
ENDBRANCH  21  24
ENDBRANCH  19  21
ENDBRANCH  10  19
BRANCH  12  34
HETATM   34  C   UNL     1     -11.189  18.136  68.096  1.00  0.00     0.507 C  
BRANCH  34  35
HETATM   35  C   UNL     1     -10.383  19.453  68.050  1.00  0.00    -0.536 C  
BRANCH  35  36
HETATM   36  C   UNL     1      -8.978  19.201  67.650  1.00  0.00    -0.337 A  
HETATM   37  C   UNL     1      -6.667  18.845  68.175  1.00  0.00    -0.249 A  
HETATM   38  C   UNL     1      -7.984  19.020  68.606  1.00  0.00    -0.387 A  
HETATM   39  C   UNL     1      -7.378  18.997  65.873  1.00  0.00    -0.268 A  
HETATM   40  C   UNL     1      -6.369  18.827  66.821  1.00  0.00    -0.202 A  
HETATM   41  C   UNL     1      -8.688  19.181  66.290  1.00  0.00    -0.304 A  
ENDBRANCH  35  36
ENDBRANCH  34  35
ENDBRANCH  12  34
BRANCH  12  42
HETATM   42  C   UNL     1      -9.047  16.962  68.914  1.00  0.00    -0.223 C  
BRANCH  42  43
HETATM   43  C   UNL     1      -8.412  15.599  69.273  1.00  0.00    -0.265 C  
HETATM   44  C   UNL     1      -7.705  14.724  68.239  1.00  0.00    -0.120 C  
ENDBRANCH  42  43
ENDBRANCH  12  42
TORSDOF 8
ENDMDL
MODEL      170
REMARK 921   NORMALIZED FREE ENERGY PREDICTED BY IDOCK:    0.23 KCAL/MOL
REMARK 922        TOTAL FREE ENERGY PREDICTED BY IDOCK:   -1.66 KCAL/MOL
REMARK 923 INTER-LIGAND FREE ENERGY PREDICTED BY IDOCK:   -0.31 KCAL/MOL
REMARK 924 INTRA-LIGAND FREE ENERGY PREDICTED BY IDOCK:   -1.35 KCAL/MOL
REMARK 927      BINDING AFFINITY PREDICTED BY RF-SCORE:    0.00 PKD
ROOT
HETATM    1  C   UNL     1      -9.134  14.144  69.872  1.00  0.00     1.342 C  
HETATM    2  C   UNL     1      -8.017  15.195  69.634  1.00  0.00    -0.113 A  
HETATM    3  C   UNL     1     -10.454  14.722  70.422  1.00  0.00     0.210 C  
HETATM    4  C   UNL     1      -9.372  13.155  68.686  1.00  0.00     0.008 C  
HETATM    5  C   UNL     1     -10.356  15.405  71.777  1.00  0.00     1.340 C  
HETATM    6  C   UNL     1      -7.801  15.819  68.392  1.00  0.00    -0.136 A  
HETATM    7  C   UNL     1      -8.773  11.948  68.579  1.00  0.00    -0.108 C  
HETATM    8  O   UNL     1      -7.872  11.492  69.527  1.00  0.00    -0.349 OA 
HETATM    9  C   UNL     1      -8.822  11.073  67.312  1.00  0.00    -0.135 C  
HETATM   10  C   UNL     1      -6.690  16.662  68.165  1.00  0.00    -0.144 A  
HETATM   11  C   UNL     1      -5.822  16.966  69.202  1.00  0.00    -0.164 A  
HETATM   12  C   UNL     1      -9.760  11.530  66.196  1.00  0.00    -0.223 C  
HETATM   13  C   UNL     1     -10.310  13.547  67.597  1.00  0.00    -0.239 C  
HETATM   14  H   UNL     1      -7.451  10.644  69.453  1.00  0.00     0.000 HD 
HETATM   15  O   UNL     1     -10.376  12.808  66.469  1.00  0.00    -0.245 OA 
HETATM   16  C   UNL     1      -7.133  15.550  70.678  1.00  0.00     0.927 A  
HETATM   17  O   UNL     1     -11.013  14.545  67.686  1.00  0.00    -0.274 OA 
HETATM   18  C   UNL     1      -6.062  16.438  70.469  1.00  0.00     0.254 A  
ENDROOT
BRANCH  10  19
HETATM   19  N   UNL     1      -6.394  17.116  66.838  1.00  0.00    -0.182 N  
HETATM   20  H   UNL     1      -5.561  16.782  66.352  1.00  0.00     0.000 HD 
BRANCH  19  21
HETATM   21  S   UNL     1      -7.462  18.230  66.078  1.00  0.00    -0.175 S  
HETATM   22  O   UNL     1      -7.774  19.248  67.066  1.00  0.00    -0.238 OA 
HETATM   23  O   UNL     1      -6.875  18.599  64.804  1.00  0.00    -0.334 OA 
BRANCH  21  24
HETATM   24  C   UNL     1      -8.962  17.334  65.713  1.00  0.00     0.225 A  
HETATM   25  C   UNL     1     -11.311  17.029  65.222  1.00  0.00     0.509 A  
HETATM   26  N   UNL     1      -8.707  16.095  65.331  1.00  0.00     0.365 NA 
HETATM   27  F   UNL     1     -13.233  14.877  65.419  1.00  0.00    -0.079 F  
HETATM   28  C   UNL     1     -12.304  14.900  64.415  1.00  0.00    -0.323 C  
HETATM   29  F   UNL     1     -12.944  15.448  63.340  1.00  0.00     0.458 F  
HETATM   30  C   UNL     1      -9.761  15.382  64.885  1.00  0.00     0.463 A  
HETATM   31  F   UNL     1     -12.181  13.589  64.102  1.00  0.00    -0.421 F  
HETATM   32  C   UNL     1     -11.107  15.733  64.819  1.00  0.00    -0.413 A  
HETATM   33  C   UNL     1     -10.251  17.855  65.656  1.00  0.00     0.008 A  
ENDBRANCH  21  24
ENDBRANCH  19  21
ENDBRANCH  10  19
BRANCH  12  34
HETATM   34  C   UNL     1     -10.854  10.451  66.208  1.00  0.00    -0.022 C  
BRANCH  34  35
HETATM   35  C   UNL     1     -10.514   9.335  67.222  1.00  0.00    -0.334 C  
BRANCH  35  36
HETATM   36  C   UNL     1     -11.046   9.662  68.567  1.00  0.00    -0.091 A  
HETATM   37  C   UNL     1     -12.436  10.957  70.027  1.00  0.00    -0.332 A  
HETATM   38  C   UNL     1     -12.012  10.649  68.732  1.00  0.00    -0.069 A  
HETATM   39  C   UNL     1     -10.958   9.277  70.933  1.00  0.00    -0.368 A  
HETATM   40  C   UNL     1     -11.919  10.274  71.116  1.00  0.00    -0.472 A  
HETATM   41  C   UNL     1     -10.524   8.968  69.653  1.00  0.00    -0.227 A  
ENDBRANCH  35  36
ENDBRANCH  34  35
ENDBRANCH  12  34
BRANCH  12  42
HETATM   42  C   UNL     1      -9.128  11.652  64.720  1.00  0.00     0.195 C  
BRANCH  42  43
HETATM   43  C   UNL     1      -9.062  10.347  63.894  1.00  0.00    -0.272 C  
HETATM   44  C   UNL     1      -7.931   9.331  64.052  1.00  0.00    -0.137 C  
ENDBRANCH  42  43
ENDBRANCH  12  42
TORSDOF 8
ENDMDL
MODEL      171
REMARK 921   NORMALIZED FREE ENERGY PREDICTED BY IDOCK:    0.29 KCAL/MOL
REMARK 922        TOTAL FREE ENERGY PREDICTED BY IDOCK:   -1.57 KCAL/MOL
REMARK 923 INTER-LIGAND FREE ENERGY PREDICTED BY IDOCK:   -2.86 KCAL/MOL
REMARK 924 INTRA-LIGAND FREE ENERGY PREDICTED BY IDOCK:    1.29 KCAL/MOL
REMARK 927      BINDING AFFINITY PREDICTED BY RF-SCORE:    0.00 PKD
ROOT
HETATM    1  C   UNL     1     -11.306   9.915  68.870  1.00  0.00    -0.060 C  
HETATM    2  C   UNL     1     -10.740   8.716  68.063  1.00  0.00    -0.137 A  
HETATM    3  C   UNL     1     -11.505   9.640  70.374  1.00  0.00    -0.325 C  
HETATM    4  C   UNL     1     -10.593  11.281  68.609  1.00  0.00    -0.231 C  
HETATM    5  C   UNL     1     -12.486   8.529  70.713  1.00  0.00     0.113 C  
HETATM    6  C   UNL     1      -9.367   8.540  67.809  1.00  0.00    -0.153 A  
HETATM    7  C   UNL     1     -11.005  12.183  67.691  1.00  0.00    -0.243 C  
HETATM    8  O   UNL     1     -12.108  11.954  66.884  1.00  0.00    -0.599 OA 
HETATM    9  C   UNL     1     -10.185  13.416  67.268  1.00  0.00    -0.241 C  
HETATM   10  C   UNL     1      -8.893   7.522  66.952  1.00  0.00    -0.135 A  
HETATM   11  C   UNL     1      -9.777   6.606  66.402  1.00  0.00    -0.128 A  
HETATM   12  C   UNL     1      -8.925  13.716  68.081  1.00  0.00    -0.191 C  
HETATM   13  C   UNL     1      -9.385  11.628  69.408  1.00  0.00     0.711 C  
HETATM   14  H   UNL     1     -12.398  12.588  66.239  1.00  0.00     0.000 HD 
HETATM   15  O   UNL     1      -8.636  12.698  69.064  1.00  0.00     0.241 OA 
HETATM   16  C   UNL     1     -11.610   7.748  67.513  1.00  0.00     1.578 A  
HETATM   17  O   UNL     1      -9.032  10.949  70.363  1.00  0.00     1.198 OA 
HETATM   18  C   UNL     1     -11.132   6.696  66.710  1.00  0.00    -0.193 A  
ENDROOT
BRANCH  10  19
HETATM   19  N   UNL     1      -7.515   7.499  66.560  1.00  0.00    -0.083 N  
HETATM   20  H   UNL     1      -7.237   7.083  65.671  1.00  0.00     0.000 HD 
BRANCH  19  21
HETATM   21  S   UNL     1      -6.336   8.184  67.610  1.00  0.00    -0.054 S  
HETATM   22  O   UNL     1      -5.125   7.399  67.444  1.00  0.00    -0.022 OA 
HETATM   23  O   UNL     1      -6.321   9.615  67.377  1.00  0.00    -0.066 OA 
BRANCH  21  24
HETATM   24  C   UNL     1      -6.931   7.940  69.276  1.00  0.00    -0.056 A  
HETATM   25  C   UNL     1      -7.417   8.519  71.573  1.00  0.00    -0.123 A  
HETATM   26  N   UNL     1      -7.713   6.879  69.363  1.00  0.00    -0.103 NA 
HETATM   27  F   UNL     1      -7.889   7.087  74.042  1.00  0.00    -0.106 F  
HETATM   28  C   UNL     1      -8.857   7.165  73.079  1.00  0.00    -0.127 C  
HETATM   29  F   UNL     1      -9.666   8.199  73.459  1.00  0.00    -0.339 F  
HETATM   30  C   UNL     1      -8.337   6.696  70.544  1.00  0.00    -0.130 A  
HETATM   31  F   UNL     1      -9.594   6.055  73.317  1.00  0.00    -0.142 F  
HETATM   32  C   UNL     1      -8.238   7.428  71.724  1.00  0.00    -0.107 A  
HETATM   33  C   UNL     1      -6.768   8.806  70.354  1.00  0.00    -0.043 A  
ENDBRANCH  21  24
ENDBRANCH  19  21
ENDBRANCH  10  19
BRANCH  12  34
HETATM   34  C   UNL     1      -9.296  15.012  68.817  1.00  0.00    -0.200 C  
BRANCH  34  35
HETATM   35  C   UNL     1     -10.690  15.514  68.378  1.00  0.00    -0.263 C  
BRANCH  35  36
HETATM   36  C   UNL     1     -10.584  16.794  67.638  1.00  0.00    -0.325 A  
HETATM   37  C   UNL     1     -10.690  19.186  67.536  1.00  0.00    -0.555 A  
HETATM   38  C   UNL     1     -10.741  18.012  68.291  1.00  0.00    -0.208 A  
HETATM   39  C   UNL     1     -10.296  17.903  65.529  1.00  0.00     0.075 A  
HETATM   40  C   UNL     1     -10.463  19.132  66.170  1.00  0.00    -0.558 A  
HETATM   41  C   UNL     1     -10.353  16.731  66.268  1.00  0.00    -0.316 A  
ENDBRANCH  35  36
ENDBRANCH  34  35
ENDBRANCH  12  34
BRANCH  12  42
HETATM   42  C   UNL     1      -7.560  13.928  67.253  1.00  0.00    -0.079 C  
BRANCH  42  43
HETATM   43  C   UNL     1      -6.570  12.741  67.249  1.00  0.00    -0.083 C  
HETATM   44  C   UNL     1      -6.029  12.119  68.535  1.00  0.00    -0.053 C  
ENDBRANCH  42  43
ENDBRANCH  12  42
TORSDOF 8
ENDMDL
MODEL      172
REMARK 921   NORMALIZED FREE ENERGY PREDICTED BY IDOCK:    0.36 KCAL/MOL
REMARK 922        TOTAL FREE ENERGY PREDICTED BY IDOCK:   -1.47 KCAL/MOL
REMARK 923 INTER-LIGAND FREE ENERGY PREDICTED BY IDOCK:   -2.47 KCAL/MOL
REMARK 924 INTRA-LIGAND FREE ENERGY PREDICTED BY IDOCK:    1.01 KCAL/MOL
REMARK 927      BINDING AFFINITY PREDICTED BY RF-SCORE:    0.00 PKD
ROOT
HETATM    1  C   UNL     1      -7.356   7.404  68.345  1.00  0.00    -0.103 C  
HETATM    2  C   UNL     1      -6.958   6.897  69.757  1.00  0.00    -0.062 A  
HETATM    3  C   UNL     1      -7.639   6.289  67.318  1.00  0.00    -0.093 C  
HETATM    4  C   UNL     1      -8.455   8.515  68.330  1.00  0.00    -0.138 C  
HETATM    5  C   UNL     1      -6.471   5.366  67.014  1.00  0.00    -0.044 C  
HETATM    6  C   UNL     1      -7.886   6.717  70.799  1.00  0.00    -0.101 A  
HETATM    7  C   UNL     1      -8.189   9.839  68.324  1.00  0.00    -0.105 C  
HETATM    8  O   UNL     1      -6.891  10.324  68.347  1.00  0.00    -0.060 OA 
HETATM    9  C   UNL     1      -9.253  10.932  68.540  1.00  0.00    -0.181 C  
HETATM   10  C   UNL     1      -7.478   6.393  72.112  1.00  0.00    -0.093 A  
HETATM   11  C   UNL     1      -6.140   6.157  72.388  1.00  0.00    -0.038 A  
HETATM   12  C   UNL     1     -10.711  10.476  68.573  1.00  0.00    -0.224 C  
HETATM   13  C   UNL     1      -9.889   8.110  68.321  1.00  0.00    -0.171 C  
HETATM   14  H   UNL     1      -6.703  11.256  68.342  1.00  0.00     0.000 HD 
HETATM   15  O   UNL     1     -10.851   9.038  68.514  1.00  0.00    -0.139 OA 
HETATM   16  C   UNL     1      -5.607   6.618  70.064  1.00  0.00    -0.018 A  
HETATM   17  O   UNL     1     -10.224   6.943  68.168  1.00  0.00    -0.159 OA 
HETATM   18  C   UNL     1      -5.207   6.235  71.357  1.00  0.00    -0.021 A  
ENDROOT
BRANCH  10  19
HETATM   19  N   UNL     1      -8.428   6.417  73.184  1.00  0.00    -0.119 N  
HETATM   20  H   UNL     1      -8.262   6.993  74.010  1.00  0.00     0.000 HD 
BRANCH  19  21
HETATM   21  S   UNL     1      -9.854   5.461  73.059  1.00  0.00    -0.164 S  
HETATM   22  O   UNL     1      -9.865   4.577  74.212  1.00  0.00    -0.133 OA 
HETATM   23  O   UNL     1     -10.964   6.361  72.814  1.00  0.00    -0.239 OA 
BRANCH  21  24
HETATM   24  C   UNL     1      -9.671   4.458  71.593  1.00  0.00    -0.171 A  
HETATM   25  C   UNL     1      -9.641   2.434  70.270  1.00  0.00    -0.096 A  
HETATM   26  N   UNL     1      -9.696   5.192  70.496  1.00  0.00    -0.179 NA 
HETATM   27  F   UNL     1      -8.479   1.585  67.761  1.00  0.00    -0.063 F  
HETATM   28  C   UNL     1      -9.584   2.391  67.787  1.00  0.00     0.028 C  
HETATM   29  F   UNL     1     -10.651   1.549  67.641  1.00  0.00     1.082 F  
HETATM   30  C   UNL     1      -9.720   4.517  69.329  1.00  0.00    -0.190 A  
HETATM   31  F   UNL     1      -9.501   3.038  66.601  1.00  0.00    -0.182 F  
HETATM   32  C   UNL     1      -9.661   3.145  69.095  1.00  0.00    -0.081 A  
HETATM   33  C   UNL     1      -9.664   3.068  71.530  1.00  0.00    -0.223 A  
ENDBRANCH  21  24
ENDBRANCH  19  21
ENDBRANCH  10  19
BRANCH  12  34
HETATM   34  C   UNL     1     -11.284  11.073  67.278  1.00  0.00    -0.330 C  
BRANCH  34  35
HETATM   35  C   UNL     1     -10.153  11.627  66.382  1.00  0.00    -0.246 C  
BRANCH  35  36
HETATM   36  C   UNL     1     -10.103  10.906  65.087  1.00  0.00    -0.352 A  
HETATM   37  C   UNL     1      -9.341   9.101  63.707  1.00  0.00     0.534 A  
HETATM   38  C   UNL     1      -9.406   9.708  64.963  1.00  0.00    -0.319 A  
HETATM   39  C   UNL     1     -10.686  10.869  62.760  1.00  0.00     0.586 A  
HETATM   40  C   UNL     1      -9.981   9.673  62.618  1.00  0.00     1.190 A  
HETATM   41  C   UNL     1     -10.750  11.484  64.001  1.00  0.00    -0.445 A  
ENDBRANCH  35  36
ENDBRANCH  34  35
ENDBRANCH  12  34
BRANCH  12  42
HETATM   42  C   UNL     1     -11.593  10.952  69.833  1.00  0.00    -0.410 C  
BRANCH  42  43
HETATM   43  C   UNL     1     -12.980  10.286  69.988  1.00  0.00     0.160 C  
HETATM   44  C   UNL     1     -13.460   9.687  71.309  1.00  0.00    -0.359 C  
ENDBRANCH  42  43
ENDBRANCH  12  42
TORSDOF 8
ENDMDL
MODEL      173
REMARK 921   NORMALIZED FREE ENERGY PREDICTED BY IDOCK:    0.96 KCAL/MOL
REMARK 922        TOTAL FREE ENERGY PREDICTED BY IDOCK:   -0.58 KCAL/MOL
REMARK 923 INTER-LIGAND FREE ENERGY PREDICTED BY IDOCK:   -0.48 KCAL/MOL
REMARK 924 INTRA-LIGAND FREE ENERGY PREDICTED BY IDOCK:   -0.10 KCAL/MOL
REMARK 927      BINDING AFFINITY PREDICTED BY RF-SCORE:    0.00 PKD
ROOT
HETATM    1  C   UNL     1     -11.425  15.481  65.549  1.00  0.00    -0.001 C  
HETATM    2  C   UNL     1     -10.552  16.758  65.679  1.00  0.00    -0.258 A  
HETATM    3  C   UNL     1     -11.868  15.150  64.110  1.00  0.00    -0.164 C  
HETATM    4  C   UNL     1     -10.874  14.227  66.301  1.00  0.00    -0.310 C  
HETATM    5  C   UNL     1     -12.729  16.202  63.430  1.00  0.00     3.620 C  
HETATM    6  C   UNL     1      -9.145  16.731  65.675  1.00  0.00     0.256 A  
HETATM    7  C   UNL     1     -11.226  13.889  67.561  1.00  0.00    -0.303 C  
HETATM    8  O   UNL     1     -12.110  14.654  68.304  1.00  0.00    -0.539 OA 
HETATM    9  C   UNL     1     -10.522  12.796  68.388  1.00  0.00    -0.253 C  
HETATM   10  C   UNL     1      -8.377  17.887  65.939  1.00  0.00     0.091 A  
HETATM   11  C   UNL     1      -9.002  19.111  66.126  1.00  0.00    -0.232 A  
HETATM   12  C   UNL     1      -9.496  11.933  67.653  1.00  0.00    -0.182 C  
HETATM   13  C   UNL     1      -9.903  13.337  65.605  1.00  0.00    -0.162 C  
HETATM   14  H   UNL     1     -12.358  14.417  69.190  1.00  0.00     0.000 HD 
HETATM   15  O   UNL     1      -9.260  12.372  66.297  1.00  0.00    -0.219 OA 
HETATM   16  C   UNL     1     -11.156  18.025  65.843  1.00  0.00     0.506 A  
HETATM   17  O   UNL     1      -9.648  13.475  64.416  1.00  0.00     0.135 OA 
HETATM   18  C   UNL     1     -10.390  19.188  66.044  1.00  0.00    -0.538 A  
ENDROOT
BRANCH  10  19
HETATM   19  N   UNL     1      -6.961  17.779  66.124  1.00  0.00    -0.278 N  
HETATM   20  H   UNL     1      -6.323  17.939  65.343  1.00  0.00     0.000 HD 
BRANCH  19  21
HETATM   21  S   UNL     1      -6.349  17.375  67.681  1.00  0.00    -0.154 S  
HETATM   22  O   UNL     1      -5.577  16.155  67.521  1.00  0.00    -0.136 OA 
HETATM   23  O   UNL     1      -5.734  18.567  68.231  1.00  0.00    -0.176 OA 
BRANCH  21  24
HETATM   24  C   UNL     1      -7.764  17.006  68.706  1.00  0.00    -0.249 A  
HETATM   25  C   UNL     1      -9.870  17.410  69.823  1.00  0.00     0.513 A  
HETATM   26  N   UNL     1      -7.882  15.708  68.921  1.00  0.00    -0.170 NA 
HETATM   27  F   UNL     1     -11.296  16.294  72.079  1.00  0.00    -0.435 F  
HETATM   28  C   UNL     1     -11.252  15.636  70.880  1.00  0.00    -0.369 C  
HETATM   29  F   UNL     1     -12.413  15.970  70.241  1.00  0.00    -0.372 F  
HETATM   30  C   UNL     1      -9.004  15.311  69.554  1.00  0.00    -0.183 A  
HETATM   31  F   UNL     1     -11.429  14.347  71.249  1.00  0.00    -0.310 F  
HETATM   32  C   UNL     1     -10.045  16.072  70.080  1.00  0.00    -0.040 A  
HETATM   33  C   UNL     1      -8.747  17.898  69.122  1.00  0.00     0.124 A  
ENDBRANCH  21  24
ENDBRANCH  19  21
ENDBRANCH  10  19
BRANCH  12  34
HETATM   34  C   UNL     1     -10.180  10.557  67.607  1.00  0.00    -0.234 C  
BRANCH  34  35
HETATM   35  C   UNL     1      -9.575   9.608  68.665  1.00  0.00    -0.154 C  
BRANCH  35  36
HETATM   36  C   UNL     1      -8.979   8.411  68.024  1.00  0.00    -0.138 A  
HETATM   37  C   UNL     1      -9.001   6.669  66.379  1.00  0.00    -0.161 A  
HETATM   38  C   UNL     1      -9.571   7.829  66.908  1.00  0.00    -0.256 A  
HETATM   39  C   UNL     1      -7.266   6.731  68.057  1.00  0.00    -0.091 A  
HETATM   40  C   UNL     1      -7.856   6.129  66.944  1.00  0.00    -0.104 A  
HETATM   41  C   UNL     1      -7.828   7.879  68.595  1.00  0.00    -0.119 A  
ENDBRANCH  35  36
ENDBRANCH  34  35
ENDBRANCH  12  34
BRANCH  12  42
HETATM   42  C   UNL     1      -8.042  11.798  68.331  1.00  0.00    -0.150 C  
BRANCH  42  43
HETATM   43  C   UNL     1      -7.798  12.644  69.602  1.00  0.00     1.245 C  
HETATM   44  C   UNL     1      -6.536  12.505  70.452  1.00  0.00     0.465 C  
ENDBRANCH  42  43
ENDBRANCH  12  42
TORSDOF 8
ENDMDL
MODEL      174
REMARK 921   NORMALIZED FREE ENERGY PREDICTED BY IDOCK:    1.04 KCAL/MOL
REMARK 922        TOTAL FREE ENERGY PREDICTED BY IDOCK:   -0.47 KCAL/MOL
REMARK 923 INTER-LIGAND FREE ENERGY PREDICTED BY IDOCK:    1.49 KCAL/MOL
REMARK 924 INTRA-LIGAND FREE ENERGY PREDICTED BY IDOCK:   -1.96 KCAL/MOL
REMARK 927      BINDING AFFINITY PREDICTED BY RF-SCORE:    0.00 PKD
ROOT
HETATM    1  C   UNL     1      -8.943  12.183  68.791  1.00  0.00     0.110 C  
HETATM    2  C   UNL     1      -8.377  13.608  69.033  1.00  0.00     0.271 A  
HETATM    3  C   UNL     1     -10.458  12.134  68.506  1.00  0.00    -0.248 C  
HETATM    4  C   UNL     1      -8.124  11.310  67.787  1.00  0.00    -0.119 C  
HETATM    5  C   UNL     1     -11.352  12.655  69.620  1.00  0.00    -0.174 C  
HETATM    6  C   UNL     1      -7.808  14.393  68.013  1.00  0.00    -0.141 A  
HETATM    7  C   UNL     1      -7.145  10.455  68.155  1.00  0.00    -0.082 C  
HETATM    8  O   UNL     1      -6.775  10.295  69.481  1.00  0.00    -0.054 OA 
HETATM    9  C   UNL     1      -6.184   9.769  67.166  1.00  0.00    -0.064 C  
HETATM   10  C   UNL     1      -7.171  15.624  68.287  1.00  0.00    -0.116 A  
HETATM   11  C   UNL     1      -7.167  16.135  69.576  1.00  0.00    -0.136 A  
HETATM   12  C   UNL     1      -6.496   9.933  65.679  1.00  0.00    -0.092 C  
HETATM   13  C   UNL     1      -8.425  11.412  66.331  1.00  0.00    -0.160 C  
HETATM   14  H   UNL     1      -6.087   9.693  69.741  1.00  0.00     0.000 HD 
HETATM   15  O   UNL     1      -7.602  10.829  65.433  1.00  0.00    -0.085 OA 
HETATM   16  C   UNL     1      -8.383  14.172  70.329  1.00  0.00     1.992 A  
HETATM   17  O   UNL     1      -9.393  12.037  65.920  1.00  0.00    -0.225 OA 
HETATM   18  C   UNL     1      -7.804  15.426  70.592  1.00  0.00     1.535 A  
ENDROOT
BRANCH  10  19
HETATM   19  N   UNL     1      -6.432  16.293  67.258  1.00  0.00    -0.177 N  
HETATM   20  H   UNL     1      -5.445  16.083  67.110  1.00  0.00     0.000 HD 
BRANCH  19  21
HETATM   21  S   UNL     1      -7.234  17.456  66.274  1.00  0.00    -0.304 S  
HETATM   22  O   UNL     1      -7.426  18.636  67.099  1.00  0.00    -0.218 OA 
HETATM   23  O   UNL     1      -6.507  17.544  65.023  1.00  0.00     0.441 OA 
BRANCH  21  24
HETATM   24  C   UNL     1      -8.841  16.780  65.890  1.00  0.00    -0.053 A  
HETATM   25  C   UNL     1     -11.235  16.788  65.547  1.00  0.00     0.269 A  
HETATM   26  N   UNL     1      -8.745  15.606  65.293  1.00  0.00     1.173 NA 
HETATM   27  F   UNL     1     -13.360  14.825  65.544  1.00  0.00    -0.169 F  
HETATM   28  C   UNL     1     -12.499  14.930  64.486  1.00  0.00    -0.206 C  
HETATM   29  F   UNL     1     -13.144  15.712  63.569  1.00  0.00     0.433 F  
HETATM   30  C   UNL     1      -9.895  15.083  64.822  1.00  0.00     0.377 A  
HETATM   31  F   UNL     1     -12.537  13.686  63.955  1.00  0.00    -0.384 F  
HETATM   32  C   UNL     1     -11.197  15.565  64.922  1.00  0.00    -0.396 A  
HETATM   33  C   UNL     1     -10.069  17.423  66.022  1.00  0.00    -0.273 A  
ENDBRANCH  21  24
ENDBRANCH  19  21
ENDBRANCH  10  19
BRANCH  12  34
HETATM   34  C   UNL     1      -6.916   8.515  65.261  1.00  0.00    -0.078 C  
BRANCH  34  35
HETATM   35  C   UNL     1      -8.437   8.450  64.994  1.00  0.00    -0.160 C  
BRANCH  35  36
HETATM   36  C   UNL     1      -9.152   7.856  66.150  1.00  0.00    -0.210 A  
HETATM   37  C   UNL     1      -9.453   6.128  67.782  1.00  0.00    -0.115 A  
HETATM   38  C   UNL     1      -8.709   6.675  66.734  1.00  0.00    -0.121 A  
HETATM   39  C   UNL     1     -11.022   7.958  67.650  1.00  0.00     0.016 A  
HETATM   40  C   UNL     1     -10.595   6.767  68.239  1.00  0.00    -0.276 A  
HETATM   41  C   UNL     1     -10.295   8.506  66.604  1.00  0.00    -0.303 A  
ENDBRANCH  35  36
ENDBRANCH  34  35
ENDBRANCH  12  34
BRANCH  12  42
HETATM   42  C   UNL     1      -5.295  10.447  64.738  1.00  0.00    -0.137 C  
BRANCH  42  43
HETATM   43  C   UNL     1      -5.703  11.033  63.367  1.00  0.00     0.284 C  
HETATM   44  C   UNL     1      -6.498  10.234  62.335  1.00  0.00    -0.136 C  
ENDBRANCH  42  43
ENDBRANCH  12  42
TORSDOF 8
ENDMDL
MODEL      175
REMARK 921   NORMALIZED FREE ENERGY PREDICTED BY IDOCK:    1.39 KCAL/MOL
REMARK 922        TOTAL FREE ENERGY PREDICTED BY IDOCK:    0.05 KCAL/MOL
REMARK 923 INTER-LIGAND FREE ENERGY PREDICTED BY IDOCK:    2.52 KCAL/MOL
REMARK 924 INTRA-LIGAND FREE ENERGY PREDICTED BY IDOCK:   -2.47 KCAL/MOL
REMARK 927      BINDING AFFINITY PREDICTED BY RF-SCORE:    0.00 PKD
ROOT
HETATM    1  C   UNL     1     -10.485  10.549  70.334  1.00  0.00     0.131 C  
HETATM    2  C   UNL     1     -10.844  12.049  70.164  1.00  0.00     0.919 A  
HETATM    3  C   UNL     1     -11.597   9.570  69.903  1.00  0.00    -0.026 C  
HETATM    4  C   UNL     1      -9.086  10.138  69.772  1.00  0.00    -0.166 C  
HETATM    5  C   UNL     1     -12.903   9.681  70.673  1.00  0.00    -0.060 C  
HETATM    6  C   UNL     1     -10.509  12.795  69.019  1.00  0.00    -0.019 A  
HETATM    7  C   UNL     1      -7.956  10.108  70.512  1.00  0.00     0.480 C  
HETATM    8  O   UNL     1      -7.949  10.463  71.852  1.00  0.00     2.511 OA 
HETATM    9  C   UNL     1      -6.545   9.930  69.921  1.00  0.00    -0.080 C  
HETATM   10  C   UNL     1     -10.719  14.190  68.951  1.00  0.00    -0.256 A  
HETATM   11  C   UNL     1     -11.348  14.852  69.994  1.00  0.00    -0.310 A  
HETATM   12  C   UNL     1      -6.461   9.581  68.435  1.00  0.00    -0.053 C  
HETATM   13  C   UNL     1      -8.970   9.752  68.338  1.00  0.00    -0.123 C  
HETATM   14  H   UNL     1      -7.154  10.442  72.372  1.00  0.00     0.000 HD 
HETATM   15  O   UNL     1      -7.750   9.593  67.782  1.00  0.00    -0.093 OA 
HETATM   16  C   UNL     1     -11.510  12.748  71.196  1.00  0.00     1.823 A  
HETATM   17  O   UNL     1      -9.959   9.598  67.634  1.00  0.00    -0.157 OA 
HETATM   18  C   UNL     1     -11.776  14.126  71.103  1.00  0.00    -0.071 A  
ENDROOT
BRANCH  10  19
HETATM   19  N   UNL     1     -10.184  14.942  67.855  1.00  0.00    -0.227 N  
HETATM   20  H   UNL     1      -9.334  15.495  67.973  1.00  0.00     0.000 HD 
BRANCH  19  21
HETATM   21  S   UNL     1     -10.995  14.901  66.338  1.00  0.00    -0.337 S  
HETATM   22  O   UNL     1     -12.405  14.698  66.625  1.00  0.00    -0.258 OA 
HETATM   23  O   UNL     1     -10.560  16.057  65.578  1.00  0.00    -0.371 OA 
BRANCH  21  24
HETATM   24  C   UNL     1     -10.392  13.460  65.474  1.00  0.00    -0.295 A  
HETATM   25  C   UNL     1      -8.997  11.525  65.074  1.00  0.00     0.137 A  
HETATM   26  N   UNL     1     -11.250  13.048  64.557  1.00  0.00    -0.323 NA 
HETATM   27  F   UNL     1      -8.236   9.923  62.788  1.00  0.00    -0.124 F  
HETATM   28  C   UNL     1      -9.473   9.792  63.359  1.00  0.00     0.064 C  
HETATM   29  F   UNL     1      -9.368   8.727  64.210  1.00  0.00     0.033 F  
HETATM   30  C   UNL     1     -10.959  11.878  63.955  1.00  0.00    -0.381 A  
HETATM   31  F   UNL     1     -10.220   9.329  62.331  1.00  0.00     0.992 F  
HETATM   32  C   UNL     1      -9.849  11.051  64.107  1.00  0.00    -0.360 A  
HETATM   33  C   UNL     1      -9.257  12.717  65.783  1.00  0.00     0.145 A  
ENDBRANCH  21  24
ENDBRANCH  19  21
ENDBRANCH  10  19
BRANCH  12  34
HETATM   34  C   UNL     1      -5.939   8.136  68.455  1.00  0.00    -0.041 C  
BRANCH  34  35
HETATM   35  C   UNL     1      -6.139   7.462  67.079  1.00  0.00    -0.046 C  
BRANCH  35  36
HETATM   36  C   UNL     1      -6.758   6.123  67.230  1.00  0.00    -0.061 A  
HETATM   37  C   UNL     1      -7.152   3.884  66.472  1.00  0.00    -0.063 A  
HETATM   38  C   UNL     1      -6.497   5.107  66.316  1.00  0.00    -0.044 A  
HETATM   39  C   UNL     1      -8.269   4.710  68.447  1.00  0.00    -0.083 A  
HETATM   40  C   UNL     1      -8.025   3.686  67.531  1.00  0.00    -0.082 A  
HETATM   41  C   UNL     1      -7.629   5.932  68.297  1.00  0.00    -0.090 A  
ENDBRANCH  35  36
ENDBRANCH  34  35
ENDBRANCH  12  34
BRANCH  12  42
HETATM   42  C   UNL     1      -5.498  10.498  67.527  1.00  0.00    -0.044 C  
BRANCH  42  43
HETATM   43  C   UNL     1      -6.181  11.650  66.754  1.00  0.00    -0.123 C  
HETATM   44  C   UNL     1      -6.262  13.074  67.303  1.00  0.00     0.052 C  
ENDBRANCH  42  43
ENDBRANCH  12  42
TORSDOF 8
ENDMDL
MODEL      176
REMARK 921   NORMALIZED FREE ENERGY PREDICTED BY IDOCK:    1.45 KCAL/MOL
REMARK 922        TOTAL FREE ENERGY PREDICTED BY IDOCK:    0.14 KCAL/MOL
REMARK 923 INTER-LIGAND FREE ENERGY PREDICTED BY IDOCK:   -0.91 KCAL/MOL
REMARK 924 INTRA-LIGAND FREE ENERGY PREDICTED BY IDOCK:    1.05 KCAL/MOL
REMARK 927      BINDING AFFINITY PREDICTED BY RF-SCORE:    0.00 PKD
ROOT
HETATM    1  C   UNL     1      -8.627   7.494  69.043  1.00  0.00    -0.136 C  
HETATM    2  C   UNL     1      -8.153   7.164  67.602  1.00  0.00    -0.114 A  
HETATM    3  C   UNL     1      -7.596   7.180  70.146  1.00  0.00    -0.091 C  
HETATM    4  C   UNL     1      -9.268   8.909  69.218  1.00  0.00    -0.145 C  
HETATM    5  C   UNL     1      -7.187   5.721  70.265  1.00  0.00    -0.075 C  
HETATM    6  C   UNL     1      -7.549   8.112  66.756  1.00  0.00    -0.094 A  
HETATM    7  C   UNL     1     -10.594   9.152  69.125  1.00  0.00    -0.208 C  
HETATM    8  O   UNL     1     -11.505   8.146  68.846  1.00  0.00    -0.061 OA 
HETATM    9  C   UNL     1     -11.207  10.564  69.067  1.00  0.00    -0.316 C  
HETATM   10  C   UNL     1      -7.259   7.825  65.403  1.00  0.00    -0.068 A  
HETATM   11  C   UNL     1      -7.488   6.556  64.895  1.00  0.00    -0.086 A  
HETATM   12  C   UNL     1     -10.260  11.736  69.320  1.00  0.00     0.185 C  
HETATM   13  C   UNL     1      -8.382  10.071  69.506  1.00  0.00    -0.172 C  
HETATM   14  H   UNL     1     -12.437   8.317  68.780  1.00  0.00     0.000 HD 
HETATM   15  O   UNL     1      -8.881  11.325  69.458  1.00  0.00     0.288 OA 
HETATM   16  C   UNL     1      -8.345   5.872  67.063  1.00  0.00    -0.105 A  
HETATM   17  O   UNL     1      -7.195   9.923  69.762  1.00  0.00    -0.085 OA 
HETATM   18  C   UNL     1      -7.999   5.568  65.734  1.00  0.00    -0.108 A  
ENDROOT
BRANCH  10  19
HETATM   19  N   UNL     1      -6.832   8.873  64.524  1.00  0.00    -0.080 N  
HETATM   20  H   UNL     1      -5.940   9.344  64.676  1.00  0.00     0.000 HD 
BRANCH  19  21
HETATM   21  S   UNL     1      -7.845   9.326  63.210  1.00  0.00    -0.142 S  
HETATM   22  O   UNL     1      -7.042  10.162  62.334  1.00  0.00    -0.120 OA 
HETATM   23  O   UNL     1      -8.470   8.119  62.703  1.00  0.00    -0.143 OA 
BRANCH  21  24
HETATM   24  C   UNL     1      -9.151  10.334  63.893  1.00  0.00    -0.254 A  
HETATM   25  C   UNL     1     -10.785  11.055  65.523  1.00  0.00    -0.218 A  
HETATM   26  N   UNL     1      -9.273  11.478  63.244  1.00  0.00    -0.186 NA 
HETATM   27  F   UNL     1     -13.215  12.624  65.505  1.00  0.00    -0.088 F  
HETATM   28  C   UNL     1     -11.989  13.226  65.426  1.00  0.00    -0.395 C  
HETATM   29  F   UNL     1     -11.688  13.606  66.704  1.00  0.00    -0.331 F  
HETATM   30  C   UNL     1     -10.126  12.375  63.777  1.00  0.00    -0.308 A  
HETATM   31  F   UNL     1     -12.275  14.385  64.788  1.00  0.00    -0.383 F  
HETATM   32  C   UNL     1     -10.957  12.261  64.887  1.00  0.00    -0.344 A  
HETATM   33  C   UNL     1      -9.875  10.084  65.055  1.00  0.00    -0.374 A  
ENDBRANCH  21  24
ENDBRANCH  19  21
ENDBRANCH  10  19
BRANCH  12  34
HETATM   34  C   UNL     1     -10.743  12.278  70.674  1.00  0.00     2.924 C  
BRANCH  34  35
HETATM   35  C   UNL     1     -12.284  12.389  70.702  1.00  0.00    -0.368 C  
BRANCH  35  36
HETATM   36  C   UNL     1     -12.899  11.121  71.164  1.00  0.00    -0.473 A  
HETATM   37  C   UNL     1     -13.181   9.385  72.792  1.00  0.00    -0.111 A  
HETATM   38  C   UNL     1     -12.623  10.613  72.430  1.00  0.00     0.626 A  
HETATM   39  C   UNL     1     -14.287   9.233  70.651  1.00  0.00     0.627 A  
HETATM   40  C   UNL     1     -14.010   8.705  71.913  1.00  0.00    -0.501 A  
HETATM   41  C   UNL     1     -13.732  10.447  70.278  1.00  0.00     0.950 A  
ENDBRANCH  35  36
ENDBRANCH  34  35
ENDBRANCH  12  34
BRANCH  12  42
HETATM   42  C   UNL     1     -10.259  12.919  68.227  1.00  0.00    -0.245 C  
BRANCH  42  43
HETATM   43  C   UNL     1      -9.115  13.953  68.338  1.00  0.00    -0.184 C  
HETATM   44  C   UNL     1      -8.404  14.253  69.657  1.00  0.00     0.600 C  
ENDBRANCH  42  43
ENDBRANCH  12  42
TORSDOF 8
ENDMDL
MODEL      177
REMARK 921   NORMALIZED FREE ENERGY PREDICTED BY IDOCK:    2.24 KCAL/MOL
REMARK 922        TOTAL FREE ENERGY PREDICTED BY IDOCK:    1.29 KCAL/MOL
REMARK 923 INTER-LIGAND FREE ENERGY PREDICTED BY IDOCK:    1.16 KCAL/MOL
REMARK 924 INTRA-LIGAND FREE ENERGY PREDICTED BY IDOCK:    0.13 KCAL/MOL
REMARK 927      BINDING AFFINITY PREDICTED BY RF-SCORE:    0.00 PKD
ROOT
HETATM    1  C   UNL     1     -10.664  16.541  68.903  1.00  0.00    -0.337 C  
HETATM    2  C   UNL     1      -9.140  16.685  68.645  1.00  0.00    -0.245 A  
HETATM    3  C   UNL     1     -11.560  17.132  67.796  1.00  0.00     0.706 C  
HETATM    4  C   UNL     1     -11.127  15.114  69.339  1.00  0.00    -0.283 C  
HETATM    5  C   UNL     1     -11.410  18.626  67.558  1.00  0.00     0.478 C  
HETATM    6  C   UNL     1      -8.366  15.681  68.033  1.00  0.00    -0.146 A  
HETATM    7  C   UNL     1     -11.251  14.723  70.627  1.00  0.00    -0.131 C  
HETATM    8  O   UNL     1     -10.954  15.572  71.681  1.00  0.00    -0.322 OA 
HETATM    9  C   UNL     1     -11.481  13.264  71.064  1.00  0.00     1.178 C  
HETATM   10  C   UNL     1      -6.960  15.777  67.941  1.00  0.00    -0.140 A  
HETATM   11  C   UNL     1      -6.309  16.919  68.383  1.00  0.00    -0.140 A  
HETATM   12  C   UNL     1     -11.772  12.252  69.956  1.00  0.00    -0.242 C  
HETATM   13  C   UNL     1     -11.458  14.111  68.289  1.00  0.00    -0.304 C  
HETATM   14  H   UNL     1     -11.041  15.296  72.586  1.00  0.00     0.000 HD 
HETATM   15  O   UNL     1     -11.661  12.821  68.632  1.00  0.00    -0.270 OA 
HETATM   16  C   UNL     1      -8.449  17.847  69.057  1.00  0.00    -0.014 A  
HETATM   17  O   UNL     1     -11.527  14.421  67.107  1.00  0.00    -0.330 OA 
HETATM   18  C   UNL     1      -7.056  17.970  68.910  1.00  0.00    -0.268 A  
ENDROOT
BRANCH  10  19
HETATM   19  N   UNL     1      -6.193  14.653  67.495  1.00  0.00    -0.072 N  
HETATM   20  H   UNL     1      -5.334  14.791  66.962  1.00  0.00     0.000 HD 
BRANCH  19  21
HETATM   21  S   UNL     1      -6.741  13.065  67.870  1.00  0.00    -0.147 S  
HETATM   22  O   UNL     1      -5.588  12.188  67.752  1.00  0.00    -0.061 OA 
HETATM   23  O   UNL     1      -7.481  13.141  69.115  1.00  0.00     0.027 OA 
BRANCH  21  24
HETATM   24  C   UNL     1      -7.913  12.615  66.601  1.00  0.00     0.254 A  
HETATM   25  C   UNL     1      -9.311  11.148  65.280  1.00  0.00    -0.243 A  
HETATM   26  N   UNL     1      -8.563  13.669  66.144  1.00  0.00     0.560 NA 
HETATM   27  F   UNL     1     -10.573  11.234  62.679  1.00  0.00    -0.132 F  
HETATM   28  C   UNL     1     -11.090  11.934  63.735  1.00  0.00    -0.436 C  
HETATM   29  F   UNL     1     -12.076  11.139  64.249  1.00  0.00    -0.038 F  
HETATM   30  C   UNL     1      -9.579  13.418  65.294  1.00  0.00     0.170 A  
HETATM   31  F   UNL     1     -11.754  12.940  63.120  1.00  0.00    -0.556 F  
HETATM   32  C   UNL     1     -10.019  12.207  64.767  1.00  0.00    -0.224 A  
HETATM   33  C   UNL     1      -8.267  11.326  66.213  1.00  0.00    -0.126 A  
ENDBRANCH  21  24
ENDBRANCH  19  21
ENDBRANCH  10  19
BRANCH  12  34
HETATM   34  C   UNL     1     -13.243  11.886  70.207  1.00  0.00     0.872 C  
BRANCH  34  35
HETATM   35  C   UNL     1     -13.569  10.493  69.624  1.00  0.00     1.982 C  
BRANCH  35  36
HETATM   36  C   UNL     1     -13.296   9.426  70.617  1.00  0.00     0.202 A  
HETATM   37  C   UNL     1     -12.702   7.174  71.183  1.00  0.00    -0.363 A  
HETATM   38  C   UNL     1     -12.889   8.159  70.211  1.00  0.00     1.163 A  
HETATM   39  C   UNL     1     -13.294   8.746  72.918  1.00  0.00    -0.037 A  
HETATM   40  C   UNL     1     -12.897   7.467  72.524  1.00  0.00     0.289 A  
HETATM   41  C   UNL     1     -13.490   9.729  71.960  1.00  0.00    -0.498 A  
ENDBRANCH  35  36
ENDBRANCH  34  35
ENDBRANCH  12  34
BRANCH  12  42
HETATM   42  C   UNL     1     -10.871  10.917  69.938  1.00  0.00    -0.205 C  
BRANCH  42  43
HETATM   43  C   UNL     1     -10.470  10.381  68.544  1.00  0.00    -0.210 C  
HETATM   44  C   UNL     1      -9.931   8.967  68.332  1.00  0.00    -0.200 C  
ENDBRANCH  42  43
ENDBRANCH  12  42
TORSDOF 8
ENDMDL
MODEL      178
REMARK 921   NORMALIZED FREE ENERGY PREDICTED BY IDOCK:    2.64 KCAL/MOL
REMARK 922        TOTAL FREE ENERGY PREDICTED BY IDOCK:    1.89 KCAL/MOL
REMARK 923 INTER-LIGAND FREE ENERGY PREDICTED BY IDOCK:   -2.43 KCAL/MOL
REMARK 924 INTRA-LIGAND FREE ENERGY PREDICTED BY IDOCK:    4.32 KCAL/MOL
REMARK 927      BINDING AFFINITY PREDICTED BY RF-SCORE:    0.00 PKD
ROOT
HETATM    1  C   UNL     1     -10.154   5.890  70.229  1.00  0.00    -0.260 C  
HETATM    2  C   UNL     1      -9.648   7.298  70.642  1.00  0.00    -0.172 A  
HETATM    3  C   UNL     1     -11.608   5.583  70.643  1.00  0.00     0.711 C  
HETATM    4  C   UNL     1      -9.866   5.496  68.744  1.00  0.00    -0.206 C  
HETATM    5  C   UNL     1     -11.881   5.602  72.138  1.00  0.00    -0.077 C  
HETATM    6  C   UNL     1      -9.708   8.417  69.790  1.00  0.00    -0.180 A  
HETATM    7  C   UNL     1      -8.772   4.811  68.345  1.00  0.00    -0.101 C  
HETATM    8  O   UNL     1      -7.792   4.411  69.239  1.00  0.00    -0.058 OA 
HETATM    9  C   UNL     1      -8.368   4.620  66.871  1.00  0.00    -0.106 C  
HETATM   10  C   UNL     1      -9.111   9.650  70.136  1.00  0.00    -0.240 A  
HETATM   11  C   UNL     1      -8.517   9.812  71.378  1.00  0.00     1.257 A  
HETATM   12  C   UNL     1      -9.376   5.076  65.816  1.00  0.00    -0.160 C  
HETATM   13  C   UNL     1     -10.845   5.888  67.691  1.00  0.00    -0.239 C  
HETATM   14  H   UNL     1      -7.023   3.930  68.958  1.00  0.00     0.000 HD 
HETATM   15  O   UNL     1     -10.524   5.741  66.388  1.00  0.00    -0.210 OA 
HETATM   16  C   UNL     1      -9.064   7.506  71.911  1.00  0.00    -0.153 A  
HETATM   17  O   UNL     1     -11.934   6.368  67.977  1.00  0.00     1.028 OA 
HETATM   18  C   UNL     1      -8.523   8.751  72.281  1.00  0.00    -0.034 A  
ENDROOT
BRANCH  10  19
HETATM   19  N   UNL     1      -9.018  10.698  69.165  1.00  0.00    -0.288 N  
HETATM   20  H   UNL     1      -8.110  10.991  68.804  1.00  0.00     0.000 HD 
BRANCH  19  21
HETATM   21  S   UNL     1     -10.461  11.458  68.615  1.00  0.00    -0.205 S  
HETATM   22  O   UNL     1     -10.859  10.766  67.401  1.00  0.00    -0.252 OA 
HETATM   23  O   UNL     1     -11.368  11.543  69.743  1.00  0.00    -0.266 OA 
BRANCH  21  24
HETATM   24  C   UNL     1     -10.024  13.134  68.179  1.00  0.00    -0.234 A  
HETATM   25  C   UNL     1     -10.377  15.487  67.751  1.00  0.00    -0.263 A  
HETATM   26  N   UNL     1      -8.718  13.326  68.238  1.00  0.00    -0.179 NA 
HETATM   27  F   UNL     1      -9.011  17.584  66.300  1.00  0.00    -0.264 F  
HETATM   28  C   UNL     1      -8.549  17.153  67.513  1.00  0.00    -0.203 C  
HETATM   29  F   UNL     1      -9.051  18.036  68.427  1.00  0.00    -0.257 F  
HETATM   30  C   UNL     1      -8.297  14.597  68.078  1.00  0.00    -0.146 A  
HETATM   31  F   UNL     1      -7.231  17.451  67.445  1.00  0.00    -0.163 F  
HETATM   32  C   UNL     1      -9.029  15.747  67.795  1.00  0.00    -0.176 A  
HETATM   33  C   UNL     1     -10.899  14.193  67.958  1.00  0.00    -0.256 A  
ENDBRANCH  21  24
ENDBRANCH  19  21
ENDBRANCH  10  19
BRANCH  12  34
HETATM   34  C   UNL     1      -9.841   3.751  65.194  1.00  0.00    -0.161 C  
BRANCH  34  35
HETATM   35  C   UNL     1      -9.503   2.561  66.120  1.00  0.00     0.137 C  
BRANCH  35  36
HETATM   36  C   UNL     1      -8.044   2.485  66.373  1.00  0.00    -0.084 A  
HETATM   37  C   UNL     1      -5.781   3.083  65.861  1.00  0.00    -0.018 A  
HETATM   38  C   UNL     1      -7.148   3.237  65.620  1.00  0.00    -0.066 A  
HETATM   39  C   UNL     1      -6.247   1.476  67.602  1.00  0.00    -0.024 A  
HETATM   40  C   UNL     1      -5.335   2.216  66.846  1.00  0.00    -0.013 A  
HETATM   41  C   UNL     1      -7.606   1.615  67.366  1.00  0.00    -0.059 A  
ENDBRANCH  35  36
ENDBRANCH  34  35
ENDBRANCH  12  34
BRANCH  12  42
HETATM   42  C   UNL     1      -8.827   6.059  64.664  1.00  0.00     0.260 C  
BRANCH  42  43
HETATM   43  C   UNL     1      -8.575   5.418  63.281  1.00  0.00    -0.008 C  
HETATM   44  C   UNL     1      -7.198   4.919  62.845  1.00  0.00    -0.043 C  
ENDBRANCH  42  43
ENDBRANCH  12  42
TORSDOF 8
ENDMDL
MODEL      179
REMARK 921   NORMALIZED FREE ENERGY PREDICTED BY IDOCK:    3.38 KCAL/MOL
REMARK 922        TOTAL FREE ENERGY PREDICTED BY IDOCK:    2.97 KCAL/MOL
REMARK 923 INTER-LIGAND FREE ENERGY PREDICTED BY IDOCK:   -2.69 KCAL/MOL
REMARK 924 INTRA-LIGAND FREE ENERGY PREDICTED BY IDOCK:    5.67 KCAL/MOL
REMARK 927      BINDING AFFINITY PREDICTED BY RF-SCORE:    0.00 PKD
ROOT
HETATM    1  C   UNL     1     -10.125   5.885  70.231  1.00  0.00    -0.260 C  
HETATM    2  C   UNL     1      -9.581   7.269  70.675  1.00  0.00    -0.172 A  
HETATM    3  C   UNL     1     -11.599   5.625  70.601  1.00  0.00     0.442 C  
HETATM    4  C   UNL     1      -9.810   5.497  68.750  1.00  0.00    -0.206 C  
HETATM    5  C   UNL     1     -11.913   5.636  72.088  1.00  0.00     0.013 C  
HETATM    6  C   UNL     1      -9.579   8.398  69.835  1.00  0.00    -0.171 A  
HETATM    7  C   UNL     1      -8.730   4.778  68.372  1.00  0.00    -0.101 C  
HETATM    8  O   UNL     1      -7.790   4.334  69.288  1.00  0.00    -0.058 OA 
HETATM    9  C   UNL     1      -8.292   4.589  66.908  1.00  0.00    -0.105 C  
HETATM   10  C   UNL     1      -8.948   9.605  70.213  1.00  0.00    -0.219 A  
HETATM   11  C   UNL     1      -8.384   9.733  71.472  1.00  0.00     1.467 A  
HETATM   12  C   UNL     1      -9.253   5.093  65.832  1.00  0.00    -0.158 C  
HETATM   13  C   UNL     1     -10.745   5.935  67.676  1.00  0.00    -0.270 C  
HETATM   14  H   UNL     1      -7.030   3.829  69.023  1.00  0.00     0.000 HD 
HETATM   15  O   UNL     1     -10.393   5.792  66.380  1.00  0.00    -0.196 OA 
HETATM   16  C   UNL     1      -9.025   7.442  71.962  1.00  0.00    -0.143 A  
HETATM   17  O   UNL     1     -11.823   6.450  67.937  1.00  0.00     0.650 OA 
HETATM   18  C   UNL     1      -8.452   8.663  72.362  1.00  0.00    -0.121 A  
ENDROOT
BRANCH  10  19
HETATM   19  N   UNL     1      -8.792  10.661  69.257  1.00  0.00    -0.330 N  
HETATM   20  H   UNL     1      -8.778  11.635  69.560  1.00  0.00     0.000 HD 
BRANCH  19  21
HETATM   21  S   UNL     1      -8.629  10.263  67.590  1.00  0.00    -0.117 S  
HETATM   22  O   UNL     1      -7.204  10.211  67.313  1.00  0.00    -0.088 OA 
HETATM   23  O   UNL     1      -9.470   9.110  67.332  1.00  0.00    -0.138 OA 
BRANCH  21  24
HETATM   24  C   UNL     1      -9.325  11.624  66.668  1.00  0.00    -0.194 A  
HETATM   25  C   UNL     1     -10.334  12.750  64.781  1.00  0.00    -0.345 A  
HETATM   26  N   UNL     1      -9.640  12.635  67.458  1.00  0.00    -0.180 NA 
HETATM   27  F   UNL     1     -10.579  15.478  63.850  1.00  0.00     0.374 F  
HETATM   28  C   UNL     1     -11.346  15.016  64.885  1.00  0.00    -0.417 C  
HETATM   29  F   UNL     1     -12.538  14.658  64.321  1.00  0.00    -0.484 F  
HETATM   30  C   UNL     1     -10.313  13.651  66.881  1.00  0.00    -0.262 A  
HETATM   31  F   UNL     1     -11.624  16.150  65.570  1.00  0.00     0.023 F  
HETATM   32  C   UNL     1     -10.682  13.832  65.551  1.00  0.00    -0.304 A  
HETATM   33  C   UNL     1      -9.671  11.627  65.320  1.00  0.00    -0.255 A  
ENDBRANCH  21  24
ENDBRANCH  19  21
ENDBRANCH  10  19
BRANCH  12  34
HETATM   34  C   UNL     1      -9.748   3.792  65.181  1.00  0.00    -0.176 C  
BRANCH  34  35
HETATM   35  C   UNL     1      -9.604   2.602  66.155  1.00  0.00     0.224 C  
BRANCH  35  36
HETATM   36  C   UNL     1      -8.180   2.363  66.494  1.00  0.00    -0.087 A  
HETATM   37  C   UNL     1      -6.473   1.493  67.933  1.00  0.00    -0.025 A  
HETATM   38  C   UNL     1      -7.828   1.639  67.629  1.00  0.00    -0.059 A  
HETATM   39  C   UNL     1      -5.874   2.756  65.964  1.00  0.00    -0.022 A  
HETATM   40  C   UNL     1      -5.505   2.041  67.106  1.00  0.00    -0.017 A  
HETATM   41  C   UNL     1      -7.217   2.913  65.657  1.00  0.00    -0.070 A  
ENDBRANCH  35  36
ENDBRANCH  34  35
ENDBRANCH  12  34
BRANCH  12  42
HETATM   42  C   UNL     1      -8.639   6.068  64.707  1.00  0.00     0.036 C  
BRANCH  42  43
HETATM   43  C   UNL     1      -8.398   5.441  63.315  1.00  0.00    -0.104 C  
HETATM   44  C   UNL     1      -7.722   4.083  63.131  1.00  0.00    -0.066 C  
ENDBRANCH  42  43
ENDBRANCH  12  42
TORSDOF 8
ENDMDL
MODEL      180
REMARK 921   NORMALIZED FREE ENERGY PREDICTED BY IDOCK:    3.89 KCAL/MOL
REMARK 922        TOTAL FREE ENERGY PREDICTED BY IDOCK:    3.71 KCAL/MOL
REMARK 923 INTER-LIGAND FREE ENERGY PREDICTED BY IDOCK:    4.08 KCAL/MOL
REMARK 924 INTRA-LIGAND FREE ENERGY PREDICTED BY IDOCK:   -0.36 KCAL/MOL
REMARK 927      BINDING AFFINITY PREDICTED BY RF-SCORE:    0.00 PKD
ROOT
HETATM    1  C   UNL     1      -7.679  11.674  64.707  1.00  0.00     1.813 C  
HETATM    2  C   UNL     1      -7.393  10.152  64.818  1.00  0.00    -0.134 A  
HETATM    3  C   UNL     1      -7.815  12.198  63.263  1.00  0.00     3.322 C  
HETATM    4  C   UNL     1      -8.820  12.199  65.636  1.00  0.00     0.348 C  
HETATM    5  C   UNL     1      -6.583  12.034  62.388  1.00  0.00     1.908 C  
HETATM    6  C   UNL     1      -8.406   9.190  64.985  1.00  0.00    -0.165 A  
HETATM    7  C   UNL     1      -8.613  12.706  66.871  1.00  0.00    -0.151 C  
HETATM    8  O   UNL     1      -7.346  12.786  67.426  1.00  0.00    -0.144 OA 
HETATM    9  C   UNL     1      -9.740  13.010  67.877  1.00  0.00    -0.218 C  
HETATM   10  C   UNL     1      -8.109   7.830  65.227  1.00  0.00    -0.133 A  
HETATM   11  C   UNL     1      -6.794   7.392  65.220  1.00  0.00    -0.048 A  
HETATM   12  C   UNL     1     -11.173  12.902  67.357  1.00  0.00    -0.291 C  
HETATM   13  C   UNL     1     -10.227  12.148  65.150  1.00  0.00    -0.278 C  
HETATM   14  H   UNL     1      -7.200  13.143  68.295  1.00  0.00     0.000 HD 
HETATM   15  O   UNL     1     -11.243  12.402  66.003  1.00  0.00    -0.304 OA 
HETATM   16  C   UNL     1      -6.066   9.668  64.786  1.00  0.00    -0.085 A  
HETATM   17  O   UNL     1     -10.494  11.854  63.993  1.00  0.00    -0.306 OA 
HETATM   18  C   UNL     1      -5.773   8.304  64.965  1.00  0.00    -0.044 A  
ENDROOT
BRANCH  10  19
HETATM   19  N   UNL     1      -9.157   6.922  65.590  1.00  0.00    -0.374 N  
HETATM   20  H   UNL     1      -9.918   6.725  64.940  1.00  0.00     0.000 HD 
BRANCH  19  21
HETATM   21  S   UNL     1      -9.112   6.170  67.137  1.00  0.00    -0.116 S  
HETATM   22  O   UNL     1     -10.489   5.883  67.500  1.00  0.00    -0.190 OA 
HETATM   23  O   UNL     1      -8.131   5.104  67.076  1.00  0.00    -0.104 OA 
BRANCH  21  24
HETATM   24  C   UNL     1      -8.479   7.387  68.280  1.00  0.00    -0.125 A  
HETATM   25  C   UNL     1      -7.417   8.215  70.289  1.00  0.00    -0.067 A  
HETATM   26  N   UNL     1      -8.355   8.571  67.709  1.00  0.00    -0.128 NA 
HETATM   27  F   UNL     1      -7.377  10.699  71.770  1.00  0.00     2.071 F  
HETATM   28  C   UNL     1      -6.670  10.563  70.606  1.00  0.00     0.157 C  
HETATM   29  F   UNL     1      -5.396  10.249  70.990  1.00  0.00    -0.055 F  
HETATM   30  C   UNL     1      -7.741   9.522  68.442  1.00  0.00    -0.085 A  
HETATM   31  F   UNL     1      -6.584  11.839  70.167  1.00  0.00    -0.134 F  
HETATM   32  C   UNL     1      -7.265   9.468  69.749  1.00  0.00    -0.084 A  
HETATM   33  C   UNL     1      -8.004   7.154  69.567  1.00  0.00    -0.128 A  
ENDBRANCH  21  24
ENDBRANCH  19  21
ENDBRANCH  10  19
BRANCH  12  34
HETATM   34  C   UNL     1     -11.648  14.363  67.361  1.00  0.00    -0.398 C  
BRANCH  34  35
HETATM   35  C   UNL     1     -11.010  15.145  68.531  1.00  0.00    -0.263 C  
BRANCH  35  36
HETATM   36  C   UNL     1     -10.697  16.538  68.130  1.00  0.00    -0.343 A  
HETATM   37  C   UNL     1     -10.934  18.410  66.654  1.00  0.00     0.099 A  
HETATM   38  C   UNL     1     -11.308  17.117  67.023  1.00  0.00     0.629 A  
HETATM   39  C   UNL     1      -9.394  18.516  68.511  1.00  0.00    -0.364 A  
HETATM   40  C   UNL     1      -9.990  19.106  67.395  1.00  0.00    -0.432 A  
HETATM   41  C   UNL     1      -9.752  17.229  68.881  1.00  0.00    -0.251 A  
ENDBRANCH  35  36
ENDBRANCH  34  35
ENDBRANCH  12  34
BRANCH  12  42
HETATM   42  C   UNL     1     -12.190  11.994  68.214  1.00  0.00     0.181 C  
BRANCH  42  43
HETATM   43  C   UNL     1     -11.625  10.663  68.760  1.00  0.00    -0.309 C  
HETATM   44  C   UNL     1     -10.574  10.608  69.867  1.00  0.00    -0.203 C  
ENDBRANCH  42  43
ENDBRANCH  12  42
TORSDOF 8
ENDMDL
MODEL      181
REMARK 921   NORMALIZED FREE ENERGY PREDICTED BY IDOCK:    4.77 KCAL/MOL
REMARK 922        TOTAL FREE ENERGY PREDICTED BY IDOCK:    5.01 KCAL/MOL
REMARK 923 INTER-LIGAND FREE ENERGY PREDICTED BY IDOCK:    1.37 KCAL/MOL
REMARK 924 INTRA-LIGAND FREE ENERGY PREDICTED BY IDOCK:    3.64 KCAL/MOL
REMARK 927      BINDING AFFINITY PREDICTED BY RF-SCORE:    0.00 PKD
ROOT
HETATM    1  C   UNL     1     -11.480  13.775  68.157  1.00  0.00    -0.348 C  
HETATM    2  C   UNL     1      -9.985  14.021  67.818  1.00  0.00    -0.236 A  
HETATM    3  C   UNL     1     -12.405  13.650  66.929  1.00  0.00    -0.309 C  
HETATM    4  C   UNL     1     -11.740  12.650  69.210  1.00  0.00    -0.379 C  
HETATM    5  C   UNL     1     -12.472  14.875  66.032  1.00  0.00     0.269 C  
HETATM    6  C   UNL     1      -9.041  12.983  67.708  1.00  0.00    -0.200 A  
HETATM    7  C   UNL     1     -11.861  12.873  70.537  1.00  0.00    -0.067 C  
HETATM    8  O   UNL     1     -11.745  14.143  71.079  1.00  0.00    -0.499 OA 
HETATM    9  C   UNL     1     -11.887  11.757  71.599  1.00  0.00     1.413 C  
HETATM   10  C   UNL     1      -7.663  13.245  67.542  1.00  0.00    -0.171 A  
HETATM   11  C   UNL     1      -7.213  14.548  67.396  1.00  0.00    -0.165 A  
HETATM   12  C   UNL     1     -11.970  10.320  71.084  1.00  0.00    -0.376 C  
HETATM   13  C   UNL     1     -11.867  11.241  68.744  1.00  0.00    -0.329 C  
HETATM   14  H   UNL     1     -11.830  14.300  72.013  1.00  0.00     0.000 HD 
HETATM   15  O   UNL     1     -11.887  10.234  69.644  1.00  0.00    -0.202 OA 
HETATM   16  C   UNL     1      -9.499  15.334  67.634  1.00  0.00    -0.205 A  
HETATM   17  O   UNL     1     -11.929  10.964  67.554  1.00  0.00    -0.442 OA 
HETATM   18  C   UNL     1      -8.135  15.592  67.407  1.00  0.00    -0.195 A  
ENDROOT
BRANCH  10  19
HETATM   19  N   UNL     1      -6.714  12.175  67.636  1.00  0.00    -0.103 N  
HETATM   20  H   UNL     1      -6.175  12.035  68.491  1.00  0.00     0.000 HD 
BRANCH  19  21
HETATM   21  S   UNL     1      -6.497  11.130  66.286  1.00  0.00    -0.028 S  
HETATM   22  O   UNL     1      -7.607  11.381  65.383  1.00  0.00     0.393 OA 
HETATM   23  O   UNL     1      -5.129  11.284  65.830  1.00  0.00    -0.240 OA 
BRANCH  21  24
HETATM   24  C   UNL     1      -6.650   9.460  66.901  1.00  0.00    -0.068 A  
HETATM   25  C   UNL     1      -7.757   7.379  67.441  1.00  0.00    -0.114 A  
HETATM   26  N   UNL     1      -5.469   8.888  67.051  1.00  0.00    -0.040 NA 
HETATM   27  F   UNL     1      -7.283   5.152  69.226  1.00  0.00    -0.052 F  
HETATM   28  C   UNL     1      -6.569   5.288  68.066  1.00  0.00    -0.050 C  
HETATM   29  F   UNL     1      -7.205   4.493  67.154  1.00  0.00    -0.067 F  
HETATM   30  C   UNL     1      -5.480   7.576  67.363  1.00  0.00    -0.030 A  
HETATM   31  F   UNL     1      -5.424   4.626  68.350  1.00  0.00    -0.012 F  
HETATM   32  C   UNL     1      -6.558   6.732  67.616  1.00  0.00    -0.058 A  
HETATM   33  C   UNL     1      -7.828   8.737  67.066  1.00  0.00    -0.095 A  
ENDBRANCH  21  24
ENDBRANCH  19  21
ENDBRANCH  10  19
BRANCH  12  34
HETATM   34  C   UNL     1     -13.378   9.884  71.517  1.00  0.00    -0.462 C  
BRANCH  34  35
HETATM   35  C   UNL     1     -13.791   8.577  70.804  1.00  0.00     0.422 C  
BRANCH  35  36
HETATM   36  C   UNL     1     -12.613   7.907  70.201  1.00  0.00     1.054 A  
HETATM   37  C   UNL     1     -11.137   7.493  68.360  1.00  0.00     0.181 A  
HETATM   38  C   UNL     1     -12.217   8.195  68.899  1.00  0.00     3.125 A  
HETATM   39  C   UNL     1     -10.867   6.278  70.429  1.00  0.00    -0.360 A  
HETATM   40  C   UNL     1     -10.465   6.548  69.120  1.00  0.00    -0.260 A  
HETATM   41  C   UNL     1     -11.943   6.964  70.972  1.00  0.00    -0.422 A  
ENDBRANCH  35  36
ENDBRANCH  34  35
ENDBRANCH  12  34
BRANCH  12  42
HETATM   42  C   UNL     1     -10.877   9.281  71.650  1.00  0.00    -0.418 C  
BRANCH  42  43
HETATM   43  C   UNL     1      -9.414   9.780  71.688  1.00  0.00     1.470 C  
HETATM   44  C   UNL     1      -8.237   8.851  71.982  1.00  0.00     0.049 C  
ENDBRANCH  42  43
ENDBRANCH  12  42
TORSDOF 8
ENDMDL
MODEL      182
REMARK 921   NORMALIZED FREE ENERGY PREDICTED BY IDOCK:    4.83 KCAL/MOL
REMARK 922        TOTAL FREE ENERGY PREDICTED BY IDOCK:    5.09 KCAL/MOL
REMARK 923 INTER-LIGAND FREE ENERGY PREDICTED BY IDOCK:   -4.04 KCAL/MOL
REMARK 924 INTRA-LIGAND FREE ENERGY PREDICTED BY IDOCK:    9.13 KCAL/MOL
REMARK 927      BINDING AFFINITY PREDICTED BY RF-SCORE:    0.00 PKD
ROOT
HETATM    1  C   UNL     1      -7.325   8.233  69.614  1.00  0.00    -0.073 C  
HETATM    2  C   UNL     1      -7.263   9.773  69.426  1.00  0.00    -0.076 A  
HETATM    3  C   UNL     1      -8.292   7.759  70.718  1.00  0.00    -0.116 C  
HETATM    4  C   UNL     1      -7.488   7.414  68.294  1.00  0.00    -0.109 C  
HETATM    5  C   UNL     1      -7.973   8.246  72.122  1.00  0.00    -0.186 C  
HETATM    6  C   UNL     1      -8.048  10.463  68.484  1.00  0.00    -0.116 A  
HETATM    7  C   UNL     1      -6.453   6.912  67.585  1.00  0.00    -0.050 C  
HETATM    8  O   UNL     1      -5.137   7.104  67.976  1.00  0.00    -0.014 OA 
HETATM    9  C   UNL     1      -6.588   6.308  66.175  1.00  0.00    -0.048 C  
HETATM   10  C   UNL     1      -7.869  11.842  68.234  1.00  0.00    -0.141 A  
HETATM   11  C   UNL     1      -6.961  12.575  68.983  1.00  0.00    -0.066 A  
HETATM   12  C   UNL     1      -8.008   6.103  65.648  1.00  0.00    -0.114 C  
HETATM   13  C   UNL     1      -8.858   7.158  67.768  1.00  0.00    -0.124 C  
HETATM   14  H   UNL     1      -4.409   6.751  67.477  1.00  0.00     0.000 HD 
HETATM   15  O   UNL     1      -9.018   6.636  66.534  1.00  0.00    -0.135 OA 
HETATM   16  C   UNL     1      -6.370  10.554  70.193  1.00  0.00    -0.132 A  
HETATM   17  O   UNL     1      -9.856   7.436  68.421  1.00  0.00    -0.151 OA 
HETATM   18  C   UNL     1      -6.235  11.938  69.987  1.00  0.00    -0.123 A  
ENDROOT
BRANCH  10  19
HETATM   19  N   UNL     1      -8.543  12.464  67.133  1.00  0.00    -0.183 N  
HETATM   20  H   UNL     1      -8.071  12.577  66.235  1.00  0.00     0.000 HD 
BRANCH  19  21
HETATM   21  S   UNL     1     -10.159  13.017  67.346  1.00  0.00    -0.234 S  
HETATM   22  O   UNL     1     -10.070  14.383  67.832  1.00  0.00    -0.223 OA 
HETATM   23  O   UNL     1     -10.887  12.717  66.129  1.00  0.00    -0.265 OA 
BRANCH  21  24
HETATM   24  C   UNL     1     -10.877  12.014  68.637  1.00  0.00    -0.237 A  
HETATM   25  C   UNL     1     -12.228  11.521  70.581  1.00  0.00    -0.473 A  
HETATM   26  N   UNL     1     -10.762  10.725  68.372  1.00  0.00    -0.201 NA 
HETATM   27  F   UNL     1     -12.306   9.465  72.615  1.00  0.00    -0.320 F  
HETATM   28  C   UNL     1     -12.777   9.224  71.353  1.00  0.00    -0.330 C  
HETATM   29  F   UNL     1     -14.127   9.424  71.424  1.00  0.00    -0.378 F  
HETATM   30  C   UNL     1     -11.408   9.887  69.207  1.00  0.00    -0.067 A  
HETATM   31  F   UNL     1     -12.640   7.882  71.243  1.00  0.00    -0.311 F  
HETATM   32  C   UNL     1     -12.139  10.168  70.358  1.00  0.00    -0.332 A  
HETATM   33  C   UNL     1     -11.622  12.463  69.723  1.00  0.00    -0.302 A  
ENDBRANCH  21  24
ENDBRANCH  19  21
ENDBRANCH  10  19
BRANCH  12  34
HETATM   34  C   UNL     1      -8.144   4.573  65.620  1.00  0.00    -0.106 C  
BRANCH  34  35
HETATM   35  C   UNL     1      -8.223   4.003  67.053  1.00  0.00    -0.100 C  
BRANCH  35  36
HETATM   36  C   UNL     1      -9.382   4.568  67.786  1.00  0.00    -0.180 A  
HETATM   37  C   UNL     1     -11.570   5.544  67.839  1.00  0.00     2.093 A  
HETATM   38  C   UNL     1     -10.531   4.963  67.109  1.00  0.00    -0.130 A  
HETATM   39  C   UNL     1     -10.305   5.287  69.880  1.00  0.00    -0.374 A  
HETATM   40  C   UNL     1     -11.460   5.699  69.212  1.00  0.00     0.790 A  
HETATM   41  C   UNL     1      -9.265   4.716  69.163  1.00  0.00    -0.184 A  
ENDBRANCH  35  36
ENDBRANCH  34  35
ENDBRANCH  12  34
BRANCH  12  42
HETATM   42  C   UNL     1      -8.337   6.708  64.192  1.00  0.00     0.141 C  
BRANCH  42  43
HETATM   43  C   UNL     1      -8.154   8.235  64.028  1.00  0.00    -0.128 C  
HETATM   44  C   UNL     1      -8.840   9.248  64.944  1.00  0.00    -0.233 C  
ENDBRANCH  42  43
ENDBRANCH  12  42
TORSDOF 8
ENDMDL
MODEL      183
REMARK 921   NORMALIZED FREE ENERGY PREDICTED BY IDOCK:    4.90 KCAL/MOL
REMARK 922        TOTAL FREE ENERGY PREDICTED BY IDOCK:    5.21 KCAL/MOL
REMARK 923 INTER-LIGAND FREE ENERGY PREDICTED BY IDOCK:    2.84 KCAL/MOL
REMARK 924 INTRA-LIGAND FREE ENERGY PREDICTED BY IDOCK:    2.36 KCAL/MOL
REMARK 927      BINDING AFFINITY PREDICTED BY RF-SCORE:    0.00 PKD
ROOT
HETATM    1  C   UNL     1      -6.969  11.088  68.266  1.00  0.00    -0.069 C  
HETATM    2  C   UNL     1      -8.098  10.095  68.649  1.00  0.00    -0.109 A  
HETATM    3  C   UNL     1      -6.723  11.227  66.749  1.00  0.00    -0.140 C  
HETATM    4  C   UNL     1      -7.041  12.476  68.981  1.00  0.00    -0.037 C  
HETATM    5  C   UNL     1      -6.292   9.955  66.037  1.00  0.00    -0.082 C  
HETATM    6  C   UNL     1      -9.430  10.493  68.870  1.00  0.00    -0.199 A  
HETATM    7  C   UNL     1      -6.394  12.764  70.132  1.00  0.00     0.063 C  
HETATM    8  O   UNL     1      -5.614  11.826  70.788  1.00  0.00    -0.185 OA 
HETATM    9  C   UNL     1      -6.640  14.040  70.960  1.00  0.00     0.540 C  
HETATM   10  C   UNL     1     -10.404   9.593  69.357  1.00  0.00    -0.213 A  
HETATM   11  C   UNL     1     -10.086   8.258  69.550  1.00  0.00    -0.197 A  
HETATM   12  C   UNL     1      -7.528  15.110  70.327  1.00  0.00     0.392 C  
HETATM   13  C   UNL     1      -7.865  13.558  68.375  1.00  0.00    -0.143 C  
HETATM   14  H   UNL     1      -5.159  12.029  71.598  1.00  0.00     0.000 HD 
HETATM   15  O   UNL     1      -8.108  14.689  69.072  1.00  0.00    -0.147 OA 
HETATM   16  C   UNL     1      -7.815   8.722  68.826  1.00  0.00    -0.101 A  
HETATM   17  O   UNL     1      -8.355  13.441  67.260  1.00  0.00    -0.182 OA 
HETATM   18  C   UNL     1      -8.801   7.813  69.251  1.00  0.00    -0.139 A  
ENDROOT
BRANCH  10  19
HETATM   19  N   UNL     1     -11.691  10.080  69.759  1.00  0.00    -0.442 N  
HETATM   20  H   UNL     1     -12.117  10.872  69.277  1.00  0.00     0.000 HD 
BRANCH  19  21
HETATM   21  S   UNL     1     -12.506   9.311  71.064  1.00  0.00    -0.153 S  
HETATM   22  O   UNL     1     -12.177  10.064  72.262  1.00  0.00    -0.061 OA 
HETATM   23  O   UNL     1     -13.889   9.127  70.669  1.00  0.00     0.153 OA 
BRANCH  21  24
HETATM   24  C   UNL     1     -11.795   7.680  71.222  1.00  0.00    -0.292 A  
HETATM   25  C   UNL     1     -10.810   5.780  72.348  1.00  0.00    -0.294 A  
HETATM   26  N   UNL     1     -12.028   6.943  70.151  1.00  0.00    -0.223 NA 
HETATM   27  F   UNL     1      -9.187   3.506  71.598  1.00  0.00    -0.136 F  
HETATM   28  C   UNL     1     -10.525   3.539  71.315  1.00  0.00     0.682 C  
HETATM   29  F   UNL     1     -11.128   2.845  72.327  1.00  0.00     0.072 F  
HETATM   30  C   UNL     1     -11.667   5.647  70.233  1.00  0.00     1.030 A  
HETATM   31  F   UNL     1     -10.616   2.718  70.243  1.00  0.00     0.839 F  
HETATM   32  C   UNL     1     -11.022   4.966  71.262  1.00  0.00     0.236 A  
HETATM   33  C   UNL     1     -11.205   7.135  72.358  1.00  0.00    -0.309 A  
ENDBRANCH  21  24
ENDBRANCH  19  21
ENDBRANCH  10  19
BRANCH  12  34
HETATM   34  C   UNL     1      -6.539  16.252  70.048  1.00  0.00     0.091 C  
BRANCH  34  35
HETATM   35  C   UNL     1      -6.001  16.170  68.602  1.00  0.00    -0.105 C  
BRANCH  35  36
HETATM   36  C   UNL     1      -6.485  17.314  67.791  1.00  0.00    -0.164 A  
HETATM   37  C   UNL     1      -8.160  18.925  67.207  1.00  0.00    -0.277 A  
HETATM   38  C   UNL     1      -7.727  17.890  68.038  1.00  0.00    -0.245 A  
HETATM   39  C   UNL     1      -6.105  18.799  65.946  1.00  0.00    -0.230 A  
HETATM   40  C   UNL     1      -7.354  19.380  66.175  1.00  0.00    -0.288 A  
HETATM   41  C   UNL     1      -5.669  17.765  66.760  1.00  0.00    -0.194 A  
ENDBRANCH  35  36
ENDBRANCH  34  35
ENDBRANCH  12  34
BRANCH  12  42
HETATM   42  C   UNL     1      -8.756  15.654  71.217  1.00  0.00     4.037 C  
BRANCH  42  43
HETATM   43  C   UNL     1     -10.110  15.816  70.489  1.00  0.00     0.338 C  
HETATM   44  C   UNL     1     -10.315  16.811  69.347  1.00  0.00    -0.276 C  
ENDBRANCH  42  43
ENDBRANCH  12  42
TORSDOF 8
ENDMDL
MODEL      184
REMARK 921   NORMALIZED FREE ENERGY PREDICTED BY IDOCK:    5.00 KCAL/MOL
REMARK 922        TOTAL FREE ENERGY PREDICTED BY IDOCK:    5.34 KCAL/MOL
REMARK 923 INTER-LIGAND FREE ENERGY PREDICTED BY IDOCK:    0.84 KCAL/MOL
REMARK 924 INTRA-LIGAND FREE ENERGY PREDICTED BY IDOCK:    4.49 KCAL/MOL
REMARK 927      BINDING AFFINITY PREDICTED BY RF-SCORE:    0.00 PKD
ROOT
HETATM    1  C   UNL     1      -7.324   8.233  69.614  1.00  0.00    -0.073 C  
HETATM    2  C   UNL     1      -7.255   9.771  69.411  1.00  0.00    -0.076 A  
HETATM    3  C   UNL     1      -8.302   7.774  70.715  1.00  0.00    -0.116 C  
HETATM    4  C   UNL     1      -7.481   7.402  68.300  1.00  0.00    -0.109 C  
HETATM    5  C   UNL     1      -7.991   8.274  72.117  1.00  0.00    -0.186 C  
HETATM    6  C   UNL     1      -8.030  10.455  68.456  1.00  0.00    -0.114 A  
HETATM    7  C   UNL     1      -6.443   6.889  67.604  1.00  0.00    -0.050 C  
HETATM    8  O   UNL     1      -5.129   7.079  68.003  1.00  0.00    -0.013 OA 
HETATM    9  C   UNL     1      -6.570   6.271  66.199  1.00  0.00    -0.048 C  
HETATM   10  C   UNL     1      -7.843  11.831  68.194  1.00  0.00    -0.135 A  
HETATM   11  C   UNL     1      -6.937  12.567  68.942  1.00  0.00    -0.088 A  
HETATM   12  C   UNL     1      -7.987   6.068  65.663  1.00  0.00    -0.116 C  
HETATM   13  C   UNL     1      -8.848   7.147  67.767  1.00  0.00    -0.124 C  
HETATM   14  H   UNL     1      -4.399   6.719  67.514  1.00  0.00     0.000 HD 
HETATM   15  O   UNL     1      -9.001   6.613  66.536  1.00  0.00    -0.135 OA 
HETATM   16  C   UNL     1      -6.364  10.556  70.177  1.00  0.00    -0.132 A  
HETATM   17  O   UNL     1      -9.849   7.435  68.409  1.00  0.00    -0.151 OA 
HETATM   18  C   UNL     1      -6.222  11.938  69.958  1.00  0.00    -0.123 A  
ENDROOT
BRANCH  10  19
HETATM   19  N   UNL     1      -8.506  12.444  67.082  1.00  0.00    -0.181 N  
HETATM   20  H   UNL     1      -8.026  12.549  66.187  1.00  0.00     0.000 HD 
BRANCH  19  21
HETATM   21  S   UNL     1     -10.122  13.002  67.275  1.00  0.00    -0.238 S  
HETATM   22  O   UNL     1     -10.802  12.755  66.015  1.00  0.00    -0.270 OA 
HETATM   23  O   UNL     1     -10.635  12.437  68.509  1.00  0.00    -0.223 OA 
BRANCH  21  24
HETATM   24  C   UNL     1     -10.029  14.768  67.518  1.00  0.00    -0.219 A  
HETATM   25  C   UNL     1     -10.569  16.913  68.497  1.00  0.00    -0.367 A  
HETATM   26  N   UNL     1      -8.943  15.278  66.965  1.00  0.00    -0.217 NA 
HETATM   27  F   UNL     1     -10.331  19.691  67.727  1.00  0.00    -0.455 F  
HETATM   28  C   UNL     1      -9.239  18.981  68.148  1.00  0.00    -0.323 C  
HETATM   29  F   UNL     1      -9.101  19.280  69.474  1.00  0.00    -0.209 F  
HETATM   30  C   UNL     1      -8.700  16.579  67.224  1.00  0.00    -0.188 A  
HETATM   31  F   UNL     1      -8.218  19.636  67.547  1.00  0.00    -0.296 F  
HETATM   32  C   UNL     1      -9.457  17.499  67.943  1.00  0.00    -0.277 A  
HETATM   33  C   UNL     1     -10.865  15.546  68.314  1.00  0.00    -0.292 A  
ENDBRANCH  21  24
ENDBRANCH  19  21
ENDBRANCH  10  19
BRANCH  12  34
HETATM   34  C   UNL     1      -8.128   4.538  65.649  1.00  0.00    -0.106 C  
BRANCH  34  35
HETATM   35  C   UNL     1      -8.220   3.982  67.087  1.00  0.00    -0.099 C  
BRANCH  35  36
HETATM   36  C   UNL     1      -9.466   4.434  67.752  1.00  0.00    -0.207 A  
HETATM   37  C   UNL     1     -11.743   5.177  67.681  1.00  0.00     4.003 A  
HETATM   38  C   UNL     1     -10.614   4.698  67.013  1.00  0.00     0.157 A  
HETATM   39  C   UNL     1     -10.563   5.080  69.786  1.00  0.00    -0.042 A  
HETATM   40  C   UNL     1     -11.719   5.361  69.055  1.00  0.00     2.917 A  
HETATM   41  C   UNL     1      -9.434   4.611  69.131  1.00  0.00    -0.224 A  
ENDBRANCH  35  36
ENDBRANCH  34  35
ENDBRANCH  12  34
BRANCH  12  42
HETATM   42  C   UNL     1      -8.302   6.660  64.199  1.00  0.00     0.141 C  
BRANCH  42  43
HETATM   43  C   UNL     1      -7.198   7.535  63.562  1.00  0.00    -0.080 C  
HETATM   44  C   UNL     1      -6.608   8.756  64.267  1.00  0.00    -0.071 C  
ENDBRANCH  42  43
ENDBRANCH  12  42
TORSDOF 8
ENDMDL
MODEL      185
REMARK 921   NORMALIZED FREE ENERGY PREDICTED BY IDOCK:    5.11 KCAL/MOL
REMARK 922        TOTAL FREE ENERGY PREDICTED BY IDOCK:    5.51 KCAL/MOL
REMARK 923 INTER-LIGAND FREE ENERGY PREDICTED BY IDOCK:    5.56 KCAL/MOL
REMARK 924 INTRA-LIGAND FREE ENERGY PREDICTED BY IDOCK:   -0.05 KCAL/MOL
REMARK 927      BINDING AFFINITY PREDICTED BY RF-SCORE:    0.00 PKD
ROOT
HETATM    1  C   UNL     1     -10.570   8.074  66.665  1.00  0.00    -0.074 C  
HETATM    2  C   UNL     1     -10.413   6.614  66.163  1.00  0.00     0.463 A  
HETATM    3  C   UNL     1     -11.084   8.203  68.114  1.00  0.00     0.324 C  
HETATM    4  C   UNL     1      -9.343   9.002  66.389  1.00  0.00    -0.264 C  
HETATM    5  C   UNL     1     -12.463   7.620  68.373  1.00  0.00     5.162 C  
HETATM    6  C   UNL     1      -9.201   5.902  66.237  1.00  0.00    -0.171 A  
HETATM    7  C   UNL     1      -9.221   9.786  65.295  1.00  0.00    -0.238 C  
HETATM    8  O   UNL     1     -10.190   9.815  64.305  1.00  0.00    -0.338 OA 
HETATM    9  C   UNL     1      -7.926  10.521  64.903  1.00  0.00    -0.063 C  
HETATM   10  C   UNL     1      -9.047   4.630  65.642  1.00  0.00    -0.142 A  
HETATM   11  C   UNL     1     -10.129   4.008  65.038  1.00  0.00    -0.203 A  
HETATM   12  C   UNL     1      -6.788  10.500  65.923  1.00  0.00    -0.132 C  
HETATM   13  C   UNL     1      -8.230   9.040  67.379  1.00  0.00    -0.108 C  
HETATM   14  H   UNL     1     -10.105  10.366  63.536  1.00  0.00     0.000 HD 
HETATM   15  O   UNL     1      -7.076   9.669  67.070  1.00  0.00    -0.084 OA 
HETATM   16  C   UNL     1     -11.502   5.940  65.568  1.00  0.00     2.693 A  
HETATM   17  O   UNL     1      -8.323   8.489  68.468  1.00  0.00    -0.121 OA 
HETATM   18  C   UNL     1     -11.367   4.647  65.031  1.00  0.00     0.485 A  
ENDROOT
BRANCH  10  19
HETATM   19  N   UNL     1      -7.750   4.028  65.564  1.00  0.00    -0.085 N  
HETATM   20  H   UNL     1      -7.531   3.364  64.820  1.00  0.00     0.000 HD 
BRANCH  19  21
HETATM   21  S   UNL     1      -6.565   4.438  66.743  1.00  0.00    -0.051 S  
HETATM   22  O   UNL     1      -5.424   3.570  66.506  1.00  0.00    -0.016 OA 
HETATM   23  O   UNL     1      -6.408   5.879  66.721  1.00  0.00    -0.041 OA 
BRANCH  21  24
HETATM   24  C   UNL     1      -7.259   4.020  68.334  1.00  0.00    -0.055 A  
HETATM   25  C   UNL     1      -7.969   4.380  70.618  1.00  0.00    -0.060 A  
HETATM   26  N   UNL     1      -7.946   2.892  68.283  1.00  0.00    -0.061 NA 
HETATM   27  F   UNL     1      -8.494   2.731  72.936  1.00  0.00    -0.067 F  
HETATM   28  C   UNL     1      -9.389   2.798  71.904  1.00  0.00    -0.117 C  
HETATM   29  F   UNL     1     -10.315   3.728  72.286  1.00  0.00    -0.237 F  
HETATM   30  C   UNL     1      -8.638   2.568  69.394  1.00  0.00    -0.068 A  
HETATM   31  F   UNL     1     -10.038   1.615  72.004  1.00  0.00    -0.180 F  
HETATM   32  C   UNL     1      -8.696   3.214  70.626  1.00  0.00    -0.130 A  
HETATM   33  C   UNL     1      -7.258   4.812  69.478  1.00  0.00    -0.055 A  
ENDBRANCH  21  24
ENDBRANCH  19  21
ENDBRANCH  10  19
BRANCH  12  34
HETATM   34  C   UNL     1      -6.719  11.963  66.387  1.00  0.00     0.364 C  
BRANCH  34  35
HETATM   35  C   UNL     1      -8.086  12.429  66.938  1.00  0.00    -0.064 C  
BRANCH  35  36
HETATM   36  C   UNL     1      -7.999  13.810  67.471  1.00  0.00    -0.190 A  
HETATM   37  C   UNL     1      -8.826  15.600  68.833  1.00  0.00    -0.222 A  
HETATM   38  C   UNL     1      -8.917  14.272  68.409  1.00  0.00    -0.189 A  
HETATM   39  C   UNL     1      -6.905  15.944  67.412  1.00  0.00    -0.228 A  
HETATM   40  C   UNL     1      -7.825  16.426  68.344  1.00  0.00    -0.176 A  
HETATM   41  C   UNL     1      -6.991  14.630  66.977  1.00  0.00     0.508 A  
ENDBRANCH  35  36
ENDBRANCH  34  35
ENDBRANCH  12  34
BRANCH  12  42
HETATM   42  C   UNL     1      -5.343  10.027  65.390  1.00  0.00    -0.061 C  
BRANCH  42  43
HETATM   43  C   UNL     1      -5.341   9.088  64.162  1.00  0.00    -0.059 C  
HETATM   44  C   UNL     1      -6.623   8.677  63.439  1.00  0.00    -0.089 C  
ENDBRANCH  42  43
ENDBRANCH  12  42
TORSDOF 8
ENDMDL
MODEL      186
REMARK 921   NORMALIZED FREE ENERGY PREDICTED BY IDOCK:    5.52 KCAL/MOL
REMARK 922        TOTAL FREE ENERGY PREDICTED BY IDOCK:    6.10 KCAL/MOL
REMARK 923 INTER-LIGAND FREE ENERGY PREDICTED BY IDOCK:    6.36 KCAL/MOL
REMARK 924 INTRA-LIGAND FREE ENERGY PREDICTED BY IDOCK:   -0.26 KCAL/MOL
REMARK 927      BINDING AFFINITY PREDICTED BY RF-SCORE:    0.00 PKD
ROOT
HETATM    1  C   UNL     1     -10.975  11.090  68.393  1.00  0.00    -0.281 C  
HETATM    2  C   UNL     1     -10.611  10.007  67.342  1.00  0.00    -0.330 A  
HETATM    3  C   UNL     1     -11.188  10.551  69.823  1.00  0.00    -0.361 C  
HETATM    4  C   UNL     1     -10.068  12.362  68.370  1.00  0.00    -0.217 C  
HETATM    5  C   UNL     1     -12.319   9.548  69.983  1.00  0.00     0.412 C  
HETATM    6  C   UNL     1      -9.285   9.689  66.995  1.00  0.00    -0.167 A  
HETATM    7  C   UNL     1     -10.355  13.479  67.667  1.00  0.00    -0.239 C  
HETATM    8  O   UNL     1     -11.493  13.578  66.883  1.00  0.00    -0.316 OA 
HETATM    9  C   UNL     1      -9.365  14.640  67.455  1.00  0.00    -0.195 C  
HETATM   10  C   UNL     1      -8.985   8.805  65.934  1.00  0.00    -0.195 A  
HETATM   11  C   UNL     1     -10.006   8.155  65.258  1.00  0.00     1.635 A  
HETATM   12  C   UNL     1      -8.061  14.586  68.251  1.00  0.00    -0.140 C  
HETATM   13  C   UNL     1      -8.808  12.364  69.165  1.00  0.00     0.685 C  
HETATM   14  H   UNL     1     -11.695  14.365  66.389  1.00  0.00     0.000 HD 
HETATM   15  O   UNL     1      -7.912  13.360  69.002  1.00  0.00     0.049 OA 
HETATM   16  C   UNL     1     -11.626   9.305  66.655  1.00  0.00     2.907 A  
HETATM   17  O   UNL     1      -8.546  11.463  69.952  1.00  0.00     1.026 OA 
HETATM   18  C   UNL     1     -11.327   8.378  65.640  1.00  0.00     5.942 A  
ENDROOT
BRANCH  10  19
HETATM   19  N   UNL     1      -7.633   8.662  65.481  1.00  0.00    -0.085 N  
HETATM   20  H   UNL     1      -7.430   8.187  64.601  1.00  0.00     0.000 HD 
BRANCH  19  21
HETATM   21  S   UNL     1      -6.358   9.302  66.443  1.00  0.00    -0.066 S  
HETATM   22  O   UNL     1      -5.128   9.088  65.699  1.00  0.00    -0.033 OA 
HETATM   23  O   UNL     1      -6.746  10.638  66.851  1.00  0.00    -0.079 OA 
BRANCH  21  24
HETATM   24  C   UNL     1      -6.287   8.310  67.926  1.00  0.00    -0.053 A  
HETATM   25  C   UNL     1      -6.084   7.856  70.293  1.00  0.00    -0.032 A  
HETATM   26  N   UNL     1      -6.743   7.089  67.716  1.00  0.00    -0.068 NA 
HETATM   27  F   UNL     1      -5.372   5.587  71.940  1.00  0.00    -0.013 F  
HETATM   28  C   UNL     1      -6.600   5.663  71.342  1.00  0.00    -0.045 C  
HETATM   29  F   UNL     1      -7.438   6.165  72.298  1.00  0.00    -0.088 F  
HETATM   30  C   UNL     1      -6.876   6.308  68.807  1.00  0.00    -0.070 A  
HETATM   31  F   UNL     1      -6.953   4.362  71.233  1.00  0.00    -0.031 F  
HETATM   32  C   UNL     1      -6.547   6.572  70.134  1.00  0.00    -0.045 A  
HETATM   33  C   UNL     1      -5.963   8.748  69.207  1.00  0.00    -0.041 A  
ENDBRANCH  21  24
ENDBRANCH  19  21
ENDBRANCH  10  19
BRANCH  12  34
HETATM   34  C   UNL     1      -8.219  15.748  69.243  1.00  0.00    -0.247 C  
BRANCH  34  35
HETATM   35  C   UNL     1      -9.604  16.415  69.091  1.00  0.00    -0.249 C  
BRANCH  35  36
HETATM   36  C   UNL     1      -9.502  17.681  68.324  1.00  0.00    -0.295 A  
HETATM   37  C   UNL     1     -10.240  19.160  66.590  1.00  0.00    -0.491 A  
HETATM   38  C   UNL     1     -10.417  17.984  67.321  1.00  0.00    -0.390 A  
HETATM   39  C   UNL     1      -8.283  19.702  67.896  1.00  0.00    -0.344 A  
HETATM   40  C   UNL     1      -9.187  20.014  66.879  1.00  0.00    -0.497 A  
HETATM   41  C   UNL     1      -8.445  18.533  68.623  1.00  0.00    -0.326 A  
ENDBRANCH  35  36
ENDBRANCH  34  35
ENDBRANCH  12  34
BRANCH  12  42
HETATM   42  C   UNL     1      -6.694  14.760  67.418  1.00  0.00    -0.060 C  
BRANCH  42  43
HETATM   43  C   UNL     1      -5.386  14.765  68.242  1.00  0.00    -0.113 C  
HETATM   44  C   UNL     1      -5.262  14.057  69.591  1.00  0.00    -0.091 C  
ENDBRANCH  42  43
ENDBRANCH  12  42
TORSDOF 8
ENDMDL
MODEL      187
REMARK 921   NORMALIZED FREE ENERGY PREDICTED BY IDOCK:    6.55 KCAL/MOL
REMARK 922        TOTAL FREE ENERGY PREDICTED BY IDOCK:    7.62 KCAL/MOL
REMARK 923 INTER-LIGAND FREE ENERGY PREDICTED BY IDOCK:    7.08 KCAL/MOL
REMARK 924 INTRA-LIGAND FREE ENERGY PREDICTED BY IDOCK:    0.54 KCAL/MOL
REMARK 927      BINDING AFFINITY PREDICTED BY RF-SCORE:    0.00 PKD
ROOT
HETATM    1  C   UNL     1     -11.045   6.681  70.886  1.00  0.00    -0.335 C  
HETATM    2  C   UNL     1     -11.354   8.192  71.067  1.00  0.00    -0.293 A  
HETATM    3  C   UNL     1     -12.162   5.735  71.369  1.00  0.00     0.761 C  
HETATM    4  C   UNL     1     -10.503   6.284  69.475  1.00  0.00    -0.293 C  
HETATM    5  C   UNL     1     -12.501   5.822  72.848  1.00  0.00     0.491 C  
HETATM    6  C   UNL     1     -11.921   8.987  70.055  1.00  0.00     0.397 A  
HETATM    7  C   UNL     1      -9.190   6.210  69.165  1.00  0.00    -0.127 C  
HETATM    8  O   UNL     1      -8.202   6.501  70.093  1.00  0.00    -0.125 OA 
HETATM    9  C   UNL     1      -8.652   6.046  67.731  1.00  0.00    -0.106 C  
HETATM   10  C   UNL     1     -12.059  10.386  70.196  1.00  0.00    -0.256 A  
HETATM   11  C   UNL     1     -11.710  11.004  71.387  1.00  0.00     0.427 A  
HETATM   12  C   UNL     1      -9.683   5.766  66.638  1.00  0.00    -0.157 C  
HETATM   13  C   UNL     1     -11.475   5.965  68.393  1.00  0.00     0.722 C  
HETATM   14  H   UNL     1      -7.278   6.448  69.875  1.00  0.00     0.000 HD 
HETATM   15  O   UNL     1     -11.043   5.821  67.122  1.00  0.00    -0.200 OA 
HETATM   16  C   UNL     1     -11.039   8.848  72.279  1.00  0.00    -0.256 A  
HETATM   17  O   UNL     1     -12.673   5.854  68.621  1.00  0.00     5.393 OA 
HETATM   18  C   UNL     1     -11.233  10.231  72.442  1.00  0.00     3.183 A  
ENDROOT
BRANCH  10  19
HETATM   19  N   UNL     1     -12.452  11.184  69.072  1.00  0.00    -0.166 N  
HETATM   20  H   UNL     1     -13.327  11.709  69.092  1.00  0.00     0.000 HD 
BRANCH  19  21
HETATM   21  S   UNL     1     -11.429  11.244  67.690  1.00  0.00    -0.214 S  
HETATM   22  O   UNL     1     -10.740   9.966  67.627  1.00  0.00    -0.254 OA 
HETATM   23  O   UNL     1     -12.231  11.702  66.572  1.00  0.00    -0.177 OA 
BRANCH  21  24
HETATM   24  C   UNL     1     -10.214  12.514  68.007  1.00  0.00    -0.225 A  
HETATM   25  C   UNL     1      -8.200  13.805  67.655  1.00  0.00    -0.180 A  
HETATM   26  N   UNL     1     -10.678  13.435  68.832  1.00  0.00    -0.225 NA 
HETATM   27  F   UNL     1      -6.497  15.513  69.253  1.00  0.00    -0.113 F  
HETATM   28  C   UNL     1      -7.706  15.958  68.793  1.00  0.00    -0.181 C  
HETATM   29  F   UNL     1      -7.426  16.654  67.650  1.00  0.00    -0.141 F  
HETATM   30  C   UNL     1      -9.895  14.517  69.014  1.00  0.00    -0.138 A  
HETATM   31  F   UNL     1      -8.029  16.911  69.697  1.00  0.00    -0.048 F  
HETATM   32  C   UNL     1      -8.628  14.793  68.508  1.00  0.00    -0.168 A  
HETATM   33  C   UNL     1      -8.983  12.666  67.375  1.00  0.00    -0.190 A  
ENDBRANCH  21  24
ENDBRANCH  19  21
ENDBRANCH  10  19
BRANCH  12  34
HETATM   34  C   UNL     1      -9.367   4.317  66.236  1.00  0.00    -0.165 C  
BRANCH  34  35
HETATM   35  C   UNL     1      -7.931   3.932  66.654  1.00  0.00    -0.096 C  
BRANCH  35  36
HETATM   36  C   UNL     1      -7.005   4.001  65.497  1.00  0.00    -0.062 A  
HETATM   37  C   UNL     1      -5.817   5.230  63.819  1.00  0.00    -0.017 A  
HETATM   38  C   UNL     1      -6.644   5.225  64.944  1.00  0.00    -0.043 A  
HETATM   39  C   UNL     1      -5.712   2.819  63.859  1.00  0.00    -0.010 A  
HETATM   40  C   UNL     1      -5.350   4.039  63.285  1.00  0.00    -0.012 A  
HETATM   41  C   UNL     1      -6.539   2.801  64.971  1.00  0.00    -0.035 A  
ENDBRANCH  35  36
ENDBRANCH  34  35
ENDBRANCH  12  34
BRANCH  12  42
HETATM   42  C   UNL     1      -9.639   6.716  65.338  1.00  0.00     0.798 C  
BRANCH  42  43
HETATM   43  C   UNL     1      -9.229   8.187  65.579  1.00  0.00     0.045 C  
HETATM   44  C   UNL     1      -8.606   8.662  66.891  1.00  0.00    -0.124 C  
ENDBRANCH  42  43
ENDBRANCH  12  42
TORSDOF 8
ENDMDL
MODEL      188
REMARK 921   NORMALIZED FREE ENERGY PREDICTED BY IDOCK:    6.62 KCAL/MOL
REMARK 922        TOTAL FREE ENERGY PREDICTED BY IDOCK:    7.72 KCAL/MOL
REMARK 923 INTER-LIGAND FREE ENERGY PREDICTED BY IDOCK:    5.82 KCAL/MOL
REMARK 924 INTRA-LIGAND FREE ENERGY PREDICTED BY IDOCK:    1.90 KCAL/MOL
REMARK 927      BINDING AFFINITY PREDICTED BY RF-SCORE:    0.00 PKD
ROOT
HETATM    1  C   UNL     1     -11.472  11.932  67.005  1.00  0.00    -0.384 C  
HETATM    2  C   UNL     1     -10.405  11.087  66.261  1.00  0.00    -0.304 A  
HETATM    3  C   UNL     1     -12.305  11.149  68.040  1.00  0.00     0.856 C  
HETATM    4  C   UNL     1     -10.957  13.295  67.571  1.00  0.00    -0.281 C  
HETATM    5  C   UNL     1     -13.130  10.000  67.483  1.00  0.00    10.538 C  
HETATM    6  C   UNL     1      -9.065  10.996  66.683  1.00  0.00    -0.177 A  
HETATM    7  C   UNL     1     -11.034  14.466  66.901  1.00  0.00    -0.308 C  
HETATM    8  O   UNL     1     -11.575  14.547  65.628  1.00  0.00    -0.341 OA 
HETATM    9  C   UNL     1     -10.329  15.761  67.348  1.00  0.00    -0.282 C  
HETATM   10  C   UNL     1      -8.083  10.338  65.909  1.00  0.00    -0.143 A  
HETATM   11  C   UNL     1      -8.440   9.683  64.741  1.00  0.00    -0.168 A  
HETATM   12  C   UNL     1      -9.667  15.742  68.725  1.00  0.00    -0.213 C  
HETATM   13  C   UNL     1     -10.342  13.327  68.927  1.00  0.00    -0.060 C  
HETATM   14  H   UNL     1     -11.629  15.370  65.157  1.00  0.00     0.000 HD 
HETATM   15  O   UNL     1      -9.708  14.441  69.351  1.00  0.00     0.002 OA 
HETATM   16  C   UNL     1     -10.741  10.382  65.083  1.00  0.00     0.122 A  
HETATM   17  O   UNL     1     -10.371  12.352  69.666  1.00  0.00     0.484 OA 
HETATM   18  C   UNL     1      -9.776   9.675  64.344  1.00  0.00     0.101 A  
ENDROOT
BRANCH  10  19
HETATM   19  N   UNL     1      -6.700  10.440  66.270  1.00  0.00    -0.104 N  
HETATM   20  H   UNL     1      -6.055  10.983  65.695  1.00  0.00     0.000 HD 
BRANCH  19  21
HETATM   21  S   UNL     1      -6.144   9.634  67.685  1.00  0.00    -0.052 S  
HETATM   22  O   UNL     1      -5.201   8.621  67.243  1.00  0.00    -0.032 OA 
HETATM   23  O   UNL     1      -5.736  10.651  68.635  1.00  0.00    -0.041 OA 
BRANCH  21  24
HETATM   24  C   UNL     1      -7.558   8.806  68.392  1.00  0.00    -0.095 A  
HETATM   25  C   UNL     1      -9.777   7.847  68.451  1.00  0.00    -0.170 A  
HETATM   26  N   UNL     1      -7.248   8.194  69.521  1.00  0.00    -0.071 NA 
HETATM   27  F   UNL     1     -11.722   7.182  70.486  1.00  0.00    -0.314 F  
HETATM   28  C   UNL     1     -10.622   6.395  70.282  1.00  0.00    -0.237 C  
HETATM   29  F   UNL     1     -11.046   5.383  69.467  1.00  0.00    -0.365 F  
HETATM   30  C   UNL     1      -8.207   7.411  70.055  1.00  0.00    -0.131 A  
HETATM   31  F   UNL     1     -10.455   5.808  71.489  1.00  0.00    -0.244 F  
HETATM   32  C   UNL     1      -9.514   7.191  69.629  1.00  0.00    -0.152 A  
HETATM   33  C   UNL     1      -8.809   8.645  67.805  1.00  0.00    -0.137 A  
ENDBRANCH  21  24
ENDBRANCH  19  21
ENDBRANCH  10  19
BRANCH  12  34
HETATM   34  C   UNL     1     -10.549  16.702  69.539  1.00  0.00    -0.308 C  
BRANCH  34  35
HETATM   35  C   UNL     1     -10.642  16.245  71.013  1.00  0.00     0.701 C  
BRANCH  35  36
HETATM   36  C   UNL     1     -11.899  15.498  71.258  1.00  0.00    -0.453 A  
HETATM   37  C   UNL     1     -13.149  13.458  71.384  1.00  0.00    -0.373 A  
HETATM   38  C   UNL     1     -11.926  14.109  71.204  1.00  0.00    -0.316 A  
HETATM   39  C   UNL     1     -14.257  15.580  71.696  1.00  0.00    -0.523 A  
HETATM   40  C   UNL     1     -14.301  14.186  71.634  1.00  0.00    -0.375 A  
HETATM   41  C   UNL     1     -13.050  16.237  71.511  1.00  0.00     0.873 A  
ENDBRANCH  35  36
ENDBRANCH  34  35
ENDBRANCH  12  34
BRANCH  12  42
HETATM   42  C   UNL     1      -8.129  16.217  68.799  1.00  0.00    -0.227 C  
BRANCH  42  43
HETATM   43  C   UNL     1      -7.858  17.707  68.490  1.00  0.00    -0.282 C  
HETATM   44  C   UNL     1      -6.489  18.218  68.044  1.00  0.00    -0.193 C  
ENDBRANCH  42  43
ENDBRANCH  12  42
TORSDOF 8
ENDMDL
MODEL      189
REMARK 921   NORMALIZED FREE ENERGY PREDICTED BY IDOCK:    7.28 KCAL/MOL
REMARK 922        TOTAL FREE ENERGY PREDICTED BY IDOCK:    8.69 KCAL/MOL
REMARK 923 INTER-LIGAND FREE ENERGY PREDICTED BY IDOCK:    8.30 KCAL/MOL
REMARK 924 INTRA-LIGAND FREE ENERGY PREDICTED BY IDOCK:    0.38 KCAL/MOL
REMARK 927      BINDING AFFINITY PREDICTED BY RF-SCORE:    0.00 PKD
ROOT
HETATM    1  C   UNL     1      -9.880  18.338  69.149  1.00  0.00    -0.174 C  
HETATM    2  C   UNL     1      -8.359  18.443  68.854  1.00  0.00    -0.177 A  
HETATM    3  C   UNL     1     -10.768  19.240  68.268  1.00  0.00    -0.142 C  
HETATM    4  C   UNL     1     -10.433  16.881  69.250  1.00  0.00    -0.319 C  
HETATM    5  C   UNL     1     -10.514  20.733  68.393  1.00  0.00     0.339 C  
HETATM    6  C   UNL     1      -7.686  17.574  67.976  1.00  0.00    -0.211 A  
HETATM    7  C   UNL     1     -10.539  16.193  70.408  1.00  0.00    -0.052 C  
HETATM    8  O   UNL     1     -10.142  16.736  71.620  1.00  0.00     3.298 OA 
HETATM    9  C   UNL     1     -10.863  14.689  70.490  1.00  0.00     0.117 C  
HETATM   10  C   UNL     1      -6.280  17.599  67.836  1.00  0.00    -0.160 A  
HETATM   11  C   UNL     1      -5.529  18.552  68.507  1.00  0.00    -0.181 A  
HETATM   12  C   UNL     1     -11.268  14.002  69.187  1.00  0.00    -0.269 C  
HETATM   13  C   UNL     1     -10.876  16.190  68.007  1.00  0.00    -0.333 C  
HETATM   14  H   UNL     1     -10.217  16.252  72.435  1.00  0.00     0.000 HD 
HETATM   15  O   UNL     1     -11.162  14.870  68.037  1.00  0.00    -0.282 OA 
HETATM   16  C   UNL     1      -7.569  19.421  69.498  1.00  0.00    -0.042 A  
HETATM   17  O   UNL     1     -10.963  16.784  66.941  1.00  0.00    -0.107 OA 
HETATM   18  C   UNL     1      -6.177  19.487  69.312  1.00  0.00    -0.328 A  
ENDROOT
BRANCH  10  19
HETATM   19  N   UNL     1      -5.616  16.572  67.090  1.00  0.00    -0.137 N  
HETATM   20  H   UNL     1      -4.880  16.809  66.424  1.00  0.00     0.000 HD 
BRANCH  19  21
HETATM   21  S   UNL     1      -6.077  14.932  67.332  1.00  0.00     0.341 S  
HETATM   22  O   UNL     1      -5.127  14.119  66.592  1.00  0.00     1.169 OA 
HETATM   23  O   UNL     1      -6.258  14.735  68.758  1.00  0.00    -0.080 OA 
BRANCH  21  24
HETATM   24  C   UNL     1      -7.683  14.734  66.577  1.00  0.00     0.908 A  
HETATM   25  C   UNL     1      -9.580  15.316  65.195  1.00  0.00     0.134 A  
HETATM   26  N   UNL     1      -8.111  13.487  66.665  1.00  0.00     0.310 NA 
HETATM   27  F   UNL     1     -12.373  14.579  65.048  1.00  0.00    -0.390 F  
HETATM   28  C   UNL     1     -11.399  13.737  64.586  1.00  0.00    -0.372 C  
HETATM   29  F   UNL     1     -11.331  13.965  63.240  1.00  0.00     0.183 F  
HETATM   30  C   UNL     1      -9.242  13.199  65.991  1.00  0.00     0.098 A  
HETATM   31  F   UNL     1     -11.988  12.523  64.692  1.00  0.00    -0.370 F  
HETATM   32  C   UNL     1     -10.076  14.036  65.256  1.00  0.00    -0.345 A  
HETATM   33  C   UNL     1      -8.376  15.683  65.832  1.00  0.00     0.672 A  
ENDBRANCH  21  24
ENDBRANCH  19  21
ENDBRANCH  10  19
BRANCH  12  34
HETATM   34  C   UNL     1     -12.753  13.680  69.419  1.00  0.00     0.441 C  
BRANCH  34  35
HETATM   35  C   UNL     1     -13.068  12.223  69.015  1.00  0.00     2.464 C  
BRANCH  35  36
HETATM   36  C   UNL     1     -12.976  11.317  70.185  1.00  0.00     0.125 A  
HETATM   37  C   UNL     1     -12.233   9.293  71.231  1.00  0.00    -0.410 A  
HETATM   38  C   UNL     1     -12.238  10.139  70.120  1.00  0.00    -0.188 A  
HETATM   39  C   UNL     1     -13.655  10.829  72.434  1.00  0.00     0.224 A  
HETATM   40  C   UNL     1     -12.929   9.638  72.379  1.00  0.00    -0.358 A  
HETATM   41  C   UNL     1     -13.674  11.673  71.334  1.00  0.00     0.754 A  
ENDBRANCH  35  36
ENDBRANCH  34  35
ENDBRANCH  12  34
BRANCH  12  42
HETATM   42  C   UNL     1     -10.472  12.657  68.797  1.00  0.00    -0.167 C  
BRANCH  42  43
HETATM   43  C   UNL     1      -9.414  12.169  69.813  1.00  0.00     2.059 C  
HETATM   44  C   UNL     1      -8.253  11.259  69.417  1.00  0.00     0.264 C  
ENDBRANCH  42  43
ENDBRANCH  12  42
TORSDOF 8
ENDMDL
MODEL      190
REMARK 921   NORMALIZED FREE ENERGY PREDICTED BY IDOCK:    8.98 KCAL/MOL
REMARK 922        TOTAL FREE ENERGY PREDICTED BY IDOCK:   11.19 KCAL/MOL
REMARK 923 INTER-LIGAND FREE ENERGY PREDICTED BY IDOCK:   10.67 KCAL/MOL
REMARK 924 INTRA-LIGAND FREE ENERGY PREDICTED BY IDOCK:    0.52 KCAL/MOL
REMARK 927      BINDING AFFINITY PREDICTED BY RF-SCORE:    0.00 PKD
ROOT
HETATM    1  C   UNL     1     -11.287  13.194  70.215  1.00  0.00     0.265 C  
HETATM    2  C   UNL     1     -11.870  14.370  69.387  1.00  0.00    -0.369 A  
HETATM    3  C   UNL     1     -12.190  12.712  71.370  1.00  0.00     0.164 C  
HETATM    4  C   UNL     1     -10.726  12.006  69.369  1.00  0.00     0.022 C  
HETATM    5  C   UNL     1     -12.492  13.747  72.441  1.00  0.00    -0.017 C  
HETATM    6  C   UNL     1     -12.610  14.185  68.204  1.00  0.00     0.512 A  
HETATM    7  C   UNL     1      -9.433  11.894  68.994  1.00  0.00     0.241 C  
HETATM    8  O   UNL     1      -8.488  12.852  69.325  1.00  0.00    -0.051 OA 
HETATM    9  C   UNL     1      -8.919  10.858  67.976  1.00  0.00    -0.145 C  
HETATM   10  C   UNL     1     -13.004  15.273  67.394  1.00  0.00     2.684 A  
HETATM   11  C   UNL     1     -12.741  16.573  67.797  1.00  0.00     3.081 A  
HETATM   12  C   UNL     1      -9.913   9.789  67.522  1.00  0.00    -0.184 C  
HETATM   13  C   UNL     1     -11.654  10.923  68.941  1.00  0.00    -0.309 C  
HETATM   14  H   UNL     1      -7.579  12.773  69.062  1.00  0.00     0.000 HD 
HETATM   15  O   UNL     1     -11.243  10.001  68.045  1.00  0.00    -0.244 OA 
HETATM   16  C   UNL     1     -11.646  15.707  69.784  1.00  0.00    -0.360 A  
HETATM   17  O   UNL     1     -12.801  10.860  69.364  1.00  0.00    -0.201 OA 
HETATM   18  C   UNL     1     -12.092  16.793  69.010  1.00  0.00     1.211 A  
ENDROOT
BRANCH  10  19
HETATM   19  N   UNL     1     -13.576  15.034  66.103  1.00  0.00     1.872 N  
HETATM   20  H   UNL     1     -14.576  15.171  65.947  1.00  0.00     0.000 HD 
BRANCH  19  21
HETATM   21  S   UNL     1     -12.556  14.513  64.819  1.00  0.00    -0.060 S  
HETATM   22  O   UNL     1     -12.876  13.117  64.573  1.00  0.00    -0.680 OA 
HETATM   23  O   UNL     1     -12.662  15.490  63.752  1.00  0.00    -0.596 OA 
BRANCH  21  24
HETATM   24  C   UNL     1     -10.880  14.598  65.430  1.00  0.00    -0.356 A  
HETATM   25  C   UNL     1      -8.578  13.916  65.718  1.00  0.00     1.512 A  
HETATM   26  N   UNL     1     -10.604  15.790  65.926  1.00  0.00    -0.329 NA 
HETATM   27  F   UNL     1      -6.476  14.388  67.648  1.00  0.00    -0.148 F  
HETATM   28  C   UNL     1      -6.815  15.344  66.730  1.00  0.00     0.687 C  
HETATM   29  F   UNL     1      -5.920  15.199  65.707  1.00  0.00     4.149 F  
HETATM   30  C   UNL     1      -9.319  16.006  66.273  1.00  0.00    -0.322 A  
HETATM   31  F   UNL     1      -6.439  16.487  67.348  1.00  0.00    -0.129 F  
HETATM   32  C   UNL     1      -8.233  15.136  66.246  1.00  0.00     0.416 A  
HETATM   33  C   UNL     1      -9.891  13.630  65.286  1.00  0.00    -0.135 A  
ENDBRANCH  21  24
ENDBRANCH  19  21
ENDBRANCH  10  19
BRANCH  12  34
HETATM   34  C   UNL     1      -9.343   8.507  68.148  1.00  0.00    -0.145 C  
BRANCH  34  35
HETATM   35  C   UNL     1      -7.818   8.414  67.917  1.00  0.00    -0.107 C  
BRANCH  35  36
HETATM   36  C   UNL     1      -7.493   8.529  66.474  1.00  0.00    -0.088 A  
HETATM   37  C   UNL     1      -7.309   7.598  64.274  1.00  0.00    -0.093 A  
HETATM   38  C   UNL     1      -7.686   7.455  65.611  1.00  0.00    -0.104 A  
HETATM   39  C   UNL     1      -6.599   9.867  64.695  1.00  0.00    -0.119 A  
HETATM   40  C   UNL     1      -6.776   8.794  63.819  1.00  0.00    -0.088 A  
HETATM   41  C   UNL     1      -6.963   9.734  66.026  1.00  0.00    -0.099 A  
ENDBRANCH  35  36
ENDBRANCH  34  35
ENDBRANCH  12  34
BRANCH  12  42
HETATM   42  C   UNL     1     -10.091   9.590  65.934  1.00  0.00    -0.284 C  
BRANCH  42  43
HETATM   43  C   UNL     1     -10.462  10.852  65.123  1.00  0.00    -0.316 C  
HETATM   44  C   UNL     1     -10.649  10.830  63.607  1.00  0.00    -0.072 C  
ENDBRANCH  42  43
ENDBRANCH  12  42
TORSDOF 8
ENDMDL
MODEL      191
REMARK 921   NORMALIZED FREE ENERGY PREDICTED BY IDOCK:    9.16 KCAL/MOL
REMARK 922        TOTAL FREE ENERGY PREDICTED BY IDOCK:   11.45 KCAL/MOL
REMARK 923 INTER-LIGAND FREE ENERGY PREDICTED BY IDOCK:    7.35 KCAL/MOL
REMARK 924 INTRA-LIGAND FREE ENERGY PREDICTED BY IDOCK:    4.10 KCAL/MOL
REMARK 927      BINDING AFFINITY PREDICTED BY RF-SCORE:    0.00 PKD
ROOT
HETATM    1  C   UNL     1      -8.487  10.763  70.350  1.00  0.00     1.785 C  
HETATM    2  C   UNL     1      -8.965   9.369  70.837  1.00  0.00    -0.198 A  
HETATM    3  C   UNL     1      -6.959  10.894  70.180  1.00  0.00     0.073 C  
HETATM    4  C   UNL     1      -9.269  11.337  69.125  1.00  0.00     0.095 C  
HETATM    5  C   UNL     1      -6.139  10.693  71.444  1.00  0.00     0.459 C  
HETATM    6  C   UNL     1      -9.372   8.346  69.960  1.00  0.00    -0.159 A  
HETATM    7  C   UNL     1     -10.340  12.154  69.231  1.00  0.00     0.242 C  
HETATM    8  O   UNL     1     -10.847  12.540  70.462  1.00  0.00     0.825 OA 
HETATM    9  C   UNL     1     -11.251  12.536  68.049  1.00  0.00    -0.316 C  
HETATM   10  C   UNL     1      -9.938   7.141  70.433  1.00  0.00    -0.187 A  
HETATM   11  C   UNL     1     -10.027   6.900  71.796  1.00  0.00    -0.183 A  
HETATM   12  C   UNL     1     -10.787  12.107  66.657  1.00  0.00    -0.268 C  
HETATM   13  C   UNL     1      -8.824  10.975  67.751  1.00  0.00    -0.133 C  
HETATM   14  H   UNL     1     -11.600  13.115  70.536  1.00  0.00     0.000 HD 
HETATM   15  O   UNL     1      -9.598  11.287  66.689  1.00  0.00    -0.189 OA 
HETATM   16  C   UNL     1      -9.040   9.079  72.218  1.00  0.00     0.260 A  
HETATM   17  O   UNL     1      -7.776  10.373  67.555  1.00  0.00    -0.094 OA 
HETATM   18  C   UNL     1      -9.546   7.854  72.689  1.00  0.00    -0.290 A  
ENDROOT
BRANCH  10  19
HETATM   19  N   UNL     1     -10.523   6.214  69.511  1.00  0.00    -0.226 N  
HETATM   20  H   UNL     1     -10.610   5.227  69.755  1.00  0.00     0.000 HD 
BRANCH  19  21
HETATM   21  S   UNL     1     -11.074   6.788  67.985  1.00  0.00    -0.088 S  
HETATM   22  O   UNL     1     -12.509   6.563  67.950  1.00  0.00     3.291 OA 
HETATM   23  O   UNL     1     -10.535   8.121  67.799  1.00  0.00    -0.229 OA 
BRANCH  21  24
HETATM   24  C   UNL     1     -10.320   5.750  66.744  1.00  0.00    -0.256 A  
HETATM   25  C   UNL     1     -10.191   4.445  64.712  1.00  0.00    -0.091 A  
HETATM   26  N   UNL     1      -9.004   5.750  66.844  1.00  0.00    -0.113 NA 
HETATM   27  F   UNL     1      -8.516   2.322  63.685  1.00  0.00    -0.081 F  
HETATM   28  C   UNL     1      -8.070   3.615  63.719  1.00  0.00    -0.089 C  
HETATM   29  F   UNL     1      -8.302   4.112  62.467  1.00  0.00    -0.071 F  
HETATM   30  C   UNL     1      -8.332   5.121  65.859  1.00  0.00    -0.118 A  
HETATM   31  F   UNL     1      -6.727   3.458  63.775  1.00  0.00    -0.034 F  
HETATM   32  C   UNL     1      -8.819   4.408  64.767  1.00  0.00    -0.145 A  
HETATM   33  C   UNL     1     -10.962   5.125  65.678  1.00  0.00     0.175 A  
ENDBRANCH  21  24
ENDBRANCH  19  21
ENDBRANCH  10  19
BRANCH  12  34
HETATM   34  C   UNL     1     -10.436  13.446  65.988  1.00  0.00    -0.294 C  
BRANCH  34  35
HETATM   35  C   UNL     1     -10.308  13.277  64.458  1.00  0.00    -0.394 C  
BRANCH  35  36
HETATM   36  C   UNL     1      -9.242  12.303  64.120  1.00  0.00     0.575 A  
HETATM   37  C   UNL     1      -7.177  11.186  64.600  1.00  0.00     0.942 A  
HETATM   38  C   UNL     1      -8.185  12.069  64.993  1.00  0.00     1.717 A  
HETATM   39  C   UNL     1      -8.321  10.777  62.514  1.00  0.00    -0.249 A  
HETATM   40  C   UNL     1      -7.248  10.542  63.375  1.00  0.00     0.055 A  
HETATM   41  C   UNL     1      -9.323  11.659  62.890  1.00  0.00    -0.157 A  
ENDBRANCH  35  36
ENDBRANCH  34  35
ENDBRANCH  12  34
BRANCH  12  42
HETATM   42  C   UNL     1     -11.850  11.305  65.752  1.00  0.00     0.797 C  
BRANCH  42  43
HETATM   43  C   UNL     1     -12.381  12.045  64.503  1.00  0.00    -0.300 C  
HETATM   44  C   UNL     1     -12.943  11.308  63.288  1.00  0.00     1.009 C  
ENDBRANCH  42  43
ENDBRANCH  12  42
TORSDOF 8
ENDMDL
MODEL      192
REMARK 921   NORMALIZED FREE ENERGY PREDICTED BY IDOCK:   11.12 KCAL/MOL
REMARK 922        TOTAL FREE ENERGY PREDICTED BY IDOCK:   14.33 KCAL/MOL
REMARK 923 INTER-LIGAND FREE ENERGY PREDICTED BY IDOCK:   11.84 KCAL/MOL
REMARK 924 INTRA-LIGAND FREE ENERGY PREDICTED BY IDOCK:    2.48 KCAL/MOL
REMARK 927      BINDING AFFINITY PREDICTED BY RF-SCORE:    0.00 PKD
ROOT
HETATM    1  C   UNL     1     -10.696  11.012  67.837  1.00  0.00    -0.263 C  
HETATM    2  C   UNL     1      -9.920  12.318  67.514  1.00  0.00    -0.201 A  
HETATM    3  C   UNL     1      -9.849   9.726  67.758  1.00  0.00    -0.191 C  
HETATM    4  C   UNL     1     -11.568  11.067  69.132  1.00  0.00    -0.389 C  
HETATM    5  C   UNL     1      -9.248   9.419  66.396  1.00  0.00    -0.215 C  
HETATM    6  C   UNL     1      -9.325  13.122  68.503  1.00  0.00    -0.085 A  
HETATM    7  C   UNL     1     -12.876  11.407  69.146  1.00  0.00     1.073 C  
HETATM    8  O   UNL     1     -13.554  11.756  67.988  1.00  0.00     5.581 OA 
HETATM    9  C   UNL     1     -13.679  11.686  70.430  1.00  0.00     2.329 C  
HETATM   10  C   UNL     1      -8.751  14.376  68.197  1.00  0.00    -0.175 A  
HETATM   11  C   UNL     1      -8.684  14.810  66.882  1.00  0.00    -0.264 A  
HETATM   12  C   UNL     1     -12.987  11.370  71.756  1.00  0.00    -0.414 C  
HETATM   13  C   UNL     1     -10.941  10.727  70.439  1.00  0.00     0.020 C  
HETATM   14  H   UNL     1     -14.473  11.994  67.998  1.00  0.00     0.000 HD 
HETATM   15  O   UNL     1     -11.610  10.963  71.588  1.00  0.00     0.420 OA 
HETATM   16  C   UNL     1      -9.808  12.774  66.182  1.00  0.00    -0.269 A  
HETATM   17  O   UNL     1      -9.812  10.259  70.504  1.00  0.00     0.092 OA 
HETATM   18  C   UNL     1      -9.181  13.994  65.869  1.00  0.00     0.127 A  
ENDROOT
BRANCH  10  19
HETATM   19  N   UNL     1      -8.337  15.251  69.254  1.00  0.00    -0.235 N  
HETATM   20  H   UNL     1      -7.777  14.897  70.030  1.00  0.00     0.000 HD 
BRANCH  19  21
HETATM   21  S   UNL     1      -8.799  16.908  69.196  1.00  0.00     0.015 S  
HETATM   22  O   UNL     1     -10.249  16.933  69.117  1.00  0.00    -0.283 OA 
HETATM   23  O   UNL     1      -8.110  17.592  70.273  1.00  0.00     2.141 OA 
BRANCH  21  24
HETATM   24  C   UNL     1      -8.149  17.568  67.669  1.00  0.00    -0.207 A  
HETATM   25  C   UNL     1      -7.741  19.223  65.954  1.00  0.00    -0.235 A  
HETATM   26  N   UNL     1      -7.193  16.801  67.176  1.00  0.00    -0.166 NA 
HETATM   27  F   UNL     1      -6.995  19.209  63.159  1.00  0.00     2.224 F  
HETATM   28  C   UNL     1      -6.068  18.966  64.136  1.00  0.00     0.257 C  
HETATM   29  F   UNL     1      -5.446  20.164  64.353  1.00  0.00    -0.173 F  
HETATM   30  C   UNL     1      -6.531  17.289  66.108  1.00  0.00    -0.123 A  
HETATM   31  F   UNL     1      -5.145  18.222  63.483  1.00  0.00    -0.077 F  
HETATM   32  C   UNL     1      -6.741  18.466  65.395  1.00  0.00    -0.176 A  
HETATM   33  C   UNL     1      -8.446  18.804  67.102  1.00  0.00    -0.283 A  
ENDBRANCH  21  24
ENDBRANCH  19  21
ENDBRANCH  10  19
BRANCH  12  34
HETATM   34  C   UNL     1     -13.788  10.168  72.280  1.00  0.00    -0.007 C  
BRANCH  34  35
HETATM   35  C   UNL     1     -13.566   8.928  71.386  1.00  0.00    -0.311 C  
BRANCH  35  36
HETATM   36  C   UNL     1     -12.631   7.972  72.029  1.00  0.00    -0.346 A  
HETATM   37  C   UNL     1     -12.170   5.906  73.151  1.00  0.00     0.776 A  
HETATM   38  C   UNL     1     -13.079   6.743  72.502  1.00  0.00     0.474 A  
HETATM   39  C   UNL     1     -10.407   7.520  72.805  1.00  0.00    -0.331 A  
HETATM   40  C   UNL     1     -10.845   6.288  73.295  1.00  0.00    -0.269 A  
HETATM   41  C   UNL     1     -11.304   8.362  72.166  1.00  0.00    -0.437 A  
ENDBRANCH  35  36
ENDBRANCH  34  35
ENDBRANCH  12  34
BRANCH  12  42
HETATM   42  C   UNL     1     -12.967  12.540  72.862  1.00  0.00     1.590 C  
BRANCH  42  43
HETATM   43  C   UNL     1     -11.952  13.683  72.632  1.00  0.00     1.306 C  
HETATM   44  C   UNL     1     -12.377  15.145  72.502  1.00  0.00    -0.460 C  
ENDBRANCH  42  43
ENDBRANCH  12  42
TORSDOF 8
ENDMDL
MODEL      193
REMARK 921   NORMALIZED FREE ENERGY PREDICTED BY IDOCK:   13.59 KCAL/MOL
REMARK 922        TOTAL FREE ENERGY PREDICTED BY IDOCK:   17.96 KCAL/MOL
REMARK 923 INTER-LIGAND FREE ENERGY PREDICTED BY IDOCK:   18.05 KCAL/MOL
REMARK 924 INTRA-LIGAND FREE ENERGY PREDICTED BY IDOCK:   -0.10 KCAL/MOL
REMARK 927      BINDING AFFINITY PREDICTED BY RF-SCORE:    0.00 PKD
ROOT
HETATM    1  C   UNL     1      -7.023  11.349  69.829  1.00  0.00     0.033 C  
HETATM    2  C   UNL     1      -7.848  12.661  69.746  1.00  0.00     1.561 A  
HETATM    3  C   UNL     1      -6.195  11.191  71.120  1.00  0.00     0.689 C  
HETATM    4  C   UNL     1      -7.815  10.050  69.471  1.00  0.00    -0.155 C  
HETATM    5  C   UNL     1      -5.136  12.256  71.354  1.00  0.00    -0.105 C  
HETATM    6  C   UNL     1      -9.194  12.750  70.149  1.00  0.00     4.132 A  
HETATM    7  C   UNL     1      -7.856   9.508  68.234  1.00  0.00    -0.086 C  
HETATM    8  O   UNL     1      -7.196  10.086  67.161  1.00  0.00    -0.088 OA 
HETATM    9  C   UNL     1      -8.809   8.370  67.824  1.00  0.00    -0.137 C  
HETATM   10  C   UNL     1      -9.961  13.916  69.930  1.00  0.00     1.193 A  
HETATM   11  C   UNL     1      -9.373  15.045  69.382  1.00  0.00    -0.120 A  
HETATM   12  C   UNL     1      -9.610   7.707  68.944  1.00  0.00    -0.150 C  
HETATM   13  C   UNL     1      -8.576   9.351  70.544  1.00  0.00    -0.223 C  
HETATM   14  H   UNL     1      -7.225   9.705  66.290  1.00  0.00     0.000 HD 
HETATM   15  O   UNL     1      -9.427   8.352  70.224  1.00  0.00    -0.161 OA 
HETATM   16  C   UNL     1      -7.271  13.839  69.220  1.00  0.00     0.041 A  
HETATM   17  O   UNL     1      -8.470   9.676  71.719  1.00  0.00     0.255 OA 
HETATM   18  C   UNL     1      -8.018  15.019  69.059  1.00  0.00    -0.180 A  
ENDROOT
BRANCH  10  19
HETATM   19  N   UNL     1     -11.374  13.898  70.169  1.00  0.00    -0.484 N  
HETATM   20  H   UNL     1     -11.768  14.385  70.974  1.00  0.00     0.000 HD 
BRANCH  19  21
HETATM   21  S   UNL     1     -12.396  13.044  69.079  1.00  0.00     0.308 S  
HETATM   22  O   UNL     1     -12.027  11.642  69.175  1.00  0.00    -0.323 OA 
HETATM   23  O   UNL     1     -13.759  13.464  69.339  1.00  0.00     2.972 OA 
BRANCH  21  24
HETATM   24  C   UNL     1     -11.985  13.615  67.438  1.00  0.00    -0.376 A  
HETATM   25  C   UNL     1     -11.471  13.435  65.082  1.00  0.00    -0.316 A  
HETATM   26  N   UNL     1     -12.199  14.912  67.307  1.00  0.00    -0.009 NA 
HETATM   27  F   UNL     1     -10.158  15.071  63.090  1.00  0.00     4.620 F  
HETATM   28  C   UNL     1     -11.427  15.360  63.512  1.00  0.00     1.587 C  
HETATM   29  F   UNL     1     -12.255  14.795  62.582  1.00  0.00     1.170 F  
HETATM   30  C   UNL     1     -12.067  15.412  66.062  1.00  0.00     0.601 A  
HETATM   31  F   UNL     1     -11.516  16.690  63.279  1.00  0.00     1.139 F  
HETATM   32  C   UNL     1     -11.675  14.779  64.886  1.00  0.00    -0.390 A  
HETATM   33  C   UNL     1     -11.637  12.827  66.344  1.00  0.00    -0.435 A  
ENDBRANCH  21  24
ENDBRANCH  19  21
ENDBRANCH  10  19
BRANCH  12  34
HETATM   34  C   UNL     1      -8.994   6.301  69.016  1.00  0.00    -0.123 C  
BRANCH  34  35
HETATM   35  C   UNL     1      -8.470   6.003  70.439  1.00  0.00    -0.132 C  
BRANCH  35  36
HETATM   36  C   UNL     1      -9.591   5.712  71.366  1.00  0.00    -0.188 A  
HETATM   37  C   UNL     1     -11.929   5.496  71.844  1.00  0.00     0.381 A  
HETATM   38  C   UNL     1     -10.908   5.718  70.918  1.00  0.00    -0.326 A  
HETATM   39  C   UNL     1     -10.300   5.237  73.608  1.00  0.00    -0.264 A  
HETATM   40  C   UNL     1     -11.627   5.252  73.175  1.00  0.00    -0.251 A  
HETATM   41  C   UNL     1      -9.279   5.465  72.698  1.00  0.00    -0.145 A  
ENDBRANCH  35  36
ENDBRANCH  34  35
ENDBRANCH  12  34
BRANCH  12  42
HETATM   42  C   UNL     1     -11.202   7.596  68.731  1.00  0.00     0.352 C  
BRANCH  42  43
HETATM   43  C   UNL     1     -11.676   7.139  67.333  1.00  0.00     1.331 C  
HETATM   44  C   UNL     1     -11.484   5.710  66.826  1.00  0.00     0.853 C  
ENDBRANCH  42  43
ENDBRANCH  12  42
TORSDOF 8
ENDMDL
MODEL      194
REMARK 921   NORMALIZED FREE ENERGY PREDICTED BY IDOCK:   20.08 KCAL/MOL
REMARK 922        TOTAL FREE ENERGY PREDICTED BY IDOCK:   27.48 KCAL/MOL
REMARK 923 INTER-LIGAND FREE ENERGY PREDICTED BY IDOCK:   24.88 KCAL/MOL
REMARK 924 INTRA-LIGAND FREE ENERGY PREDICTED BY IDOCK:    2.61 KCAL/MOL
REMARK 927      BINDING AFFINITY PREDICTED BY RF-SCORE:    0.00 PKD
ROOT
HETATM    1  C   UNL     1     -10.304  10.687  70.423  1.00  0.00     0.433 C  
HETATM    2  C   UNL     1     -10.690  12.144  70.793  1.00  0.00     3.306 A  
HETATM    3  C   UNL     1     -11.502   9.749  70.174  1.00  0.00    -0.272 C  
HETATM    4  C   UNL     1      -9.210  10.556  69.315  1.00  0.00    -0.164 C  
HETATM    5  C   UNL     1     -12.435   9.548  71.357  1.00  0.00    -0.450 C  
HETATM    6  C   UNL     1     -10.793  13.177  69.842  1.00  0.00     0.556 A  
HETATM    7  C   UNL     1      -7.888  10.447  69.571  1.00  0.00    -0.155 C  
HETATM    8  O   UNL     1      -7.389  10.460  70.864  1.00  0.00    -0.326 OA 
HETATM    9  C   UNL     1      -6.792  10.549  68.493  1.00  0.00    -0.064 C  
HETATM   10  C   UNL     1     -11.005  14.521  70.222  1.00  0.00     0.037 A  
HETATM   11  C   UNL     1     -11.204  14.845  71.555  1.00  0.00    -0.121 A  
HETATM   12  C   UNL     1      -7.259  10.586  67.038  1.00  0.00    -0.098 C  
HETATM   13  C   UNL     1      -9.628  10.548  67.886  1.00  0.00    -0.150 C  
HETATM   14  H   UNL     1      -6.459  10.383  71.043  1.00  0.00     0.000 HD 
HETATM   15  O   UNL     1      -8.698  10.642  66.912  1.00  0.00    -0.130 OA 
HETATM   16  C   UNL     1     -10.929  12.504  72.138  1.00  0.00     8.321 A  
HETATM   17  O   UNL     1     -10.808  10.484  67.565  1.00  0.00    -0.262 OA 
HETATM   18  C   UNL     1     -11.201  13.832  72.511  1.00  0.00     3.709 A  
ENDROOT
BRANCH  10  19
HETATM   19  N   UNL     1     -10.903  15.565  69.247  1.00  0.00    -0.235 N  
HETATM   20  H   UNL     1     -10.030  16.080  69.129  1.00  0.00     0.000 HD 
BRANCH  19  21
HETATM   21  S   UNL     1     -12.275  15.940  68.277  1.00  0.00     0.817 S  
HETATM   22  O   UNL     1     -13.438  15.444  68.992  1.00  0.00     1.769 OA 
HETATM   23  O   UNL     1     -12.181  17.339  67.909  1.00  0.00     1.510 OA 
BRANCH  21  24
HETATM   24  C   UNL     1     -12.108  14.998  66.769  1.00  0.00     0.142 A  
HETATM   25  C   UNL     1     -11.037  13.550  65.155  1.00  0.00    -0.326 A  
HETATM   26  N   UNL     1     -13.275  14.819  66.177  1.00  0.00     0.935 NA 
HETATM   27  F   UNL     1     -11.318  12.985  62.332  1.00  0.00     0.849 F  
HETATM   28  C   UNL     1     -12.209  12.484  63.242  1.00  0.00    -0.413 C  
HETATM   29  F   UNL     1     -11.780  11.215  63.510  1.00  0.00    -0.358 F  
HETATM   30  C   UNL     1     -13.280  13.990  65.113  1.00  0.00     0.141 A  
HETATM   31  F   UNL     1     -13.323  12.313  62.493  1.00  0.00     0.262 F  
HETATM   32  C   UNL     1     -12.221  13.331  64.495  1.00  0.00    -0.456 A  
HETATM   33  C   UNL     1     -10.959  14.365  66.305  1.00  0.00    -0.318 A  
ENDBRANCH  21  24
ENDBRANCH  19  21
ENDBRANCH  10  19
BRANCH  12  34
HETATM   34  C   UNL     1      -6.775   9.235  66.491  1.00  0.00    -0.072 C  
BRANCH  34  35
HETATM   35  C   UNL     1      -7.831   8.614  65.549  1.00  0.00    -0.099 C  
BRANCH  35  36
HETATM   36  C   UNL     1      -8.243   9.583  64.504  1.00  0.00    -0.152 A  
HETATM   37  C   UNL     1      -9.838  10.439  62.933  1.00  0.00    -0.156 A  
HETATM   38  C   UNL     1      -9.521   9.542  63.956  1.00  0.00     0.141 A  
HETATM   39  C   UNL     1      -7.627  11.401  63.064  1.00  0.00     0.897 A  
HETATM   40  C   UNL     1      -8.901  11.363  62.496  1.00  0.00    -0.151 A  
HETATM   41  C   UNL     1      -7.299  10.509  64.074  1.00  0.00     0.116 A  
ENDBRANCH  35  36
ENDBRANCH  34  35
ENDBRANCH  12  34
BRANCH  12  42
HETATM   42  C   UNL     1      -6.691  11.783  66.123  1.00  0.00     0.559 C  
BRANCH  42  43
HETATM   43  C   UNL     1      -7.642  12.978  65.890  1.00  0.00     3.049 C  
HETATM   44  C   UNL     1      -7.298  14.401  66.330  1.00  0.00     2.257 C  
ENDBRANCH  42  43
ENDBRANCH  12  42
TORSDOF 8
ENDMDL
MODEL      195
REMARK 921   NORMALIZED FREE ENERGY PREDICTED BY IDOCK:   25.00 KCAL/MOL
REMARK 922        TOTAL FREE ENERGY PREDICTED BY IDOCK:   34.70 KCAL/MOL
REMARK 923 INTER-LIGAND FREE ENERGY PREDICTED BY IDOCK:   24.95 KCAL/MOL
REMARK 924 INTRA-LIGAND FREE ENERGY PREDICTED BY IDOCK:    9.76 KCAL/MOL
REMARK 927      BINDING AFFINITY PREDICTED BY RF-SCORE:    0.00 PKD
ROOT
HETATM    1  C   UNL     1      -7.871   7.206  68.374  1.00  0.00    -0.122 C  
HETATM    2  C   UNL     1      -7.188   6.557  69.607  1.00  0.00    -0.078 A  
HETATM    3  C   UNL     1      -8.697   6.231  67.510  1.00  0.00    -0.105 C  
HETATM    4  C   UNL     1      -8.643   8.533  68.669  1.00  0.00    -0.135 C  
HETATM    5  C   UNL     1      -7.917   5.087  66.885  1.00  0.00    -0.104 C  
HETATM    6  C   UNL     1      -7.771   6.540  70.888  1.00  0.00    -0.101 A  
HETATM    7  C   UNL     1      -8.099   9.764  68.550  1.00  0.00    -0.104 C  
HETATM    8  O   UNL     1      -6.781   9.946  68.161  1.00  0.00    -0.060 OA 
HETATM    9  C   UNL     1      -8.771  11.054  69.055  1.00  0.00    -0.072 C  
HETATM   10  C   UNL     1      -7.067   6.072  72.020  1.00  0.00    -0.087 A  
HETATM   11  C   UNL     1      -5.798   5.532  71.878  1.00  0.00    -0.025 A  
HETATM   12  C   UNL     1     -10.213  10.932  69.544  1.00  0.00    -0.062 C  
HETATM   13  C   UNL     1     -10.063   8.458  69.110  1.00  0.00    -0.203 C  
HETATM   14  H   UNL     1      -6.398  10.812  68.077  1.00  0.00     0.000 HD 
HETATM   15  O   UNL     1     -10.685   9.566  69.566  1.00  0.00    -0.218 OA 
HETATM   16  C   UNL     1      -5.907   5.972  69.492  1.00  0.00    -0.020 A  
HETATM   17  O   UNL     1     -10.683   7.403  69.096  1.00  0.00    -0.217 OA 
HETATM   18  C   UNL     1      -5.231   5.449  70.609  1.00  0.00    -0.005 A  
ENDROOT
BRANCH  10  19
HETATM   19  N   UNL     1      -7.615   6.257  73.331  1.00  0.00    -0.095 N  
HETATM   20  H   UNL     1      -7.010   6.501  74.115  1.00  0.00     0.000 HD 
BRANCH  19  21
HETATM   21  S   UNL     1      -9.309   6.060  73.564  1.00  0.00    -0.135 S  
HETATM   22  O   UNL     1      -9.484   4.843  74.337  1.00  0.00    -0.120 OA 
HETATM   23  O   UNL     1      -9.832   7.321  74.051  1.00  0.00    -0.292 OA 
BRANCH  21  24
HETATM   24  C   UNL     1     -10.021   5.798  71.948  1.00  0.00    -0.177 A  
HETATM   25  C   UNL     1     -10.756   4.543  70.016  1.00  0.00     0.927 A  
HETATM   26  N   UNL     1     -10.707   6.851  71.542  1.00  0.00    -0.222 NA 
HETATM   27  F   UNL     1     -11.308   5.107  67.233  1.00  0.00     0.210 F  
HETATM   28  C   UNL     1     -12.191   5.470  68.212  1.00  0.00     6.279 C  
HETATM   29  F   UNL     1     -13.121   4.470  68.251  1.00  0.00    14.301 F  
HETATM   30  C   UNL     1     -11.412   6.698  70.403  1.00  0.00    -0.386 A  
HETATM   31  F   UNL     1     -12.841   6.513  67.645  1.00  0.00     4.152 F  
HETATM   32  C   UNL     1     -11.483   5.607  69.542  1.00  0.00     0.680 A  
HETATM   33  C   UNL     1     -10.033   4.608  71.225  1.00  0.00    -0.268 A  
ENDBRANCH  21  24
ENDBRANCH  19  21
ENDBRANCH  10  19
BRANCH  12  34
HETATM   34  C   UNL     1     -11.002  11.702  68.474  1.00  0.00    -0.264 C  
BRANCH  34  35
HETATM   35  C   UNL     1     -11.488  13.062  69.023  1.00  0.00    -0.353 C  
BRANCH  35  36
HETATM   36  C   UNL     1     -10.634  14.169  68.527  1.00  0.00    -0.257 A  
HETATM   37  C   UNL     1      -8.760  15.646  68.747  1.00  0.00    -0.197 A  
HETATM   38  C   UNL     1      -9.496  14.560  69.225  1.00  0.00     0.069 A  
HETATM   39  C   UNL     1     -10.286  15.889  66.891  1.00  0.00    -0.277 A  
HETATM   40  C   UNL     1      -9.148  16.300  67.587  1.00  0.00    -0.194 A  
HETATM   41  C   UNL     1     -11.028  14.816  67.362  1.00  0.00    -0.313 A  
ENDBRANCH  35  36
ENDBRANCH  34  35
ENDBRANCH  12  34
BRANCH  12  42
HETATM   42  C   UNL     1     -10.539  11.533  71.002  1.00  0.00     3.700 C  
BRANCH  42  43
HETATM   43  C   UNL     1     -11.971  11.297  71.536  1.00  0.00     0.370 C  
HETATM   44  C   UNL     1     -12.968  10.377  70.833  1.00  0.00    -0.475 C  
ENDBRANCH  42  43
ENDBRANCH  12  42
TORSDOF 8
ENDMDL
MODEL      196
REMARK 921   NORMALIZED FREE ENERGY PREDICTED BY IDOCK:   26.27 KCAL/MOL
REMARK 922        TOTAL FREE ENERGY PREDICTED BY IDOCK:   36.57 KCAL/MOL
REMARK 923 INTER-LIGAND FREE ENERGY PREDICTED BY IDOCK:    1.90 KCAL/MOL
REMARK 924 INTRA-LIGAND FREE ENERGY PREDICTED BY IDOCK:   34.67 KCAL/MOL
REMARK 927      BINDING AFFINITY PREDICTED BY RF-SCORE:    0.00 PKD
ROOT
HETATM    1  C   UNL     1     -11.494  13.790  68.156  1.00  0.00    -0.348 C  
HETATM    2  C   UNL     1      -9.978  13.917  67.848  1.00  0.00    -0.242 A  
HETATM    3  C   UNL     1     -12.400  13.738  66.910  1.00  0.00    -0.328 C  
HETATM    4  C   UNL     1     -11.864  12.690  69.203  1.00  0.00    -0.349 C  
HETATM    5  C   UNL     1     -12.352  14.964  66.013  1.00  0.00     0.174 C  
HETATM    6  C   UNL     1      -9.117  12.807  67.757  1.00  0.00    -0.197 A  
HETATM    7  C   UNL     1     -11.994  12.923  70.527  1.00  0.00    -0.198 C  
HETATM    8  O   UNL     1     -11.788  14.180  71.073  1.00  0.00    -0.453 OA 
HETATM    9  C   UNL     1     -12.129  11.813  71.587  1.00  0.00     0.620 C  
HETATM   10  C   UNL     1      -7.719  12.959  67.619  1.00  0.00    -0.162 A  
HETATM   11  C   UNL     1      -7.165  14.222  67.483  1.00  0.00    -0.197 A  
HETATM   12  C   UNL     1     -12.315  10.387  71.069  1.00  0.00    -0.387 C  
HETATM   13  C   UNL     1     -12.092  11.295  68.733  1.00  0.00    -0.190 C  
HETATM   14  H   UNL     1     -11.879  14.344  72.004  1.00  0.00     0.000 HD 
HETATM   15  O   UNL     1     -12.210  10.294  69.631  1.00  0.00    -0.116 OA 
HETATM   16  C   UNL     1      -9.385  15.187  67.675  1.00  0.00    -0.189 A  
HETATM   17  O   UNL     1     -12.152  11.023  67.541  1.00  0.00    -0.344 OA 
HETATM   18  C   UNL     1      -8.001  15.336  67.475  1.00  0.00    -0.197 A  
ENDROOT
BRANCH  10  19
HETATM   19  N   UNL     1      -6.860  11.817  67.731  1.00  0.00    -0.083 N  
HETATM   20  H   UNL     1      -6.355  11.633  68.598  1.00  0.00     0.000 HD 
BRANCH  19  21
HETATM   21  S   UNL     1      -6.694  10.761  66.382  1.00  0.00    -0.135 S  
HETATM   22  O   UNL     1      -7.748  11.112  65.446  1.00  0.00     0.123 OA 
HETATM   23  O   UNL     1      -5.304  10.795  65.970  1.00  0.00    -0.086 OA 
BRANCH  21  24
HETATM   24  C   UNL     1      -7.012   9.110  66.983  1.00  0.00    -0.081 A  
HETATM   25  C   UNL     1      -6.526   7.001  68.062  1.00  0.00    -0.047 A  
HETATM   26  N   UNL     1      -8.306   8.848  67.023  1.00  0.00    -0.106 NA 
HETATM   27  F   UNL     1      -7.610   4.319  68.012  1.00  0.00    -0.066 F  
HETATM   28  C   UNL     1      -8.248   5.324  68.687  1.00  0.00    -0.093 C  
HETATM   29  F   UNL     1      -7.849   5.197  69.988  1.00  0.00    -0.072 F  
HETATM   30  C   UNL     1      -8.659   7.685  67.606  1.00  0.00    -0.116 A  
HETATM   31  F   UNL     1      -9.534   4.902  68.687  1.00  0.00    -0.140 F  
HETATM   32  C   UNL     1      -7.858   6.673  68.127  1.00  0.00    -0.110 A  
HETATM   33  C   UNL     1      -6.080   8.221  67.512  1.00  0.00    -0.052 A  
ENDBRANCH  21  24
ENDBRANCH  19  21
ENDBRANCH  10  19
BRANCH  12  34
HETATM   34  C   UNL     1     -13.762  10.064  71.473  1.00  0.00    -0.176 C  
BRANCH  34  35
HETATM   35  C   UNL     1     -14.351  11.190  72.353  1.00  0.00     1.287 C  
BRANCH  35  36
HETATM   36  C   UNL     1     -13.496  12.401  72.306  1.00  0.00    -0.428 A  
HETATM   37  C   UNL     1     -11.732  13.771  73.174  1.00  0.00     2.262 A  
HETATM   38  C   UNL     1     -12.469  12.586  73.226  1.00  0.00     4.894 A  
HETATM   39  C   UNL     1     -13.035  14.522  71.285  1.00  0.00    -0.403 A  
HETATM   40  C   UNL     1     -12.008  14.727  72.209  1.00  0.00    -0.323 A  
HETATM   41  C   UNL     1     -13.778  13.353  71.333  1.00  0.00     0.018 A  
ENDBRANCH  35  36
ENDBRANCH  34  35
ENDBRANCH  12  34
BRANCH  12  42
HETATM   42  C   UNL     1     -11.320   9.265  71.657  1.00  0.00    -0.467 C  
BRANCH  42  43
HETATM   43  C   UNL     1     -11.701   7.795  71.370  1.00  0.00    -0.310 C  
HETATM   44  C   UNL     1     -11.088   6.623  72.136  1.00  0.00    -0.288 C  
ENDBRANCH  42  43
ENDBRANCH  12  42
TORSDOF 8
ENDMDL
MODEL      197
REMARK 921   NORMALIZED FREE ENERGY PREDICTED BY IDOCK:   26.87 KCAL/MOL
REMARK 922        TOTAL FREE ENERGY PREDICTED BY IDOCK:   37.45 KCAL/MOL
REMARK 923 INTER-LIGAND FREE ENERGY PREDICTED BY IDOCK:   22.44 KCAL/MOL
REMARK 924 INTRA-LIGAND FREE ENERGY PREDICTED BY IDOCK:   15.01 KCAL/MOL
REMARK 927      BINDING AFFINITY PREDICTED BY RF-SCORE:    0.00 PKD
ROOT
HETATM    1  C   UNL     1     -12.326  14.322  64.514  1.00  0.00    -0.432 C  
HETATM    2  C   UNL     1     -11.402  13.113  64.207  1.00  0.00    -0.427 A  
HETATM    3  C   UNL     1     -13.829  14.054  64.294  1.00  0.00     3.881 C  
HETATM    4  C   UNL     1     -12.046  15.037  65.874  1.00  0.00     0.142 C  
HETATM    5  C   UNL     1     -14.229  13.691  62.874  1.00  0.00     8.915 C  
HETATM    6  C   UNL     1     -10.979  12.201  65.191  1.00  0.00    -0.355 A  
HETATM    7  C   UNL     1     -11.227  16.104  66.011  1.00  0.00     0.205 C  
HETATM    8  O   UNL     1     -10.547  16.646  64.933  1.00  0.00    -0.694 OA 
HETATM    9  C   UNL     1     -10.767  16.667  67.369  1.00  0.00    -0.253 C  
HETATM   10  C   UNL     1     -10.025  11.196  64.914  1.00  0.00    -0.278 A  
HETATM   11  C   UNL     1      -9.542  11.030  63.625  1.00  0.00    -0.324 A  
HETATM   12  C   UNL     1     -11.438  16.090  68.615  1.00  0.00    -0.377 C  
HETATM   13  C   UNL     1     -12.711  14.529  67.106  1.00  0.00     0.803 C  
HETATM   14  H   UNL     1      -9.971  17.396  65.029  1.00  0.00     0.000 HD 
HETATM   15  O   UNL     1     -12.331  14.994  68.316  1.00  0.00    -0.043 OA 
HETATM   16  C   UNL     1     -10.915  12.897  62.899  1.00  0.00     1.317 A  
HETATM   17  O   UNL     1     -13.585  13.674  67.056  1.00  0.00     2.700 OA 
HETATM   18  C   UNL     1     -10.012  11.857  62.609  1.00  0.00     0.545 A  
ENDROOT
BRANCH  10  19
HETATM   19  N   UNL     1      -9.471  10.419  65.983  1.00  0.00    -0.176 N  
HETATM   20  H   UNL     1      -9.348  10.829  66.910  1.00  0.00     0.000 HD 
BRANCH  19  21
HETATM   21  S   UNL     1      -9.017   8.787  65.683  1.00  0.00    -0.181 S  
HETATM   22  O   UNL     1      -9.973   8.259  64.724  1.00  0.00     1.831 OA 
HETATM   23  O   UNL     1      -7.598   8.775  65.387  1.00  0.00    -0.084 OA 
BRANCH  21  24
HETATM   24  C   UNL     1      -9.230   7.905  67.221  1.00  0.00    -0.142 A  
HETATM   25  C   UNL     1      -8.870   7.378  69.553  1.00  0.00    -0.137 A  
HETATM   26  N   UNL     1     -10.317   7.154  67.204  1.00  0.00    -0.257 NA 
HETATM   27  F   UNL     1      -9.240   5.077  71.266  1.00  0.00    -0.146 F  
HETATM   28  C   UNL     1     -10.306   5.840  70.875  1.00  0.00    -0.237 C  
HETATM   29  F   UNL     1     -10.526   6.712  71.905  1.00  0.00    -0.207 F  
HETATM   30  C   UNL     1     -10.651   6.568  68.371  1.00  0.00    -0.246 A  
HETATM   31  F   UNL     1     -11.335   4.964  70.949  1.00  0.00     0.171 F  
HETATM   32  C   UNL     1      -9.987   6.580  69.595  1.00  0.00    -0.186 A  
HETATM   33  C   UNL     1      -8.482   8.065  68.384  1.00  0.00    -0.127 A  
ENDBRANCH  21  24
ENDBRANCH  19  21
ENDBRANCH  10  19
BRANCH  12  34
HETATM   34  C   UNL     1     -12.273  17.272  69.131  1.00  0.00     3.283 C  
BRANCH  34  35
HETATM   35  C   UNL     1     -11.413  18.552  69.223  1.00  0.00     3.423 C  
BRANCH  35  36
HETATM   36  C   UNL     1     -10.093  18.352  68.578  1.00  0.00    -0.413 A  
HETATM   37  C   UNL     1      -8.616  17.142  67.130  1.00  0.00    -0.221 A  
HETATM   38  C   UNL     1      -9.894  17.322  67.664  1.00  0.00    -0.279 A  
HETATM   39  C   UNL     1      -7.797  19.025  68.399  1.00  0.00    -0.372 A  
HETATM   40  C   UNL     1      -7.580  17.989  67.490  1.00  0.00    -0.214 A  
HETATM   41  C   UNL     1      -9.060  19.209  68.941  1.00  0.00    -0.350 A  
ENDBRANCH  35  36
ENDBRANCH  34  35
ENDBRANCH  12  34
BRANCH  12  42
HETATM   42  C   UNL     1     -10.464  15.557  69.783  1.00  0.00    -0.308 C  
BRANCH  42  43
HETATM   43  C   UNL     1     -10.097  14.056  69.735  1.00  0.00     0.676 C  
HETATM   44  C   UNL     1     -10.837  13.002  70.558  1.00  0.00     2.020 C  
ENDBRANCH  42  43
ENDBRANCH  12  42
TORSDOF 8
ENDMDL
MODEL      198
REMARK 921   NORMALIZED FREE ENERGY PREDICTED BY IDOCK:   27.53 KCAL/MOL
REMARK 922        TOTAL FREE ENERGY PREDICTED BY IDOCK:   38.41 KCAL/MOL
REMARK 923 INTER-LIGAND FREE ENERGY PREDICTED BY IDOCK:    8.54 KCAL/MOL
REMARK 924 INTRA-LIGAND FREE ENERGY PREDICTED BY IDOCK:   29.87 KCAL/MOL
REMARK 927      BINDING AFFINITY PREDICTED BY RF-SCORE:    0.00 PKD
ROOT
HETATM    1  C   UNL     1     -11.652  16.492  65.877  1.00  0.00     1.020 C  
HETATM    2  C   UNL     1     -10.931  17.866  65.862  1.00  0.00     0.238 A  
HETATM    3  C   UNL     1     -12.013  15.940  64.483  1.00  0.00     0.006 C  
HETATM    4  C   UNL     1     -10.988  15.409  66.787  1.00  0.00    -0.282 C  
HETATM    5  C   UNL     1     -12.965  16.798  63.665  1.00  0.00     6.344 C  
HETATM    6  C   UNL     1      -9.530  17.999  65.882  1.00  0.00     0.096 A  
HETATM    7  C   UNL     1     -11.337  15.188  68.073  1.00  0.00    -0.337 C  
HETATM    8  O   UNL     1     -12.322  15.933  68.702  1.00  0.00    -0.432 OA 
HETATM    9  C   UNL     1     -10.540  14.291  69.040  1.00  0.00    -0.243 C  
HETATM   10  C   UNL     1      -8.904  19.259  66.013  1.00  0.00    -0.119 A  
HETATM   11  C   UNL     1      -9.665  20.417  66.038  1.00  0.00    -0.252 A  
HETATM   12  C   UNL     1      -9.404  13.468  68.434  1.00  0.00    -0.171 C  
HETATM   13  C   UNL     1      -9.904  14.558  66.222  1.00  0.00    -0.304 C  
HETATM   14  H   UNL     1     -12.568  15.777  69.607  1.00  0.00     0.000 HD 
HETATM   15  O   UNL     1      -9.179  13.763  67.037  1.00  0.00    -0.232 OA 
HETATM   16  C   UNL     1     -11.676  19.067  65.857  1.00  0.00     2.474 A  
HETATM   17  O   UNL     1      -9.631  14.579  65.029  1.00  0.00    -0.007 OA 
HETATM   18  C   UNL     1     -11.050  20.325  65.925  1.00  0.00     0.408 A  
ENDROOT
BRANCH  10  19
HETATM   19  N   UNL     1      -7.490  19.336  66.232  1.00  0.00    -0.259 N  
HETATM   20  H   UNL     1      -6.848  19.423  65.443  1.00  0.00     0.000 HD 
BRANCH  19  21
HETATM   21  S   UNL     1      -6.889  19.279  67.844  1.00  0.00    -0.239 S  
HETATM   22  O   UNL     1      -5.533  19.797  67.801  1.00  0.00    -0.184 OA 
HETATM   23  O   UNL     1      -7.883  19.895  68.702  1.00  0.00    -0.276 OA 
BRANCH  21  24
HETATM   24  C   UNL     1      -6.810  17.555  68.301  1.00  0.00    -0.200 A  
HETATM   25  C   UNL     1      -7.648  15.395  68.994  1.00  0.00    -0.177 A  
HETATM   26  N   UNL     1      -5.658  17.013  67.953  1.00  0.00    -0.118 NA 
HETATM   27  F   UNL     1      -6.561  13.028  70.251  1.00  0.00    -0.036 F  
HETATM   28  C   UNL     1      -6.319  13.297  68.931  1.00  0.00    -0.096 C  
HETATM   29  F   UNL     1      -7.245  12.570  68.237  1.00  0.00    -0.082 F  
HETATM   30  C   UNL     1      -5.557  15.678  68.114  1.00  0.00    -0.120 A  
HETATM   31  F   UNL     1      -5.150  12.651  68.711  1.00  0.00    -0.055 F  
HETATM   32  C   UNL     1      -6.470  14.776  68.655  1.00  0.00    -0.084 A  
HETATM   33  C   UNL     1      -7.848  16.779  68.809  1.00  0.00    -0.243 A  
ENDBRANCH  21  24
ENDBRANCH  19  21
ENDBRANCH  10  19
BRANCH  12  34
HETATM   34  C   UNL     1      -9.929  12.028  68.547  1.00  0.00    -0.188 C  
BRANCH  34  35
HETATM   35  C   UNL     1      -9.287  11.303  69.751  1.00  0.00     1.049 C  
BRANCH  35  36
HETATM   36  C   UNL     1      -9.927   9.984  69.978  1.00  0.00    -0.273 A  
HETATM   37  C   UNL     1     -10.463   7.754  69.284  1.00  0.00    -0.221 A  
HETATM   38  C   UNL     1      -9.792   8.956  69.050  1.00  0.00    -0.182 A  
HETATM   39  C   UNL     1     -11.342   8.625  71.358  1.00  0.00    -0.350 A  
HETATM   40  C   UNL     1     -11.226   7.588  70.430  1.00  0.00    -0.270 A  
HETATM   41  C   UNL     1     -10.686   9.825  71.131  1.00  0.00    -0.284 A  
ENDBRANCH  35  36
ENDBRANCH  34  35
ENDBRANCH  12  34
BRANCH  12  42
HETATM   42  C   UNL     1      -7.964  13.582  69.146  1.00  0.00     0.326 C  
BRANCH  42  43
HETATM   43  C   UNL     1      -7.916  14.382  70.468  1.00  0.00     1.781 C  
HETATM   44  C   UNL     1      -6.731  14.311  71.429  1.00  0.00     1.115 C  
ENDBRANCH  42  43
ENDBRANCH  12  42
TORSDOF 8
ENDMDL
MODEL      199
REMARK 921   NORMALIZED FREE ENERGY PREDICTED BY IDOCK:   41.09 KCAL/MOL
REMARK 922        TOTAL FREE ENERGY PREDICTED BY IDOCK:   58.32 KCAL/MOL
REMARK 923 INTER-LIGAND FREE ENERGY PREDICTED BY IDOCK:   56.60 KCAL/MOL
REMARK 924 INTRA-LIGAND FREE ENERGY PREDICTED BY IDOCK:    1.72 KCAL/MOL
REMARK 927      BINDING AFFINITY PREDICTED BY RF-SCORE:    0.00 PKD
ROOT
HETATM    1  C   UNL     1     -10.763  10.969  68.070  1.00  0.00    -0.260 C  
HETATM    2  C   UNL     1      -9.897  12.226  67.793  1.00  0.00    -0.201 A  
HETATM    3  C   UNL     1     -10.157   9.646  67.559  1.00  0.00    -0.247 C  
HETATM    4  C   UNL     1     -11.300  10.846  69.532  1.00  0.00    -0.351 C  
HETATM    5  C   UNL     1      -9.934   9.564  66.057  1.00  0.00    -0.348 C  
HETATM    6  C   UNL     1      -8.979  12.747  68.725  1.00  0.00     0.169 A  
HETATM    7  C   UNL     1     -12.505  11.308  69.934  1.00  0.00    -0.153 C  
HETATM    8  O   UNL     1     -13.369  11.952  69.063  1.00  0.00     1.993 OA 
HETATM    9  C   UNL     1     -12.944  11.399  71.408  1.00  0.00    -0.468 C  
HETATM   10  C   UNL     1      -8.310  13.972  68.506  1.00  0.00    -0.143 A  
HETATM   11  C   UNL     1      -8.481  14.656  67.312  1.00  0.00    -0.234 A  
HETATM   12  C   UNL     1     -12.022  10.750  72.441  1.00  0.00     2.324 C  
HETATM   13  C   UNL     1     -10.449  10.185  70.560  1.00  0.00    -0.105 C  
HETATM   14  H   UNL     1     -14.216  12.277  69.346  1.00  0.00     0.000 HD 
HETATM   15  O   UNL     1     -10.796  10.248  71.863  1.00  0.00     1.124 OA 
HETATM   16  C   UNL     1     -10.024  12.931  66.576  1.00  0.00    -0.259 A  
HETATM   17  O   UNL     1      -9.417   9.601  70.257  1.00  0.00    -0.242 OA 
HETATM   18  C   UNL     1      -9.312  14.119  66.331  1.00  0.00    -0.254 A  
ENDROOT
BRANCH  10  19
HETATM   19  N   UNL     1      -7.541  14.566  69.559  1.00  0.00    -0.364 N  
HETATM   20  H   UNL     1      -6.602  14.228  69.768  1.00  0.00     0.000 HD 
BRANCH  19  21
HETATM   21  S   UNL     1      -8.225  15.859  70.466  1.00  0.00     2.446 S  
HETATM   22  O   UNL     1      -9.252  15.276  71.312  1.00  0.00     1.955 OA 
HETATM   23  O   UNL     1      -7.131  16.609  71.051  1.00  0.00     2.650 OA 
BRANCH  21  24
HETATM   24  C   UNL     1      -9.023  16.942  69.292  1.00  0.00     0.035 A  
HETATM   25  C   UNL     1     -10.508  18.692  68.530  1.00  0.00    -0.187 A  
HETATM   26  N   UNL     1      -8.383  16.962  68.137  1.00  0.00    -0.205 NA 
HETATM   27  F   UNL     1     -11.759  19.442  66.032  1.00  0.00     0.427 F  
HETATM   28  C   UNL     1     -10.433  19.695  66.258  1.00  0.00    -0.519 C  
HETATM   29  F   UNL     1     -10.379  20.992  66.684  1.00  0.00    -0.249 F  
HETATM   30  C   UNL     1      -8.815  17.866  67.234  1.00  0.00    -0.243 A  
HETATM   31  F   UNL     1      -9.926  19.730  65.004  1.00  0.00     0.211 F  
HETATM   32  C   UNL     1      -9.885  18.754  67.307  1.00  0.00    -0.355 A  
HETATM   33  C   UNL     1     -10.083  17.808  69.544  1.00  0.00     0.126 A  
ENDBRANCH  21  24
ENDBRANCH  19  21
ENDBRANCH  10  19
BRANCH  12  34
HETATM   34  C   UNL     1     -12.852   9.555  72.934  1.00  0.00     0.455 C  
BRANCH  34  35
HETATM   35  C   UNL     1     -12.701   8.350  71.979  1.00  0.00    -0.399 C  
BRANCH  35  36
HETATM   36  C   UNL     1     -11.992   7.231  72.646  1.00  0.00    -0.061 A  
HETATM   37  C   UNL     1     -10.349   6.389  74.173  1.00  0.00    -0.335 A  
HETATM   38  C   UNL     1     -11.029   7.475  73.620  1.00  0.00     0.143 A  
HETATM   39  C   UNL     1     -11.627   4.865  72.804  1.00  0.00    -0.147 A  
HETATM   40  C   UNL     1     -10.650   5.095  73.774  1.00  0.00    -0.331 A  
HETATM   41  C   UNL     1     -12.303   5.937  72.242  1.00  0.00     0.045 A  
ENDBRANCH  35  36
ENDBRANCH  34  35
ENDBRANCH  12  34
BRANCH  12  42
HETATM   42  C   UNL     1     -11.578  11.662  73.692  1.00  0.00    14.144 C  
BRANCH  42  43
HETATM   43  C   UNL     1     -10.192  12.339  73.588  1.00  0.00    24.456 C  
HETATM   44  C   UNL     1     -10.014  13.774  73.096  1.00  0.00    10.554 C  
ENDBRANCH  42  43
ENDBRANCH  12  42
TORSDOF 8
ENDMDL
MODEL      200
REMARK 921   NORMALIZED FREE ENERGY PREDICTED BY IDOCK:   46.39 KCAL/MOL
REMARK 922        TOTAL FREE ENERGY PREDICTED BY IDOCK:   66.09 KCAL/MOL
REMARK 923 INTER-LIGAND FREE ENERGY PREDICTED BY IDOCK:   59.65 KCAL/MOL
REMARK 924 INTRA-LIGAND FREE ENERGY PREDICTED BY IDOCK:    6.44 KCAL/MOL
REMARK 927      BINDING AFFINITY PREDICTED BY RF-SCORE:    0.00 PKD
ROOT
HETATM    1  C   UNL     1      -9.311  11.929  71.534  1.00  0.00    13.785 C  
HETATM    2  C   UNL     1      -9.344  10.399  71.795  1.00  0.00     5.457 A  
HETATM    3  C   UNL     1      -7.925  12.581  71.710  1.00  0.00    13.317 C  
HETATM    4  C   UNL     1     -10.018  12.389  70.218  1.00  0.00     3.572 C  
HETATM    5  C   UNL     1      -7.322  12.475  73.102  1.00  0.00    11.862 C  
HETATM    6  C   UNL     1      -9.204   9.442  70.772  1.00  0.00    -0.278 A  
HETATM    7  C   UNL     1     -11.309  12.782  70.154  1.00  0.00     0.252 C  
HETATM    8  O   UNL     1     -12.127  12.792  71.272  1.00  0.00    -0.276 OA 
HETATM    9  C   UNL     1     -12.073  13.014  68.836  1.00  0.00    -0.207 C  
HETATM   10  C   UNL     1      -9.381   8.062  71.015  1.00  0.00    -0.149 A  
HETATM   11  C   UNL     1      -9.617   7.605  72.302  1.00  0.00    -0.215 A  
HETATM   12  C   UNL     1     -11.251  12.975  67.549  1.00  0.00    -0.284 C  
HETATM   13  C   UNL     1      -9.239  12.403  68.949  1.00  0.00     0.288 C  
HETATM   14  H   UNL     1     -13.036  13.068  71.227  1.00  0.00     0.000 HD 
HETATM   15  O   UNL     1      -9.874  12.597  67.773  1.00  0.00    -0.201 OA 
HETATM   16  C   UNL     1      -9.554   9.898  73.099  1.00  0.00     6.946 A  
HETATM   17  O   UNL     1      -8.030  12.216  68.938  1.00  0.00    -0.044 OA 
HETATM   18  C   UNL     1      -9.669   8.519  73.352  1.00  0.00     0.439 A  
ENDROOT
BRANCH  10  19
HETATM   19  N   UNL     1      -9.429   7.142  69.917  1.00  0.00    -0.154 N  
HETATM   20  H   UNL     1      -8.789   6.348  69.880  1.00  0.00     0.000 HD 
BRANCH  19  21
HETATM   21  S   UNL     1     -10.580   7.396  68.663  1.00  0.00    -0.109 S  
HETATM   22  O   UNL     1     -11.369   6.180  68.570  1.00  0.00    -0.289 OA 
HETATM   23  O   UNL     1     -11.223   8.672  68.912  1.00  0.00     0.167 OA 
BRANCH  21  24
HETATM   24  C   UNL     1      -9.654   7.574  67.147  1.00  0.00    -0.161 A  
HETATM   25  C   UNL     1      -7.857   8.318  65.709  1.00  0.00    -0.098 A  
HETATM   26  N   UNL     1     -10.034   6.692  66.240  1.00  0.00     0.004 NA 
HETATM   27  F   UNL     1      -7.459   8.688  62.868  1.00  0.00    -0.096 F  
HETATM   28  C   UNL     1      -7.443   7.437  63.424  1.00  0.00    -0.101 C  
HETATM   29  F   UNL     1      -6.122   7.148  63.627  1.00  0.00    -0.040 F  
HETATM   30  C   UNL     1      -9.293   6.641  65.115  1.00  0.00     0.818 A  
HETATM   31  F   UNL     1      -7.803   6.651  62.383  1.00  0.00    -0.075 F  
HETATM   32  C   UNL     1      -8.209   7.425  64.727  1.00  0.00    -0.060 A  
HETATM   33  C   UNL     1      -8.553   8.398  66.934  1.00  0.00    -0.129 A  
ENDBRANCH  21  24
ENDBRANCH  19  21
ENDBRANCH  10  19
BRANCH  12  34
HETATM   34  C   UNL     1     -11.283  14.437  67.080  1.00  0.00    -0.336 C  
BRANCH  34  35
HETATM   35  C   UNL     1     -11.710  14.529  65.597  1.00  0.00    -0.335 C  
BRANCH  35  36
HETATM   36  C   UNL     1     -10.808  13.728  64.736  1.00  0.00    -0.410 A  
HETATM   37  C   UNL     1     -10.304  12.604  62.680  1.00  0.00     2.534 A  
HETATM   38  C   UNL     1     -11.164  13.411  63.429  1.00  0.00     0.327 A  
HETATM   39  C   UNL     1      -8.764  12.488  64.535  1.00  0.00     2.016 A  
HETATM   40  C   UNL     1      -9.113  12.152  63.226  1.00  0.00     0.800 A  
HETATM   41  C   UNL     1      -9.613  13.282  65.290  1.00  0.00     0.138 A  
ENDBRANCH  35  36
ENDBRANCH  34  35
ENDBRANCH  12  34
BRANCH  12  42
HETATM   42  C   UNL     1     -11.785  12.011  66.374  1.00  0.00    -0.326 C  
BRANCH  42  43
HETATM   43  C   UNL     1     -13.001  12.524  65.569  1.00  0.00     0.759 C  
HETATM   44  C   UNL     1     -13.382  11.955  64.203  1.00  0.00     0.542 C  
ENDBRANCH  42  43
ENDBRANCH  12  42
TORSDOF 8
ENDMDL
MODEL      201
REMARK 921   NORMALIZED FREE ENERGY PREDICTED BY IDOCK:   48.35 KCAL/MOL
REMARK 922        TOTAL FREE ENERGY PREDICTED BY IDOCK:   68.97 KCAL/MOL
REMARK 923 INTER-LIGAND FREE ENERGY PREDICTED BY IDOCK:   68.99 KCAL/MOL
REMARK 924 INTRA-LIGAND FREE ENERGY PREDICTED BY IDOCK:   -0.02 KCAL/MOL
REMARK 927      BINDING AFFINITY PREDICTED BY RF-SCORE:    0.00 PKD
ROOT
HETATM    1  C   UNL     1     -11.043  10.229  67.926  1.00  0.00    -0.341 C  
HETATM    2  C   UNL     1     -11.010   9.025  66.947  1.00  0.00     0.199 A  
HETATM    3  C   UNL     1     -11.029   9.843  69.419  1.00  0.00    -0.263 C  
HETATM    4  C   UNL     1     -10.027  11.371  67.601  1.00  0.00    -0.196 C  
HETATM    5  C   UNL     1     -12.208   9.007  69.891  1.00  0.00     0.829 C  
HETATM    6  C   UNL     1      -9.820   8.515  66.396  1.00  0.00    -0.327 A  
HETATM    7  C   UNL     1     -10.325  12.453  66.849  1.00  0.00    -0.224 C  
HETATM    8  O   UNL     1     -11.577  12.628  66.282  1.00  0.00    -0.343 OA 
HETATM    9  C   UNL     1      -9.277  13.459  66.336  1.00  0.00    -0.131 C  
HETATM   10  C   UNL     1      -9.830   7.515  65.398  1.00  0.00     1.481 A  
HETATM   11  C   UNL     1     -11.027   6.944  64.995  1.00  0.00     6.742 A  
HETATM   12  C   UNL     1      -7.856  13.308  66.878  1.00  0.00     0.223 C  
HETATM   13  C   UNL     1      -8.643  11.281  68.145  1.00  0.00    -0.150 C  
HETATM   14  H   UNL     1     -11.786  13.389  65.753  1.00  0.00     0.000 HD 
HETATM   15  O   UNL     1      -7.695  12.140  67.715  1.00  0.00    -0.119 OA 
HETATM   16  C   UNL     1     -12.210   8.401  66.537  1.00  0.00     8.649 A  
HETATM   17  O   UNL     1      -8.331  10.424  68.961  1.00  0.00    -0.130 OA 
HETATM   18  C   UNL     1     -12.216   7.362  65.589  1.00  0.00    10.314 A  
ENDROOT
BRANCH  10  19
HETATM   19  N   UNL     1      -8.616   7.166  64.722  1.00  0.00    -0.347 N  
HETATM   20  H   UNL     1      -8.633   6.530  63.924  1.00  0.00     0.000 HD 
BRANCH  19  21
HETATM   21  S   UNL     1      -7.129   7.835  65.274  1.00  0.00    -0.061 S  
HETATM   22  O   UNL     1      -6.100   7.372  64.359  1.00  0.00    -0.037 OA 
HETATM   23  O   UNL     1      -7.340   9.254  65.484  1.00  0.00    -0.088 OA 
BRANCH  21  24
HETATM   24  C   UNL     1      -6.810   7.118  66.877  1.00  0.00    -0.072 A  
HETATM   25  C   UNL     1      -6.958   6.879  69.279  1.00  0.00    -0.074 A  
HETATM   26  N   UNL     1      -6.301   5.903  66.774  1.00  0.00    -0.043 NA 
HETATM   27  F   UNL     1      -5.392   5.627  71.364  1.00  0.00    -0.008 F  
HETATM   28  C   UNL     1      -6.183   4.880  70.534  1.00  0.00    -0.019 C  
HETATM   29  F   UNL     1      -7.350   4.689  71.219  1.00  0.00    -0.054 F  
HETATM   30  C   UNL     1      -6.168   5.215  67.925  1.00  0.00    -0.035 A  
HETATM   31  F   UNL     1      -5.574   3.672  70.561  1.00  0.00    -0.010 F  
HETATM   32  C   UNL     1      -6.429   5.613  69.234  1.00  0.00    -0.045 A  
HETATM   33  C   UNL     1      -7.175   7.643  68.113  1.00  0.00    -0.093 A  
ENDBRANCH  21  24
ENDBRANCH  19  21
ENDBRANCH  10  19
BRANCH  12  34
HETATM   34  C   UNL     1      -7.691  14.560  67.753  1.00  0.00    -0.167 C  
BRANCH  34  35
HETATM   35  C   UNL     1      -8.694  15.658  67.335  1.00  0.00    -0.194 C  
BRANCH  35  36
HETATM   36  C   UNL     1      -8.043  16.666  66.464  1.00  0.00    -0.337 A  
HETATM   37  C   UNL     1      -6.144  17.971  65.804  1.00  0.00    -0.260 A  
HETATM   38  C   UNL     1      -6.694  16.971  66.610  1.00  0.00    -0.273 A  
HETATM   39  C   UNL     1      -8.277  18.299  64.722  1.00  0.00     4.326 A  
HETATM   40  C   UNL     1      -6.927  18.624  64.865  1.00  0.00     0.765 A  
HETATM   41  C   UNL     1      -8.835  17.313  65.522  1.00  0.00     0.831 A  
ENDBRANCH  35  36
ENDBRANCH  34  35
ENDBRANCH  12  34
BRANCH  12  42
HETATM   42  C   UNL     1      -6.668  13.238  65.793  1.00  0.00     6.222 C  
BRANCH  42  43
HETATM   43  C   UNL     1      -6.060  14.591  65.356  1.00  0.00    12.505 C  
HETATM   44  C   UNL     1      -5.335  14.773  64.024  1.00  0.00    20.346 C  
ENDBRANCH  42  43
ENDBRANCH  12  42
TORSDOF 8
ENDMDL
