MODEL        1
REMARK 921   NORMALIZED FREE ENERGY PREDICTED BY IDOCK:   -6.02 KCAL/MOL
REMARK 922        TOTAL FREE ENERGY PREDICTED BY IDOCK:  -13.14 KCAL/MOL
REMARK 923 INTER-LIGAND FREE ENERGY PREDICTED BY IDOCK:  -10.59 KCAL/MOL
REMARK 924 INTRA-LIGAND FREE ENERGY PREDICTED BY IDOCK:   -2.54 KCAL/MOL
REMARK 927      BINDING AFFINITY PREDICTED BY RF-SCORE:    0.00 PKD
ROOT
HETATM    1  C   UNL     1     -13.773  13.222  72.267  1.00  0.00    -0.686 C  
HETATM    2  C   UNL     1     -13.206  14.588  71.885  1.00  0.00    -0.440 C  
ENDROOT
BRANCH   2   3
HETATM    3  C   UNL     1     -12.211  14.399  70.753  1.00  0.00    -0.413 C  
BRANCH   3   4
HETATM    4  C   UNL     1     -11.598  15.670  70.157  1.00  0.00    -0.354 C  
BRANCH   4   5
HETATM    5  S   UNL     1     -11.037  15.196  68.507  1.00  0.00    -0.292 S  
HETATM    6  O   UNL     1     -11.134  16.347  67.639  1.00  0.00    -0.266 OA 
HETATM    7  O   UNL     1      -9.801  14.472  68.680  1.00  0.00    -0.224 OA 
BRANCH   5   8
HETATM    8  N   UNL     1     -12.194  14.099  67.911  1.00  0.00    -0.563 N  
HETATM    9  H   UNL     1     -13.173  14.076  68.199  1.00  0.00     0.000 HD 
BRANCH   8  10
HETATM   10  C   UNL     1     -11.559  13.143  66.875  1.00  0.00    -0.368 C  
HETATM   11  C   UNL     1     -12.076  13.496  65.480  1.00  0.00    -0.419 C  
HETATM   12  O   UNL     1     -11.482  13.255  64.440  1.00  0.00    -0.348 OA 
HETATM   13  O   UNL     1     -13.283  14.117  65.506  1.00  0.00    -0.688 OA 
BRANCH  10  14
HETATM   14  C   UNL     1     -11.778  11.642  67.141  1.00  0.00    -0.215 C  
BRANCH  14  15
HETATM   15  C   UNL     1     -11.289  11.173  68.488  1.00  0.00    -0.348 A  
HETATM   16  C   UNL     1      -9.953  10.773  68.596  1.00  0.00    -0.189 A  
HETATM   17  C   UNL     1      -9.511  10.109  69.737  1.00  0.00    -0.201 A  
HETATM   18  C   UNL     1     -10.395   9.819  70.778  1.00  0.00    -0.228 A  
HETATM   19  C   UNL     1     -12.125  11.036  69.606  1.00  0.00    -0.411 A  
HETATM   20  C   UNL     1     -11.686  10.344  70.737  1.00  0.00    -0.464 A  
BRANCH  18  21
HETATM   21  O   UNL     1     -10.102   9.017  71.851  1.00  0.00    -0.339 OA 
BRANCH  21  22
HETATM   22  C   UNL     1     -11.082   8.007  72.099  1.00  0.00    -0.311 C  
BRANCH  22  23
HETATM   23  C   UNL     1     -10.709   6.698  71.424  1.00  0.00    -0.264 C  
BRANCH  23  24
HETATM   24  C   UNL     1     -11.426   6.460  70.088  1.00  0.00    -0.484 C  
BRANCH  24  25
HETATM   25  C   UNL     1     -10.379   6.411  68.972  1.00  0.00    -0.238 C  
BRANCH  25  26
HETATM   26  C   UNL     1     -10.917   6.380  67.530  1.00  0.00    -0.454 C  
HETATM   27  C   UNL     1     -10.630   7.735  66.853  1.00  0.00    -0.347 C  
HETATM   28  C   UNL     1      -9.175   7.858  66.400  1.00  0.00    -0.191 C  
HETATM   29  N   UNL     1      -8.852   6.795  65.455  1.00  0.00    -0.364 NA 
HETATM   30  H   UNL     1      -7.926   6.925  65.046  1.00  0.00     0.000 HD 
HETATM   31  C   UNL     1      -8.986   5.479  66.077  1.00  0.00    -0.152 C  
HETATM   32  C   UNL     1     -10.386   5.239  66.646  1.00  0.00    -0.330 C  
ENDBRANCH  25  26
ENDBRANCH  24  25
ENDBRANCH  23  24
ENDBRANCH  22  23
ENDBRANCH  21  22
ENDBRANCH  18  21
ENDBRANCH  14  15
ENDBRANCH  10  14
ENDBRANCH   8  10
ENDBRANCH   5   8
ENDBRANCH   4   5
ENDBRANCH   3   4
ENDBRANCH   2   3
TORSDOF 13
ENDMDL
MODEL        2
REMARK 921   NORMALIZED FREE ENERGY PREDICTED BY IDOCK:   -5.87 KCAL/MOL
REMARK 922        TOTAL FREE ENERGY PREDICTED BY IDOCK:  -12.88 KCAL/MOL
REMARK 923 INTER-LIGAND FREE ENERGY PREDICTED BY IDOCK:  -11.09 KCAL/MOL
REMARK 924 INTRA-LIGAND FREE ENERGY PREDICTED BY IDOCK:   -1.79 KCAL/MOL
REMARK 927      BINDING AFFINITY PREDICTED BY RF-SCORE:    0.00 PKD
ROOT
HETATM    1  C   UNL     1     -10.074  10.322  65.147  1.00  0.00    -0.355 C  
HETATM    2  C   UNL     1     -10.360  11.248  63.967  1.00  0.00    -0.430 C  
ENDROOT
BRANCH   2   3
HETATM    3  C   UNL     1     -11.738  11.858  64.153  1.00  0.00    -0.428 C  
BRANCH   3   4
HETATM    4  C   UNL     1     -12.049  13.118  63.339  1.00  0.00    -0.486 C  
BRANCH   4   5
HETATM    5  S   UNL     1     -12.248  14.434  64.560  1.00  0.00    -0.421 S  
HETATM    6  O   UNL     1     -12.579  15.658  63.869  1.00  0.00    -0.697 OA 
HETATM    7  O   UNL     1     -13.081  13.901  65.612  1.00  0.00    -0.625 OA 
BRANCH   5   8
HETATM    8  N   UNL     1     -10.703  14.706  65.218  1.00  0.00    -0.353 N  
HETATM    9  H   UNL     1      -9.826  14.575  64.712  1.00  0.00     0.000 HD 
BRANCH   8  10
HETATM   10  C   UNL     1     -10.808  15.179  66.687  1.00  0.00    -0.318 C  
HETATM   11  C   UNL     1     -10.310  16.621  66.789  1.00  0.00    -0.295 C  
HETATM   12  O   UNL     1     -10.649  17.410  67.659  1.00  0.00    -0.360 OA 
HETATM   13  O   UNL     1      -9.440  16.950  65.801  1.00  0.00    -0.514 OA 
BRANCH  10  14
HETATM   14  C   UNL     1     -10.069  14.304  67.716  1.00  0.00    -0.231 C  
BRANCH  14  15
HETATM   15  C   UNL     1     -10.975  13.474  68.590  1.00  0.00    -0.289 A  
HETATM   16  C   UNL     1     -11.626  14.112  69.651  1.00  0.00    -0.349 A  
HETATM   17  C   UNL     1     -12.276  13.362  70.627  1.00  0.00    -0.427 A  
HETATM   18  C   UNL     1     -12.273  11.967  70.569  1.00  0.00    -0.336 A  
HETATM   19  C   UNL     1     -11.126  12.087  68.443  1.00  0.00    -0.290 A  
HETATM   20  C   UNL     1     -11.754  11.335  69.439  1.00  0.00    -0.409 A  
BRANCH  18  21
HETATM   21  O   UNL     1     -12.723  11.142  71.570  1.00  0.00    -0.403 OA 
BRANCH  21  22
HETATM   22  C   UNL     1     -13.494  10.035  71.098  1.00  0.00    -0.230 C  
BRANCH  22  23
HETATM   23  C   UNL     1     -13.507   8.901  72.110  1.00  0.00    -0.497 C  
BRANCH  23  24
HETATM   24  C   UNL     1     -13.601   7.505  71.478  1.00  0.00    -0.439 C  
BRANCH  24  25
HETATM   25  C   UNL     1     -12.225   6.837  71.561  1.00  0.00    -0.413 C  
BRANCH  25  26
HETATM   26  C   UNL     1     -11.526   6.544  70.221  1.00  0.00    -0.474 C  
HETATM   27  C   UNL     1     -10.809   7.819  69.734  1.00  0.00    -0.211 C  
HETATM   28  C   UNL     1      -9.491   8.059  70.469  1.00  0.00    -0.166 C  
HETATM   29  N   UNL     1      -8.594   6.925  70.273  1.00  0.00    -0.139 NA 
HETATM   30  H   UNL     1      -7.665   7.111  70.652  1.00  0.00     0.000 HD 
HETATM   31  C   UNL     1      -9.166   5.699  70.829  1.00  0.00    -0.151 C  
HETATM   32  C   UNL     1     -10.536   5.367  70.231  1.00  0.00    -0.355 C  
ENDBRANCH  25  26
ENDBRANCH  24  25
ENDBRANCH  23  24
ENDBRANCH  22  23
ENDBRANCH  21  22
ENDBRANCH  18  21
ENDBRANCH  14  15
ENDBRANCH  10  14
ENDBRANCH   8  10
ENDBRANCH   5   8
ENDBRANCH   4   5
ENDBRANCH   3   4
ENDBRANCH   2   3
TORSDOF 13
ENDMDL
MODEL        3
REMARK 921   NORMALIZED FREE ENERGY PREDICTED BY IDOCK:   -5.86 KCAL/MOL
REMARK 922        TOTAL FREE ENERGY PREDICTED BY IDOCK:  -12.86 KCAL/MOL
REMARK 923 INTER-LIGAND FREE ENERGY PREDICTED BY IDOCK:  -10.93 KCAL/MOL
REMARK 924 INTRA-LIGAND FREE ENERGY PREDICTED BY IDOCK:   -1.93 KCAL/MOL
REMARK 927      BINDING AFFINITY PREDICTED BY RF-SCORE:    0.00 PKD
ROOT
HETATM    1  C   UNL     1      -9.878  11.490  63.243  1.00  0.00    -0.431 C  
HETATM    2  C   UNL     1     -10.740  11.232  64.476  1.00  0.00    -0.390 C  
ENDROOT
BRANCH   2   3
HETATM    3  C   UNL     1     -12.068  11.948  64.297  1.00  0.00    -0.344 C  
BRANCH   3   4
HETATM    4  C   UNL     1     -12.060  13.205  63.422  1.00  0.00    -0.486 C  
BRANCH   4   5
HETATM    5  S   UNL     1     -12.176  14.588  64.577  1.00  0.00    -0.401 S  
HETATM    6  O   UNL     1     -12.263  15.815  63.820  1.00  0.00    -0.699 OA 
HETATM    7  O   UNL     1     -13.168  14.225  65.560  1.00  0.00    -0.641 OA 
BRANCH   5   8
HETATM    8  N   UNL     1     -10.673  14.668  65.371  1.00  0.00    -0.343 N  
HETATM    9  H   UNL     1      -9.790  14.342  64.976  1.00  0.00     0.000 HD 
BRANCH   8  10
HETATM   10  C   UNL     1     -10.827  15.303  66.773  1.00  0.00    -0.312 C  
HETATM   11  C   UNL     1     -10.344  16.753  66.725  1.00  0.00    -0.293 C  
HETATM   12  O   UNL     1     -10.717  17.631  67.489  1.00  0.00    -0.358 OA 
HETATM   13  O   UNL     1      -9.447  16.978  65.733  1.00  0.00    -0.518 OA 
BRANCH  10  14
HETATM   14  C   UNL     1     -10.112  14.560  67.917  1.00  0.00    -0.227 C  
BRANCH  14  15
HETATM   15  C   UNL     1     -11.009  13.658  68.726  1.00  0.00    -0.292 A  
HETATM   16  C   UNL     1     -11.743  14.231  69.770  1.00  0.00    -0.367 A  
HETATM   17  C   UNL     1     -12.393  13.421  70.697  1.00  0.00    -0.423 A  
HETATM   18  C   UNL     1     -12.309  12.030  70.606  1.00  0.00    -0.304 A  
HETATM   19  C   UNL     1     -11.075  12.269  68.540  1.00  0.00    -0.290 A  
HETATM   20  C   UNL     1     -11.704  11.457  69.488  1.00  0.00    -0.417 A  
BRANCH  18  21
HETATM   21  O   UNL     1     -12.757  11.156  71.565  1.00  0.00    -0.403 OA 
BRANCH  21  22
HETATM   22  C   UNL     1     -13.227   9.914  71.036  1.00  0.00    -0.304 C  
BRANCH  22  23
HETATM   23  C   UNL     1     -12.666   8.735  71.812  1.00  0.00    -0.408 C  
BRANCH  23  24
HETATM   24  C   UNL     1     -11.239   8.345  71.404  1.00  0.00    -0.316 C  
BRANCH  24  25
HETATM   25  C   UNL     1     -11.315   7.203  70.386  1.00  0.00    -0.325 C  
BRANCH  25  26
HETATM   26  C   UNL     1     -10.048   6.946  69.549  1.00  0.00    -0.183 C  
HETATM   27  C   UNL     1     -10.368   5.919  68.446  1.00  0.00    -0.261 C  
HETATM   28  C   UNL     1     -11.121   6.545  67.273  1.00  0.00    -0.350 C  
HETATM   29  N   UNL     1     -10.327   7.619  66.684  1.00  0.00    -0.485 NA 
HETATM   30  H   UNL     1     -10.753   7.973  65.826  1.00  0.00     0.000 HD 
HETATM   31  C   UNL     1     -10.092   8.691  67.650  1.00  0.00    -0.213 C  
HETATM   32  C   UNL     1      -9.401   8.193  68.922  1.00  0.00    -0.147 C  
ENDBRANCH  25  26
ENDBRANCH  24  25
ENDBRANCH  23  24
ENDBRANCH  22  23
ENDBRANCH  21  22
ENDBRANCH  18  21
ENDBRANCH  14  15
ENDBRANCH  10  14
ENDBRANCH   8  10
ENDBRANCH   5   8
ENDBRANCH   4   5
ENDBRANCH   3   4
ENDBRANCH   2   3
TORSDOF 13
ENDMDL
MODEL        4
REMARK 921   NORMALIZED FREE ENERGY PREDICTED BY IDOCK:   -5.77 KCAL/MOL
REMARK 922        TOTAL FREE ENERGY PREDICTED BY IDOCK:  -12.70 KCAL/MOL
REMARK 923 INTER-LIGAND FREE ENERGY PREDICTED BY IDOCK:  -10.46 KCAL/MOL
REMARK 924 INTRA-LIGAND FREE ENERGY PREDICTED BY IDOCK:   -2.24 KCAL/MOL
REMARK 927      BINDING AFFINITY PREDICTED BY RF-SCORE:    0.00 PKD
ROOT
HETATM    1  C   UNL     1      -8.629  10.701  64.265  1.00  0.00    -0.104 C  
HETATM    2  C   UNL     1      -9.880  10.082  64.885  1.00  0.00    -0.352 C  
ENDROOT
BRANCH   2   3
HETATM    3  C   UNL     1     -11.012  11.091  64.802  1.00  0.00    -0.142 C  
BRANCH   3   4
HETATM    4  C   UNL     1     -11.003  12.037  63.597  1.00  0.00    -0.448 C  
BRANCH   4   5
HETATM    5  S   UNL     1     -11.942  13.486  64.126  1.00  0.00    -0.433 S  
HETATM    6  O   UNL     1     -12.605  14.051  62.973  1.00  0.00    -0.643 OA 
HETATM    7  O   UNL     1     -12.668  13.101  65.312  1.00  0.00    -0.551 OA 
BRANCH   5   8
HETATM    8  N   UNL     1     -10.791  14.653  64.584  1.00  0.00    -0.601 N  
HETATM    9  H   UNL     1     -10.276  15.246  63.934  1.00  0.00     0.000 HD 
BRANCH   8  10
HETATM   10  C   UNL     1     -10.633  14.689  66.123  1.00  0.00    -0.312 C  
HETATM   11  C   UNL     1     -10.595  16.145  66.591  1.00  0.00    -0.274 C  
HETATM   12  O   UNL     1     -10.909  16.519  67.711  1.00  0.00    -0.341 OA 
HETATM   13  O   UNL     1     -10.172  16.998  65.625  1.00  0.00    -0.556 OA 
BRANCH  10  14
HETATM   14  C   UNL     1      -9.409  13.937  66.678  1.00  0.00    -0.282 C  
BRANCH  14  15
HETATM   15  C   UNL     1      -9.749  12.732  67.517  1.00  0.00    -0.201 A  
HETATM   16  C   UNL     1     -11.090  12.536  67.868  1.00  0.00    -0.286 A  
HETATM   17  C   UNL     1     -11.431  11.590  68.831  1.00  0.00    -0.352 A  
HETATM   18  C   UNL     1     -10.442  10.839  69.469  1.00  0.00    -0.170 A  
HETATM   19  C   UNL     1      -8.784  11.854  68.032  1.00  0.00    -0.173 A  
HETATM   20  C   UNL     1      -9.125  10.926  69.019  1.00  0.00    -0.110 A  
BRANCH  18  21
HETATM   21  O   UNL     1     -10.658  10.021  70.550  1.00  0.00    -0.292 OA 
BRANCH  21  22
HETATM   22  C   UNL     1     -12.014   9.587  70.679  1.00  0.00    -0.197 C  
BRANCH  22  23
HETATM   23  C   UNL     1     -12.616  10.042  71.998  1.00  0.00    -0.379 C  
BRANCH  23  24
HETATM   24  C   UNL     1     -13.589  11.221  71.864  1.00  0.00    -0.111 C  
BRANCH  24  25
HETATM   25  C   UNL     1     -12.790  12.526  71.944  1.00  0.00    -0.311 C  
BRANCH  25  26
HETATM   26  C   UNL     1     -13.591  13.798  72.279  1.00  0.00    -0.656 C  
HETATM   27  C   UNL     1     -12.807  14.632  73.311  1.00  0.00    -0.580 C  
HETATM   28  C   UNL     1     -11.662  15.416  72.672  1.00  0.00    -0.453 C  
HETATM   29  N   UNL     1     -12.180  16.320  71.650  1.00  0.00    -0.614 NA 
HETATM   30  H   UNL     1     -11.453  16.940  71.293  1.00  0.00     0.000 HD 
HETATM   31  C   UNL     1     -12.831  15.576  70.572  1.00  0.00    -0.353 C  
HETATM   32  C   UNL     1     -13.966  14.683  71.078  1.00  0.00    -0.177 C  
ENDBRANCH  25  26
ENDBRANCH  24  25
ENDBRANCH  23  24
ENDBRANCH  22  23
ENDBRANCH  21  22
ENDBRANCH  18  21
ENDBRANCH  14  15
ENDBRANCH  10  14
ENDBRANCH   8  10
ENDBRANCH   5   8
ENDBRANCH   4   5
ENDBRANCH   3   4
ENDBRANCH   2   3
TORSDOF 13
ENDMDL
MODEL        5
REMARK 921   NORMALIZED FREE ENERGY PREDICTED BY IDOCK:   -5.68 KCAL/MOL
REMARK 922        TOTAL FREE ENERGY PREDICTED BY IDOCK:  -12.53 KCAL/MOL
REMARK 923 INTER-LIGAND FREE ENERGY PREDICTED BY IDOCK:  -10.12 KCAL/MOL
REMARK 924 INTRA-LIGAND FREE ENERGY PREDICTED BY IDOCK:   -2.42 KCAL/MOL
REMARK 927      BINDING AFFINITY PREDICTED BY RF-SCORE:    0.00 PKD
ROOT
HETATM    1  C   UNL     1      -9.422  10.140  63.177  1.00  0.00    -0.296 C  
HETATM    2  C   UNL     1      -9.842  11.605  63.090  1.00  0.00    -0.407 C  
ENDROOT
BRANCH   2   3
HETATM    3  C   UNL     1     -11.046  11.818  63.990  1.00  0.00    -0.461 C  
BRANCH   3   4
HETATM    4  C   UNL     1     -12.179  12.685  63.432  1.00  0.00    -0.517 C  
BRANCH   4   5
HETATM    5  S   UNL     1     -12.235  14.138  64.503  1.00  0.00    -0.418 S  
HETATM    6  O   UNL     1     -12.645  15.277  63.714  1.00  0.00    -0.733 OA 
HETATM    7  O   UNL     1     -12.939  13.745  65.700  1.00  0.00    -0.574 OA 
BRANCH   5   8
HETATM    8  N   UNL     1     -10.623  14.466  64.940  1.00  0.00    -0.432 N  
HETATM    9  H   UNL     1      -9.839  14.487  64.288  1.00  0.00     0.000 HD 
BRANCH   8  10
HETATM   10  C   UNL     1     -10.511  14.726  66.461  1.00  0.00    -0.291 C  
HETATM   11  C   UNL     1     -10.285  16.219  66.701  1.00  0.00    -0.284 C  
HETATM   12  O   UNL     1     -10.580  16.806  67.731  1.00  0.00    -0.327 OA 
HETATM   13  O   UNL     1      -9.716  16.844  65.640  1.00  0.00    -0.538 OA 
BRANCH  10  14
HETATM   14  C   UNL     1      -9.422  13.916  67.190  1.00  0.00    -0.246 C  
BRANCH  14  15
HETATM   15  C   UNL     1      -9.725  12.445  67.318  1.00  0.00    -0.201 A  
HETATM   16  C   UNL     1      -8.751  11.536  66.892  1.00  0.00    -0.181 A  
HETATM   17  C   UNL     1      -9.062  10.186  66.759  1.00  0.00    -0.159 A  
HETATM   18  C   UNL     1     -10.351   9.724  67.034  1.00  0.00    -0.239 A  
HETATM   19  C   UNL     1     -10.961  11.949  67.760  1.00  0.00    -0.278 A  
HETATM   20  C   UNL     1     -11.280  10.598  67.599  1.00  0.00    -0.361 A  
BRANCH  18  21
HETATM   21  O   UNL     1     -10.802   8.457  66.762  1.00  0.00    -0.172 OA 
BRANCH  21  22
HETATM   22  C   UNL     1      -9.815   7.442  66.960  1.00  0.00    -0.209 C  
BRANCH  22  23
HETATM   23  C   UNL     1     -10.449   6.138  67.414  1.00  0.00    -0.309 C  
BRANCH  23  24
HETATM   24  C   UNL     1     -11.062   6.199  68.819  1.00  0.00    -0.398 C  
BRANCH  24  25
HETATM   25  C   UNL     1     -10.095   6.944  69.744  1.00  0.00    -0.196 C  
BRANCH  25  26
HETATM   26  C   UNL     1     -10.696   8.082  70.590  1.00  0.00    -0.235 C  
HETATM   27  C   UNL     1     -12.099   7.666  71.074  1.00  0.00    -0.282 C  
HETATM   28  C   UNL     1     -12.040   6.701  72.256  1.00  0.00    -0.188 C  
HETATM   29  N   UNL     1     -11.333   7.318  73.374  1.00  0.00    -0.560 NA 
HETATM   30  H   UNL     1     -11.385   6.742  74.215  1.00  0.00     0.000 HD 
HETATM   31  C   UNL     1      -9.950   7.626  73.015  1.00  0.00    -0.285 C  
HETATM   32  C   UNL     1      -9.850   8.537  71.790  1.00  0.00    -0.339 C  
ENDBRANCH  25  26
ENDBRANCH  24  25
ENDBRANCH  23  24
ENDBRANCH  22  23
ENDBRANCH  21  22
ENDBRANCH  18  21
ENDBRANCH  14  15
ENDBRANCH  10  14
ENDBRANCH   8  10
ENDBRANCH   5   8
ENDBRANCH   4   5
ENDBRANCH   3   4
ENDBRANCH   2   3
TORSDOF 13
ENDMDL
MODEL        6
REMARK 921   NORMALIZED FREE ENERGY PREDICTED BY IDOCK:   -5.66 KCAL/MOL
REMARK 922        TOTAL FREE ENERGY PREDICTED BY IDOCK:  -12.51 KCAL/MOL
REMARK 923 INTER-LIGAND FREE ENERGY PREDICTED BY IDOCK:  -10.44 KCAL/MOL
REMARK 924 INTRA-LIGAND FREE ENERGY PREDICTED BY IDOCK:   -2.07 KCAL/MOL
REMARK 927      BINDING AFFINITY PREDICTED BY RF-SCORE:    0.00 PKD
ROOT
HETATM    1  C   UNL     1      -9.006   9.878  66.923  1.00  0.00    -0.154 C  
HETATM    2  C   UNL     1     -10.335   9.130  66.852  1.00  0.00    -0.321 C  
ENDROOT
BRANCH   2   3
HETATM    3  C   UNL     1     -10.054   7.638  66.893  1.00  0.00    -0.348 C  
BRANCH   3   4
HETATM    4  C   UNL     1     -11.150   6.747  67.485  1.00  0.00    -0.265 C  
BRANCH   4   5
HETATM    5  S   UNL     1     -10.720   6.563  69.230  1.00  0.00    -0.311 S  
HETATM    6  O   UNL     1     -10.483   5.164  69.500  1.00  0.00    -0.257 OA 
HETATM    7  O   UNL     1      -9.735   7.575  69.523  1.00  0.00    -0.163 OA 
BRANCH   5   8
HETATM    8  N   UNL     1     -12.127   6.947  70.106  1.00  0.00    -0.641 N  
HETATM    9  H   UNL     1     -13.062   6.607  69.879  1.00  0.00     0.000 HD 
BRANCH   8  10
HETATM   10  C   UNL     1     -11.794   7.880  71.294  1.00  0.00    -0.296 C  
HETATM   11  C   UNL     1     -11.372   7.035  72.496  1.00  0.00    -0.263 C  
HETATM   12  O   UNL     1     -10.657   7.432  73.403  1.00  0.00    -0.362 OA 
HETATM   13  O   UNL     1     -11.877   5.776  72.459  1.00  0.00    -0.297 OA 
BRANCH  10  14
HETATM   14  C   UNL     1     -12.921   8.844  71.711  1.00  0.00    -0.418 C  
BRANCH  14  15
HETATM   15  C   UNL     1     -12.788  10.235  71.145  1.00  0.00    -0.504 A  
HETATM   16  C   UNL     1     -12.144  10.382  69.912  1.00  0.00    -0.252 A  
HETATM   17  C   UNL     1     -11.779  11.646  69.458  1.00  0.00    -0.410 A  
HETATM   18  C   UNL     1     -12.034  12.780  70.232  1.00  0.00    -0.280 A  
HETATM   19  C   UNL     1     -13.198  11.388  71.831  1.00  0.00    -0.485 A  
HETATM   20  C   UNL     1     -12.804  12.653  71.388  1.00  0.00    -0.358 A  
BRANCH  18  21
HETATM   21  O   UNL     1     -11.555  14.036  69.960  1.00  0.00    -0.268 OA 
BRANCH  21  22
HETATM   22  C   UNL     1     -11.883  14.504  68.650  1.00  0.00    -0.320 C  
BRANCH  22  23
HETATM   23  C   UNL     1     -10.649  14.997  67.914  1.00  0.00    -0.259 C  
BRANCH  23  24
HETATM   24  C   UNL     1      -9.870  13.887  67.193  1.00  0.00    -0.241 C  
BRANCH  24  25
HETATM   25  C   UNL     1     -10.831  13.138  66.265  1.00  0.00    -0.292 C  
BRANCH  25  26
HETATM   26  C   UNL     1     -10.733  13.473  64.765  1.00  0.00    -0.412 C  
HETATM   27  C   UNL     1      -9.811  12.448  64.076  1.00  0.00    -0.160 C  
HETATM   28  C   UNL     1     -10.515  11.116  63.821  1.00  0.00    -0.381 C  
HETATM   29  N   UNL     1     -11.687  11.322  62.976  1.00  0.00    -0.796 NA 
HETATM   30  H   UNL     1     -12.105  10.435  62.692  1.00  0.00     0.000 HD 
HETATM   31  C   UNL     1     -12.662  12.193  63.631  1.00  0.00    -0.432 C  
HETATM   32  C   UNL     1     -12.072  13.552  64.013  1.00  0.00    -0.494 C  
ENDBRANCH  25  26
ENDBRANCH  24  25
ENDBRANCH  23  24
ENDBRANCH  22  23
ENDBRANCH  21  22
ENDBRANCH  18  21
ENDBRANCH  14  15
ENDBRANCH  10  14
ENDBRANCH   8  10
ENDBRANCH   5   8
ENDBRANCH   4   5
ENDBRANCH   3   4
ENDBRANCH   2   3
TORSDOF 13
ENDMDL
MODEL        7
REMARK 921   NORMALIZED FREE ENERGY PREDICTED BY IDOCK:   -5.63 KCAL/MOL
REMARK 922        TOTAL FREE ENERGY PREDICTED BY IDOCK:  -12.46 KCAL/MOL
REMARK 923 INTER-LIGAND FREE ENERGY PREDICTED BY IDOCK:  -10.85 KCAL/MOL
REMARK 924 INTRA-LIGAND FREE ENERGY PREDICTED BY IDOCK:   -1.61 KCAL/MOL
REMARK 927      BINDING AFFINITY PREDICTED BY RF-SCORE:    0.00 PKD
ROOT
HETATM    1  C   UNL     1      -9.076  10.329  62.642  1.00  0.00    -0.299 C  
HETATM    2  C   UNL     1      -9.297  10.108  64.137  1.00  0.00    -0.340 C  
ENDROOT
BRANCH   2   3
HETATM    3  C   UNL     1     -10.442  10.996  64.592  1.00  0.00    -0.398 C  
BRANCH   3   4
HETATM    4  C   UNL     1     -11.213  11.742  63.499  1.00  0.00    -0.408 C  
BRANCH   4   5
HETATM    5  S   UNL     1     -11.935  13.178  64.322  1.00  0.00    -0.434 S  
HETATM    6  O   UNL     1     -12.631  13.972  63.337  1.00  0.00    -0.845 OA 
HETATM    7  O   UNL     1     -12.591  12.688  65.510  1.00  0.00    -0.634 OA 
BRANCH   5   8
HETATM    8  N   UNL     1     -10.626  14.144  64.819  1.00  0.00    -0.464 N  
HETATM    9  H   UNL     1      -9.865  14.448  64.211  1.00  0.00     0.000 HD 
BRANCH   8  10
HETATM   10  C   UNL     1     -10.748  14.501  66.320  1.00  0.00    -0.309 C  
HETATM   11  C   UNL     1     -10.535  16.004  66.500  1.00  0.00    -0.302 C  
HETATM   12  O   UNL     1     -10.977  16.658  67.432  1.00  0.00    -0.238 OA 
HETATM   13  O   UNL     1      -9.796  16.555  65.504  1.00  0.00    -0.537 OA 
BRANCH  10  14
HETATM   14  C   UNL     1      -9.801  13.731  67.260  1.00  0.00    -0.241 C  
BRANCH  14  15
HETATM   15  C   UNL     1     -10.496  13.024  68.397  1.00  0.00    -0.261 A  
HETATM   16  C   UNL     1     -10.358  11.635  68.486  1.00  0.00    -0.224 A  
HETATM   17  C   UNL     1     -11.162  10.906  69.358  1.00  0.00    -0.335 A  
HETATM   18  C   UNL     1     -12.125  11.547  70.140  1.00  0.00    -0.351 A  
HETATM   19  C   UNL     1     -11.338  13.677  69.309  1.00  0.00    -0.323 A  
HETATM   20  C   UNL     1     -12.164  12.941  70.162  1.00  0.00    -0.336 A  
BRANCH  18  21
HETATM   21  O   UNL     1     -13.080  10.904  70.887  1.00  0.00    -0.298 OA 
BRANCH  21  22
HETATM   22  C   UNL     1     -12.576   9.789  71.626  1.00  0.00    -0.416 C  
BRANCH  22  23
HETATM   23  C   UNL     1     -13.705   8.917  72.148  1.00  0.00    -0.527 C  
BRANCH  23  24
HETATM   24  C   UNL     1     -13.686   7.482  71.602  1.00  0.00    -0.465 C  
BRANCH  24  25
HETATM   25  C   UNL     1     -12.270   7.163  71.113  1.00  0.00    -0.405 C  
BRANCH  25  26
HETATM   26  C   UNL     1     -11.465   6.158  71.958  1.00  0.00    -0.366 C  
HETATM   27  C   UNL     1     -10.325   5.574  71.100  1.00  0.00    -0.300 C  
HETATM   28  C   UNL     1      -9.148   6.539  70.970  1.00  0.00    -0.150 C  
HETATM   29  N   UNL     1      -8.612   6.860  72.289  1.00  0.00    -0.119 NA 
HETATM   30  H   UNL     1      -7.752   7.405  72.223  1.00  0.00     0.000 HD 
HETATM   31  C   UNL     1      -9.615   7.532  73.115  1.00  0.00    -0.233 C  
HETATM   32  C   UNL     1     -10.892   6.705  73.276  1.00  0.00    -0.290 C  
ENDBRANCH  25  26
ENDBRANCH  24  25
ENDBRANCH  23  24
ENDBRANCH  22  23
ENDBRANCH  21  22
ENDBRANCH  18  21
ENDBRANCH  14  15
ENDBRANCH  10  14
ENDBRANCH   8  10
ENDBRANCH   5   8
ENDBRANCH   4   5
ENDBRANCH   3   4
ENDBRANCH   2   3
TORSDOF 13
ENDMDL
MODEL        8
REMARK 921   NORMALIZED FREE ENERGY PREDICTED BY IDOCK:   -5.63 KCAL/MOL
REMARK 922        TOTAL FREE ENERGY PREDICTED BY IDOCK:  -12.46 KCAL/MOL
REMARK 923 INTER-LIGAND FREE ENERGY PREDICTED BY IDOCK:  -10.47 KCAL/MOL
REMARK 924 INTRA-LIGAND FREE ENERGY PREDICTED BY IDOCK:   -1.99 KCAL/MOL
REMARK 927      BINDING AFFINITY PREDICTED BY RF-SCORE:    0.00 PKD
ROOT
HETATM    1  C   UNL     1      -7.317   9.750  68.527  1.00  0.00    -0.074 C  
HETATM    2  C   UNL     1      -8.781   9.522  68.159  1.00  0.00    -0.120 C  
ENDROOT
BRANCH   2   3
HETATM    3  C   UNL     1      -9.092   8.042  68.301  1.00  0.00    -0.135 C  
BRANCH   3   4
HETATM    4  C   UNL     1      -9.550   7.564  69.682  1.00  0.00    -0.159 C  
BRANCH   4   5
HETATM    5  S   UNL     1     -10.882   6.388  69.360  1.00  0.00    -0.356 S  
HETATM    6  O   UNL     1     -11.325   6.557  67.996  1.00  0.00    -0.234 OA 
HETATM    7  O   UNL     1     -10.439   5.112  69.867  1.00  0.00    -0.295 OA 
BRANCH   5   8
HETATM    8  N   UNL     1     -12.197   6.891  70.314  1.00  0.00    -0.624 N  
HETATM    9  H   UNL     1     -13.159   6.575  70.189  1.00  0.00     0.000 HD 
BRANCH   8  10
HETATM   10  C   UNL     1     -11.735   7.894  71.398  1.00  0.00    -0.281 C  
HETATM   11  C   UNL     1     -11.211   7.121  72.609  1.00  0.00    -0.293 C  
HETATM   12  O   UNL     1     -10.404   7.562  73.414  1.00  0.00    -0.333 OA 
HETATM   13  O   UNL     1     -11.737   5.874  72.707  1.00  0.00    -0.240 OA 
BRANCH  10  14
HETATM   14  C   UNL     1     -12.800   8.909  71.855  1.00  0.00    -0.437 C  
BRANCH  14  15
HETATM   15  C   UNL     1     -12.675  10.269  71.217  1.00  0.00    -0.523 A  
HETATM   16  C   UNL     1     -11.959  10.367  70.020  1.00  0.00    -0.324 A  
HETATM   17  C   UNL     1     -11.605  11.615  69.515  1.00  0.00    -0.397 A  
HETATM   18  C   UNL     1     -11.946  12.782  70.204  1.00  0.00    -0.296 A  
HETATM   19  C   UNL     1     -13.165  11.444  71.807  1.00  0.00    -0.472 A  
HETATM   20  C   UNL     1     -12.784  12.695  71.314  1.00  0.00    -0.354 A  
BRANCH  18  21
HETATM   21  O   UNL     1     -11.489  14.037  69.887  1.00  0.00    -0.258 OA 
BRANCH  21  22
HETATM   22  C   UNL     1     -12.008  14.542  68.655  1.00  0.00    -0.285 C  
BRANCH  22  23
HETATM   23  C   UNL     1     -10.910  15.159  67.805  1.00  0.00    -0.292 C  
BRANCH  23  24
HETATM   24  C   UNL     1     -11.057  14.882  66.302  1.00  0.00    -0.340 C  
BRANCH  24  25
HETATM   25  C   UNL     1     -10.323  13.580  65.970  1.00  0.00    -0.303 C  
BRANCH  25  26
HETATM   26  C   UNL     1     -11.195  12.319  65.832  1.00  0.00    -0.381 C  
HETATM   27  C   UNL     1     -12.411  12.638  64.941  1.00  0.00    -0.564 C  
HETATM   28  C   UNL     1     -12.052  12.658  63.456  1.00  0.00    -0.561 C  
HETATM   29  N   UNL     1     -11.516  11.362  63.052  1.00  0.00    -0.852 NA 
HETATM   30  H   UNL     1     -11.381  11.310  62.042  1.00  0.00     0.000 HD 
HETATM   31  C   UNL     1     -10.284  11.054  63.778  1.00  0.00    -0.364 C  
HETATM   32  C   UNL     1     -10.477  11.069  65.296  1.00  0.00    -0.316 C  
ENDBRANCH  25  26
ENDBRANCH  24  25
ENDBRANCH  23  24
ENDBRANCH  22  23
ENDBRANCH  21  22
ENDBRANCH  18  21
ENDBRANCH  14  15
ENDBRANCH  10  14
ENDBRANCH   8  10
ENDBRANCH   5   8
ENDBRANCH   4   5
ENDBRANCH   3   4
ENDBRANCH   2   3
TORSDOF 13
ENDMDL
MODEL        9
REMARK 921   NORMALIZED FREE ENERGY PREDICTED BY IDOCK:   -5.54 KCAL/MOL
REMARK 922        TOTAL FREE ENERGY PREDICTED BY IDOCK:  -12.30 KCAL/MOL
REMARK 923 INTER-LIGAND FREE ENERGY PREDICTED BY IDOCK:   -9.95 KCAL/MOL
REMARK 924 INTRA-LIGAND FREE ENERGY PREDICTED BY IDOCK:   -2.35 KCAL/MOL
REMARK 927      BINDING AFFINITY PREDICTED BY RF-SCORE:    0.00 PKD
ROOT
HETATM    1  C   UNL     1      -6.448  10.935  66.751  1.00  0.00    -0.115 C  
HETATM    2  C   UNL     1      -7.965  10.987  66.586  1.00  0.00    -0.156 C  
ENDROOT
BRANCH   2   3
HETATM    3  C   UNL     1      -8.306  10.667  65.142  1.00  0.00    -0.117 C  
BRANCH   3   4
HETATM    4  C   UNL     1      -9.786  10.442  64.817  1.00  0.00    -0.340 C  
BRANCH   4   5
HETATM    5  S   UNL     1     -10.210  11.728  63.622  1.00  0.00    -0.468 S  
HETATM    6  O   UNL     1      -9.135  11.838  62.664  1.00  0.00    -0.273 OA 
HETATM    7  O   UNL     1     -11.573  11.484  63.217  1.00  0.00    -0.298 OA 
BRANCH   5   8
HETATM    8  N   UNL     1     -10.185  13.197  64.480  1.00  0.00    -0.572 N  
HETATM    9  H   UNL     1      -9.530  13.960  64.305  1.00  0.00     0.000 HD 
BRANCH   8  10
HETATM   10  C   UNL     1     -11.290  13.218  65.562  1.00  0.00    -0.294 C  
HETATM   11  C   UNL     1     -12.413  14.157  65.117  1.00  0.00    -0.439 C  
HETATM   12  O   UNL     1     -13.573  14.074  65.492  1.00  0.00    -0.596 OA 
HETATM   13  O   UNL     1     -11.991  15.109  64.248  1.00  0.00    -0.425 OA 
BRANCH  10  14
HETATM   14  C   UNL     1     -10.822  13.609  66.976  1.00  0.00    -0.291 C  
BRANCH  14  15
HETATM   15  C   UNL     1     -11.399  12.756  68.078  1.00  0.00    -0.335 A  
HETATM   16  C   UNL     1     -11.803  13.393  69.256  1.00  0.00    -0.385 A  
HETATM   17  C   UNL     1     -12.113  12.644  70.387  1.00  0.00    -0.381 A  
HETATM   18  C   UNL     1     -12.010  11.251  70.366  1.00  0.00    -0.380 A  
HETATM   19  C   UNL     1     -11.469  11.356  68.012  1.00  0.00    -0.377 A  
HETATM   20  C   UNL     1     -11.753  10.607  69.157  1.00  0.00    -0.324 A  
BRANCH  18  21
HETATM   21  O   UNL     1     -12.116  10.443  71.471  1.00  0.00    -0.353 OA 
BRANCH  21  22
HETATM   22  C   UNL     1     -11.248   9.308  71.437  1.00  0.00    -0.362 C  
BRANCH  22  23
HETATM   23  C   UNL     1     -11.755   8.199  72.343  1.00  0.00    -0.461 C  
BRANCH  23  24
HETATM   24  C   UNL     1     -11.444   6.786  71.830  1.00  0.00    -0.318 C  
BRANCH  24  25
HETATM   25  C   UNL     1     -11.651   6.759  70.313  1.00  0.00    -0.417 C  
BRANCH  25  26
HETATM   26  C   UNL     1     -10.555   6.062  69.486  1.00  0.00    -0.363 C  
HETATM   27  C   UNL     1     -10.886   6.202  67.987  1.00  0.00    -0.398 C  
HETATM   28  C   UNL     1     -10.537   7.588  67.445  1.00  0.00    -0.294 C  
HETATM   29  N   UNL     1      -9.114   7.855  67.627  1.00  0.00    -0.133 NA 
HETATM   30  H   UNL     1      -8.832   8.720  67.167  1.00  0.00     0.000 HD 
HETATM   31  C   UNL     1      -8.757   7.858  69.046  1.00  0.00    -0.138 C  
HETATM   32  C   UNL     1      -9.118   6.545  69.745  1.00  0.00    -0.142 C  
ENDBRANCH  25  26
ENDBRANCH  24  25
ENDBRANCH  23  24
ENDBRANCH  22  23
ENDBRANCH  21  22
ENDBRANCH  18  21
ENDBRANCH  14  15
ENDBRANCH  10  14
ENDBRANCH   8  10
ENDBRANCH   5   8
ENDBRANCH   4   5
ENDBRANCH   3   4
ENDBRANCH   2   3
TORSDOF 13
ENDMDL
MODEL       10
REMARK 921   NORMALIZED FREE ENERGY PREDICTED BY IDOCK:   -5.49 KCAL/MOL
REMARK 922        TOTAL FREE ENERGY PREDICTED BY IDOCK:  -12.21 KCAL/MOL
REMARK 923 INTER-LIGAND FREE ENERGY PREDICTED BY IDOCK:  -10.27 KCAL/MOL
REMARK 924 INTRA-LIGAND FREE ENERGY PREDICTED BY IDOCK:   -1.94 KCAL/MOL
REMARK 927      BINDING AFFINITY PREDICTED BY RF-SCORE:    0.00 PKD
ROOT
HETATM    1  C   UNL     1     -13.343  10.841  71.951  1.00  0.00    -0.445 C  
HETATM    2  C   UNL     1     -13.743   9.372  72.067  1.00  0.00    -0.466 C  
ENDROOT
BRANCH   2   3
HETATM    3  C   UNL     1     -12.505   8.559  72.406  1.00  0.00    -0.416 C  
BRANCH   3   4
HETATM    4  C   UNL     1     -12.374   7.191  71.730  1.00  0.00    -0.350 C  
BRANCH   4   5
HETATM    5  S   UNL     1     -10.994   6.379  72.567  1.00  0.00    -0.263 S  
HETATM    6  O   UNL     1     -10.470   7.278  73.568  1.00  0.00    -0.349 OA 
HETATM    7  O   UNL     1     -11.435   5.044  72.894  1.00  0.00    -0.281 OA 
BRANCH   5   8
HETATM    8  N   UNL     1      -9.755   6.241  71.409  1.00  0.00    -0.173 N  
HETATM    9  H   UNL     1      -8.869   5.760  71.563  1.00  0.00     0.000 HD 
BRANCH   8  10
HETATM   10  C   UNL     1     -10.157   6.945  70.091  1.00  0.00    -0.182 C  
HETATM   11  C   UNL     1     -10.472   5.888  69.031  1.00  0.00    -0.265 C  
HETATM   12  O   UNL     1     -11.207   6.068  68.072  1.00  0.00    -0.253 OA 
HETATM   13  O   UNL     1      -9.846   4.706  69.263  1.00  0.00    -0.189 OA 
BRANCH  10  14
HETATM   14  C   UNL     1      -9.124   7.942  69.534  1.00  0.00    -0.149 C  
BRANCH  14  15
HETATM   15  C   UNL     1      -9.725   9.191  68.941  1.00  0.00    -0.165 A  
HETATM   16  C   UNL     1     -10.758   9.819  69.646  1.00  0.00    -0.264 A  
HETATM   17  C   UNL     1     -11.509  10.823  69.041  1.00  0.00    -0.368 A  
HETATM   18  C   UNL     1     -11.254  11.205  67.723  1.00  0.00    -0.294 A  
HETATM   19  C   UNL     1      -9.362   9.700  67.685  1.00  0.00    -0.144 A  
HETATM   20  C   UNL     1     -10.136  10.687  67.070  1.00  0.00    -0.255 A  
BRANCH  18  21
HETATM   21  O   UNL     1     -12.048  12.047  66.985  1.00  0.00    -0.603 OA 
BRANCH  21  22
HETATM   22  C   UNL     1     -11.426  13.294  66.670  1.00  0.00    -0.347 C  
BRANCH  22  23
HETATM   23  C   UNL     1     -11.878  14.392  67.617  1.00  0.00    -0.412 C  
BRANCH  23  24
HETATM   24  C   UNL     1     -10.987  14.551  68.856  1.00  0.00    -0.268 C  
BRANCH  24  25
HETATM   25  C   UNL     1     -11.847  14.346  70.107  1.00  0.00    -0.380 C  
BRANCH  25  26
HETATM   26  C   UNL     1     -12.500  15.608  70.702  1.00  0.00    -0.463 C  
HETATM   27  C   UNL     1     -13.909  15.253  71.217  1.00  0.00    -0.562 C  
HETATM   28  C   UNL     1     -13.867  14.533  72.565  1.00  0.00    -0.452 C  
HETATM   29  N   UNL     1     -13.211  15.373  73.562  1.00  0.00    -0.588 NA 
HETATM   30  H   UNL     1     -13.277  14.967  74.496  1.00  0.00     0.000 HD 
HETATM   31  C   UNL     1     -11.823  15.645  73.190  1.00  0.00    -0.428 C  
HETATM   32  C   UNL     1     -11.703  16.307  71.816  1.00  0.00    -0.504 C  
ENDBRANCH  25  26
ENDBRANCH  24  25
ENDBRANCH  23  24
ENDBRANCH  22  23
ENDBRANCH  21  22
ENDBRANCH  18  21
ENDBRANCH  14  15
ENDBRANCH  10  14
ENDBRANCH   8  10
ENDBRANCH   5   8
ENDBRANCH   4   5
ENDBRANCH   3   4
ENDBRANCH   2   3
TORSDOF 13
ENDMDL
MODEL       11
REMARK 921   NORMALIZED FREE ENERGY PREDICTED BY IDOCK:   -5.47 KCAL/MOL
REMARK 922        TOTAL FREE ENERGY PREDICTED BY IDOCK:  -12.17 KCAL/MOL
REMARK 923 INTER-LIGAND FREE ENERGY PREDICTED BY IDOCK:   -9.38 KCAL/MOL
REMARK 924 INTRA-LIGAND FREE ENERGY PREDICTED BY IDOCK:   -2.79 KCAL/MOL
REMARK 927      BINDING AFFINITY PREDICTED BY RF-SCORE:    0.00 PKD
ROOT
HETATM    1  C   UNL     1     -11.954  14.353  69.109  1.00  0.00    -0.357 C  
HETATM    2  C   UNL     1     -11.532  15.820  69.073  1.00  0.00    -0.394 C  
ENDROOT
BRANCH   2   3
HETATM    3  C   UNL     1     -10.540  16.011  67.940  1.00  0.00    -0.301 C  
BRANCH   3   4
HETATM    4  C   UNL     1     -10.960  16.953  66.808  1.00  0.00     0.132 C  
BRANCH   4   5
HETATM    5  S   UNL     1     -10.793  15.981  65.295  1.00  0.00    -0.307 S  
HETATM    6  O   UNL     1     -11.296  16.761  64.188  1.00  0.00    -1.194 OA 
HETATM    7  O   UNL     1      -9.458  15.434  65.299  1.00  0.00    -0.147 OA 
BRANCH   5   8
HETATM    8  N   UNL     1     -11.881  14.681  65.446  1.00  0.00    -0.334 N  
HETATM    9  H   UNL     1     -12.877  14.778  65.644  1.00  0.00     0.000 HD 
BRANCH   8  10
HETATM   10  C   UNL     1     -11.152  13.331  65.242  1.00  0.00    -0.288 C  
HETATM   11  C   UNL     1     -11.405  12.832  63.819  1.00  0.00    -0.461 C  
HETATM   12  O   UNL     1     -10.665  12.074  63.210  1.00  0.00    -0.408 OA 
HETATM   13  O   UNL     1     -12.552  13.323  63.284  1.00  0.00    -0.711 OA 
BRANCH  10  14
HETATM   14  C   UNL     1     -11.518  12.225  66.249  1.00  0.00    -0.435 C  
BRANCH  14  15
HETATM   15  C   UNL     1     -10.338  11.445  66.770  1.00  0.00    -0.271 A  
HETATM   16  C   UNL     1     -10.252  10.089  66.438  1.00  0.00    -0.290 A  
HETATM   17  C   UNL     1      -9.329   9.268  67.081  1.00  0.00    -0.166 A  
HETATM   18  C   UNL     1      -8.491   9.783  68.073  1.00  0.00    -0.118 A  
HETATM   19  C   UNL     1      -9.377  11.989  67.635  1.00  0.00    -0.185 A  
HETATM   20  C   UNL     1      -8.471  11.158  68.300  1.00  0.00    -0.145 A  
BRANCH  18  21
HETATM   21  O   UNL     1      -7.684   9.025  68.884  1.00  0.00    -0.091 OA 
BRANCH  21  22
HETATM   22  C   UNL     1      -7.988   7.629  68.854  1.00  0.00    -0.125 C  
BRANCH  22  23
HETATM   23  C   UNL     1      -8.776   7.208  70.082  1.00  0.00    -0.141 C  
BRANCH  23  24
HETATM   24  C   UNL     1      -8.505   8.074  71.321  1.00  0.00    -0.138 C  
BRANCH  24  25
HETATM   25  C   UNL     1      -9.779   8.854  71.661  1.00  0.00    -0.379 C  
BRANCH  25  26
HETATM   26  C   UNL     1     -10.945   8.728  70.663  1.00  0.00    -0.278 C  
HETATM   27  C   UNL     1     -12.090   7.933  71.321  1.00  0.00    -0.317 C  
HETATM   28  C   UNL     1     -12.901   8.785  72.295  1.00  0.00    -0.405 C  
HETATM   29  N   UNL     1     -13.478   9.931  71.599  1.00  0.00    -0.361 NA 
HETATM   30  H   UNL     1     -14.122  10.449  72.198  1.00  0.00     0.000 HD 
HETATM   31  C   UNL     1     -12.433  10.797  71.054  1.00  0.00    -0.420 C  
HETATM   32  C   UNL     1     -11.490  10.053  70.106  1.00  0.00    -0.344 C  
ENDBRANCH  25  26
ENDBRANCH  24  25
ENDBRANCH  23  24
ENDBRANCH  22  23
ENDBRANCH  21  22
ENDBRANCH  18  21
ENDBRANCH  14  15
ENDBRANCH  10  14
ENDBRANCH   8  10
ENDBRANCH   5   8
ENDBRANCH   4   5
ENDBRANCH   3   4
ENDBRANCH   2   3
TORSDOF 13
ENDMDL
MODEL       12
REMARK 921   NORMALIZED FREE ENERGY PREDICTED BY IDOCK:   -5.45 KCAL/MOL
REMARK 922        TOTAL FREE ENERGY PREDICTED BY IDOCK:  -12.13 KCAL/MOL
REMARK 923 INTER-LIGAND FREE ENERGY PREDICTED BY IDOCK:  -10.97 KCAL/MOL
REMARK 924 INTRA-LIGAND FREE ENERGY PREDICTED BY IDOCK:   -1.15 KCAL/MOL
REMARK 927      BINDING AFFINITY PREDICTED BY RF-SCORE:    0.00 PKD
ROOT
HETATM    1  C   UNL     1      -8.450  20.010  67.107  1.00  0.00    -0.390 C  
HETATM    2  C   UNL     1      -9.885  20.457  66.841  1.00  0.00    -0.572 C  
ENDROOT
BRANCH   2   3
HETATM    3  C   UNL     1     -10.633  19.315  66.176  1.00  0.00    -0.549 C  
BRANCH   3   4
HETATM    4  C   UNL     1     -10.608  17.963  66.896  1.00  0.00    -0.265 C  
BRANCH   4   5
HETATM    5  S   UNL     1     -10.452  16.730  65.586  1.00  0.00    -0.180 S  
HETATM    6  O   UNL     1     -11.207  17.178  64.440  1.00  0.00    -1.143 OA 
HETATM    7  O   UNL     1      -9.051  16.397  65.495  1.00  0.00    -0.390 OA 
BRANCH   5   8
HETATM    8  N   UNL     1     -11.273  15.347  66.140  1.00  0.00    -0.229 N  
HETATM    9  H   UNL     1     -12.122  15.364  66.706  1.00  0.00     0.000 HD 
BRANCH   8  10
HETATM   10  C   UNL     1     -10.558  14.059  65.666  1.00  0.00    -0.307 C  
HETATM   11  C   UNL     1     -11.544  13.195  64.879  1.00  0.00    -0.323 C  
HETATM   12  O   UNL     1     -11.222  12.376  64.032  1.00  0.00    -0.334 OA 
HETATM   13  O   UNL     1     -12.837  13.430  65.216  1.00  0.00    -0.648 OA 
BRANCH  10  14
HETATM   14  C   UNL     1      -9.910  13.217  66.781  1.00  0.00    -0.251 C  
BRANCH  14  15
HETATM   15  C   UNL     1     -10.869  12.762  67.852  1.00  0.00    -0.242 A  
HETATM   16  C   UNL     1     -11.222  13.680  68.847  1.00  0.00    -0.309 A  
HETATM   17  C   UNL     1     -11.902  13.254  69.984  1.00  0.00    -0.365 A  
HETATM   18  C   UNL     1     -12.227  11.906  70.154  1.00  0.00    -0.241 A  
HETATM   19  C   UNL     1     -11.352  11.449  67.946  1.00  0.00    -0.371 A  
HETATM   20  C   UNL     1     -12.009  11.017  69.101  1.00  0.00    -0.394 A  
BRANCH  18  21
HETATM   21  O   UNL     1     -12.729  11.363  71.310  1.00  0.00    -0.405 OA 
BRANCH  21  22
HETATM   22  C   UNL     1     -13.055   9.976  71.198  1.00  0.00    -0.386 C  
BRANCH  22  23
HETATM   23  C   UNL     1     -12.960   9.277  72.544  1.00  0.00    -0.384 C  
BRANCH  23  24
HETATM   24  C   UNL     1     -11.782   8.299  72.655  1.00  0.00    -0.406 C  
BRANCH  24  25
HETATM   25  C   UNL     1     -10.623   8.830  71.807  1.00  0.00    -0.417 C  
BRANCH  25  26
HETATM   26  C   UNL     1      -9.734   7.774  71.124  1.00  0.00    -0.175 C  
HETATM   27  C   UNL     1     -10.548   6.482  70.921  1.00  0.00    -0.275 C  
HETATM   28  C   UNL     1     -11.500   6.578  69.729  1.00  0.00    -0.379 C  
HETATM   29  N   UNL     1     -10.748   6.844  68.507  1.00  0.00    -0.298 NA 
HETATM   30  H   UNL     1     -11.345   6.793  67.681  1.00  0.00     0.000 HD 
HETATM   31  C   UNL     1     -10.047   8.125  68.588  1.00  0.00    -0.196 C  
HETATM   32  C   UNL     1      -9.101   8.201  69.788  1.00  0.00    -0.148 C  
ENDBRANCH  25  26
ENDBRANCH  24  25
ENDBRANCH  23  24
ENDBRANCH  22  23
ENDBRANCH  21  22
ENDBRANCH  18  21
ENDBRANCH  14  15
ENDBRANCH  10  14
ENDBRANCH   8  10
ENDBRANCH   5   8
ENDBRANCH   4   5
ENDBRANCH   3   4
ENDBRANCH   2   3
TORSDOF 13
ENDMDL
MODEL       13
REMARK 921   NORMALIZED FREE ENERGY PREDICTED BY IDOCK:   -5.39 KCAL/MOL
REMARK 922        TOTAL FREE ENERGY PREDICTED BY IDOCK:  -12.03 KCAL/MOL
REMARK 923 INTER-LIGAND FREE ENERGY PREDICTED BY IDOCK:   -9.79 KCAL/MOL
REMARK 924 INTRA-LIGAND FREE ENERGY PREDICTED BY IDOCK:   -2.23 KCAL/MOL
REMARK 927      BINDING AFFINITY PREDICTED BY RF-SCORE:    0.00 PKD
ROOT
HETATM    1  C   UNL     1     -14.158  13.893  72.140  1.00  0.00    -0.630 C  
HETATM    2  C   UNL     1     -13.995  15.352  71.718  1.00  0.00    -0.626 C  
ENDROOT
BRANCH   2   3
HETATM    3  C   UNL     1     -12.834  15.447  70.744  1.00  0.00    -0.524 C  
BRANCH   3   4
HETATM    4  C   UNL     1     -12.411  14.150  70.048  1.00  0.00    -0.344 C  
BRANCH   4   5
HETATM    5  S   UNL     1     -11.500  14.674  68.580  1.00  0.00    -0.319 S  
HETATM    6  O   UNL     1     -12.005  15.960  68.159  1.00  0.00    -0.130 OA 
HETATM    7  O   UNL     1     -10.101  14.458  68.860  1.00  0.00    -0.230 OA 
BRANCH   5   8
HETATM    8  N   UNL     1     -11.946  13.600  67.338  1.00  0.00    -0.384 N  
HETATM    9  H   UNL     1     -12.512  12.762  67.472  1.00  0.00     0.000 HD 
BRANCH   8  10
HETATM   10  C   UNL     1     -11.376  14.067  65.978  1.00  0.00    -0.328 C  
HETATM   11  C   UNL     1     -12.425  13.843  64.888  1.00  0.00    -0.391 C  
HETATM   12  O   UNL     1     -12.479  14.471  63.841  1.00  0.00    -0.814 OA 
HETATM   13  O   UNL     1     -13.309  12.862  65.201  1.00  0.00    -0.605 OA 
BRANCH  10  14
HETATM   14  C   UNL     1     -10.048  13.410  65.558  1.00  0.00    -0.279 C  
BRANCH  14  15
HETATM   15  C   UNL     1      -9.765  12.094  66.238  1.00  0.00    -0.251 A  
HETATM   16  C   UNL     1      -8.648  12.017  67.077  1.00  0.00    -0.185 A  
HETATM   17  C   UNL     1      -8.200  10.782  67.535  1.00  0.00    -0.112 A  
HETATM   18  C   UNL     1      -8.848   9.605  67.152  1.00  0.00    -0.132 A  
HETATM   19  C   UNL     1     -10.512  10.930  66.002  1.00  0.00    -0.287 A  
HETATM   20  C   UNL     1     -10.043   9.688  66.440  1.00  0.00    -0.317 A  
BRANCH  18  21
HETATM   21  O   UNL     1      -8.378   8.339  67.400  1.00  0.00    -0.123 OA 
BRANCH  21  22
HETATM   22  C   UNL     1      -7.419   8.279  68.458  1.00  0.00    -0.095 C  
BRANCH  22  23
HETATM   23  C   UNL     1      -8.061   7.828  69.759  1.00  0.00    -0.117 C  
BRANCH  23  24
HETATM   24  C   UNL     1      -8.087   8.910  70.847  1.00  0.00    -0.196 C  
BRANCH  24  25
HETATM   25  C   UNL     1      -9.512   9.017  71.398  1.00  0.00    -0.334 C  
BRANCH  25  26
HETATM   26  C   UNL     1     -10.650   8.989  70.360  1.00  0.00    -0.258 C  
HETATM   27  C   UNL     1     -11.650   7.878  70.735  1.00  0.00    -0.258 C  
HETATM   28  C   UNL     1     -12.580   8.297  71.872  1.00  0.00    -0.344 C  
HETATM   29  N   UNL     1     -13.336   9.485  71.491  1.00  0.00    -0.385 NA 
HETATM   30  H   UNL     1     -14.050   9.714  72.183  1.00  0.00     0.000 HD 
HETATM   31  C   UNL     1     -12.445  10.617  71.240  1.00  0.00    -0.410 C  
HETATM   32  C   UNL     1     -11.402  10.315  70.162  1.00  0.00    -0.388 C  
ENDBRANCH  25  26
ENDBRANCH  24  25
ENDBRANCH  23  24
ENDBRANCH  22  23
ENDBRANCH  21  22
ENDBRANCH  18  21
ENDBRANCH  14  15
ENDBRANCH  10  14
ENDBRANCH   8  10
ENDBRANCH   5   8
ENDBRANCH   4   5
ENDBRANCH   3   4
ENDBRANCH   2   3
TORSDOF 13
ENDMDL
MODEL       14
REMARK 921   NORMALIZED FREE ENERGY PREDICTED BY IDOCK:   -5.37 KCAL/MOL
REMARK 922        TOTAL FREE ENERGY PREDICTED BY IDOCK:  -11.99 KCAL/MOL
REMARK 923 INTER-LIGAND FREE ENERGY PREDICTED BY IDOCK:   -9.81 KCAL/MOL
REMARK 924 INTRA-LIGAND FREE ENERGY PREDICTED BY IDOCK:   -2.18 KCAL/MOL
REMARK 927      BINDING AFFINITY PREDICTED BY RF-SCORE:    0.00 PKD
ROOT
HETATM    1  C   UNL     1     -13.687  15.525  72.460  1.00  0.00    -0.668 C  
HETATM    2  C   UNL     1     -13.633  14.187  71.727  1.00  0.00    -0.483 C  
ENDROOT
BRANCH   2   3
HETATM    3  C   UNL     1     -12.625  14.296  70.595  1.00  0.00    -0.424 C  
BRANCH   3   4
HETATM    4  C   UNL     1     -12.063  12.982  70.045  1.00  0.00    -0.297 C  
BRANCH   4   5
HETATM    5  S   UNL     1     -11.445  13.383  68.397  1.00  0.00    -0.341 S  
HETATM    6  O   UNL     1     -12.197  14.504  67.883  1.00  0.00    -0.272 OA 
HETATM    7  O   UNL     1     -10.005  13.407  68.488  1.00  0.00    -0.233 OA 
BRANCH   5   8
HETATM    8  N   UNL     1     -11.874  12.073  67.399  1.00  0.00    -0.275 N  
HETATM    9  H   UNL     1     -12.642  11.429  67.586  1.00  0.00     0.000 HD 
BRANCH   8  10
HETATM   10  C   UNL     1     -10.938  11.993  66.169  1.00  0.00    -0.302 C  
HETATM   11  C   UNL     1     -11.608  12.684  64.981  1.00  0.00    -0.345 C  
HETATM   12  O   UNL     1     -11.006  13.170  64.035  1.00  0.00    -0.392 OA 
HETATM   13  O   UNL     1     -12.961  12.707  65.078  1.00  0.00    -0.812 OA 
BRANCH  10  14
HETATM   14  C   UNL     1     -10.505  10.572  65.762  1.00  0.00    -0.214 C  
BRANCH  14  15
HETATM   15  C   UNL     1     -10.100   9.692  66.918  1.00  0.00    -0.290 A  
HETATM   16  C   UNL     1      -9.067  10.138  67.749  1.00  0.00    -0.135 A  
HETATM   17  C   UNL     1      -8.490   9.272  68.675  1.00  0.00    -0.123 A  
HETATM   18  C   UNL     1      -8.922   7.948  68.774  1.00  0.00    -0.141 A  
HETATM   19  C   UNL     1     -10.646   8.420  67.145  1.00  0.00    -0.326 A  
HETATM   20  C   UNL     1     -10.046   7.545  68.054  1.00  0.00    -0.221 A  
BRANCH  18  21
HETATM   21  O   UNL     1      -8.301   6.977  69.519  1.00  0.00    -0.130 OA 
BRANCH  21  22
HETATM   22  C   UNL     1      -7.817   7.443  70.781  1.00  0.00    -0.096 C  
BRANCH  22  23
HETATM   23  C   UNL     1      -8.650   6.897  71.928  1.00  0.00    -0.118 C  
BRANCH  23  24
HETATM   24  C   UNL     1      -9.298   7.982  72.798  1.00  0.00    -0.330 C  
BRANCH  24  25
HETATM   25  C   UNL     1     -10.819   7.888  72.645  1.00  0.00    -0.428 C  
BRANCH  25  26
HETATM   26  C   UNL     1     -11.384   8.170  71.240  1.00  0.00    -0.300 C  
HETATM   27  C   UNL     1     -12.382   7.058  70.863  1.00  0.00    -0.361 C  
HETATM   28  C   UNL     1     -13.739   7.243  71.541  1.00  0.00    -0.351 C  
HETATM   29  N   UNL     1     -14.318   8.527  71.161  1.00  0.00    -0.629 NA 
HETATM   30  H   UNL     1     -15.275   8.623  71.503  1.00  0.00     0.000 HD 
HETATM   31  C   UNL     1     -13.474   9.637  71.603  1.00  0.00    -0.374 C  
HETATM   32  C   UNL     1     -12.048   9.544  71.054  1.00  0.00    -0.398 C  
ENDBRANCH  25  26
ENDBRANCH  24  25
ENDBRANCH  23  24
ENDBRANCH  22  23
ENDBRANCH  21  22
ENDBRANCH  18  21
ENDBRANCH  14  15
ENDBRANCH  10  14
ENDBRANCH   8  10
ENDBRANCH   5   8
ENDBRANCH   4   5
ENDBRANCH   3   4
ENDBRANCH   2   3
TORSDOF 13
ENDMDL
MODEL       15
REMARK 921   NORMALIZED FREE ENERGY PREDICTED BY IDOCK:   -5.37 KCAL/MOL
REMARK 922        TOTAL FREE ENERGY PREDICTED BY IDOCK:  -11.99 KCAL/MOL
REMARK 923 INTER-LIGAND FREE ENERGY PREDICTED BY IDOCK:  -10.13 KCAL/MOL
REMARK 924 INTRA-LIGAND FREE ENERGY PREDICTED BY IDOCK:   -1.85 KCAL/MOL
REMARK 927      BINDING AFFINITY PREDICTED BY RF-SCORE:    0.00 PKD
ROOT
HETATM    1  C   UNL     1      -9.821   9.364  66.813  1.00  0.00    -0.280 C  
HETATM    2  C   UNL     1     -10.405   7.954  66.844  1.00  0.00    -0.400 C  
ENDROOT
BRANCH   2   3
HETATM    3  C   UNL     1     -10.017   7.297  68.157  1.00  0.00    -0.181 C  
BRANCH   3   4
HETATM    4  C   UNL     1     -10.688   5.960  68.483  1.00  0.00    -0.255 C  
BRANCH   4   5
HETATM    5  S   UNL     1      -9.969   5.438  70.055  1.00  0.00    -0.256 S  
HETATM    6  O   UNL     1      -9.914   3.995  70.081  1.00  0.00    -0.188 OA 
HETATM    7  O   UNL     1      -8.795   6.252  70.264  1.00  0.00    -0.149 OA 
BRANCH   5   8
HETATM    8  N   UNL     1     -11.102   5.856  71.254  1.00  0.00    -0.266 N  
HETATM    9  H   UNL     1     -12.114   5.813  71.135  1.00  0.00     0.000 HD 
BRANCH   8  10
HETATM   10  C   UNL     1     -10.387   6.308  72.549  1.00  0.00    -0.192 C  
HETATM   11  C   UNL     1     -10.566   5.235  73.625  1.00  0.00    -0.279 C  
HETATM   12  O   UNL     1      -9.805   5.066  74.566  1.00  0.00    -0.159 OA 
HETATM   13  O   UNL     1     -11.671   4.472  73.430  1.00  0.00    -0.270 OA 
BRANCH  10  14
HETATM   14  C   UNL     1     -10.830   7.674  73.106  1.00  0.00    -0.440 C  
BRANCH  14  15
HETATM   15  C   UNL     1     -11.434   8.596  72.077  1.00  0.00    -0.437 A  
HETATM   16  C   UNL     1     -10.568   9.249  71.194  1.00  0.00    -0.402 A  
HETATM   17  C   UNL     1     -11.036  10.285  70.391  1.00  0.00    -0.391 A  
HETATM   18  C   UNL     1     -12.369  10.696  70.468  1.00  0.00    -0.359 A  
HETATM   19  C   UNL     1     -12.804   8.894  72.020  1.00  0.00    -0.456 A  
HETATM   20  C   UNL     1     -13.265   9.954  71.234  1.00  0.00    -0.465 A  
BRANCH  18  21
HETATM   21  O   UNL     1     -12.877  11.816  69.858  1.00  0.00     0.161 OA 
BRANCH  21  22
HETATM   22  C   UNL     1     -12.160  13.013  70.166  1.00  0.00    -0.307 C  
BRANCH  22  23
HETATM   23  C   UNL     1     -11.239  13.414  69.026  1.00  0.00    -0.323 C  
BRANCH  23  24
HETATM   24  C   UNL     1     -11.964  13.644  67.693  1.00  0.00    -0.386 C  
BRANCH  24  25
HETATM   25  C   UNL     1     -11.686  12.452  66.772  1.00  0.00    -0.430 C  
BRANCH  25  26
HETATM   26  C   UNL     1     -10.857  12.743  65.507  1.00  0.00    -0.301 C  
HETATM   27  C   UNL     1     -11.320  11.810  64.372  1.00  0.00    -0.373 C  
HETATM   28  C   UNL     1     -12.625  12.282  63.731  1.00  0.00    -0.470 C  
HETATM   29  N   UNL     1     -12.458  13.624  63.183  1.00  0.00    -1.045 NA 
HETATM   30  H   UNL     1     -13.275  13.914  62.645  1.00  0.00     0.000 HD 
HETATM   31  C   UNL     1     -12.136  14.586  64.236  1.00  0.00    -0.425 C  
HETATM   32  C   UNL     1     -10.879  14.201  65.019  1.00  0.00    -0.408 C  
ENDBRANCH  25  26
ENDBRANCH  24  25
ENDBRANCH  23  24
ENDBRANCH  22  23
ENDBRANCH  21  22
ENDBRANCH  18  21
ENDBRANCH  14  15
ENDBRANCH  10  14
ENDBRANCH   8  10
ENDBRANCH   5   8
ENDBRANCH   4   5
ENDBRANCH   3   4
ENDBRANCH   2   3
TORSDOF 13
ENDMDL
MODEL       16
REMARK 921   NORMALIZED FREE ENERGY PREDICTED BY IDOCK:   -5.36 KCAL/MOL
REMARK 922        TOTAL FREE ENERGY PREDICTED BY IDOCK:  -11.98 KCAL/MOL
REMARK 923 INTER-LIGAND FREE ENERGY PREDICTED BY IDOCK:  -10.69 KCAL/MOL
REMARK 924 INTRA-LIGAND FREE ENERGY PREDICTED BY IDOCK:   -1.29 KCAL/MOL
REMARK 927      BINDING AFFINITY PREDICTED BY RF-SCORE:    0.00 PKD
ROOT
HETATM    1  C   UNL     1     -13.416  14.000  72.499  1.00  0.00    -0.661 C  
HETATM    2  C   UNL     1     -12.500  15.186  72.790  1.00  0.00    -0.486 C  
ENDROOT
BRANCH   2   3
HETATM    3  C   UNL     1     -11.942  15.700  71.474  1.00  0.00    -0.482 C  
BRANCH   3   4
HETATM    4  C   UNL     1     -12.735  15.359  70.209  1.00  0.00    -0.298 C  
BRANCH   4   5
HETATM    5  S   UNL     1     -11.490  15.019  68.946  1.00  0.00    -0.333 S  
HETATM    6  O   UNL     1     -11.005  16.277  68.428  1.00  0.00    -0.320 OA 
HETATM    7  O   UNL     1     -10.600  14.026  69.496  1.00  0.00    -0.076 OA 
BRANCH   5   8
HETATM    8  N   UNL     1     -12.321  14.301  67.646  1.00  0.00    -0.582 N  
HETATM    9  H   UNL     1     -13.160  13.728  67.740  1.00  0.00     0.000 HD 
BRANCH   8  10
HETATM   10  C   UNL     1     -11.629  14.635  66.303  1.00  0.00    -0.342 C  
HETATM   11  C   UNL     1     -12.573  14.289  65.150  1.00  0.00    -0.372 C  
HETATM   12  O   UNL     1     -12.533  14.807  64.045  1.00  0.00    -0.803 OA 
HETATM   13  O   UNL     1     -13.480  13.334  65.480  1.00  0.00    -0.336 OA 
BRANCH  10  14
HETATM   14  C   UNL     1     -10.267  13.954  66.075  1.00  0.00    -0.317 C  
BRANCH  14  15
HETATM   15  C   UNL     1     -10.338  12.454  65.939  1.00  0.00    -0.282 A  
HETATM   16  C   UNL     1     -10.389  11.693  67.112  1.00  0.00    -0.247 A  
HETATM   17  C   UNL     1     -10.212  10.313  67.058  1.00  0.00    -0.282 A  
HETATM   18  C   UNL     1      -9.966   9.675  65.841  1.00  0.00    -0.281 A  
HETATM   19  C   UNL     1     -10.268  11.789  64.706  1.00  0.00    -0.324 A  
HETATM   20  C   UNL     1     -10.062  10.407  64.659  1.00  0.00    -0.378 A  
BRANCH  18  21
HETATM   21  O   UNL     1      -9.601   8.358  65.709  1.00  0.00    -0.115 OA 
BRANCH  21  22
HETATM   22  C   UNL     1      -9.547   7.650  66.949  1.00  0.00    -0.193 C  
BRANCH  22  23
HETATM   23  C   UNL     1     -10.701   6.671  67.077  1.00  0.00    -0.437 C  
BRANCH  23  24
HETATM   24  C   UNL     1     -10.817   6.023  68.464  1.00  0.00    -0.363 C  
BRANCH  24  25
HETATM   25  C   UNL     1     -10.234   6.985  69.503  1.00  0.00    -0.208 C  
BRANCH  25  26
HETATM   26  C   UNL     1     -11.242   7.883  70.245  1.00  0.00    -0.206 C  
HETATM   27  C   UNL     1     -12.266   6.996  70.979  1.00  0.00    -0.419 C  
HETATM   28  C   UNL     1     -11.703   6.411  72.273  1.00  0.00    -0.290 C  
HETATM   29  N   UNL     1     -11.296   7.484  73.174  1.00  0.00    -0.604 NA 
HETATM   30  H   UNL     1     -11.029   7.124  74.091  1.00  0.00     0.000 HD 
HETATM   31  C   UNL     1     -10.232   8.294  72.582  1.00  0.00    -0.298 C  
HETATM   32  C   UNL     1     -10.632   8.892  71.232  1.00  0.00    -0.351 C  
ENDBRANCH  25  26
ENDBRANCH  24  25
ENDBRANCH  23  24
ENDBRANCH  22  23
ENDBRANCH  21  22
ENDBRANCH  18  21
ENDBRANCH  14  15
ENDBRANCH  10  14
ENDBRANCH   8  10
ENDBRANCH   5   8
ENDBRANCH   4   5
ENDBRANCH   3   4
ENDBRANCH   2   3
TORSDOF 13
ENDMDL
MODEL       17
REMARK 921   NORMALIZED FREE ENERGY PREDICTED BY IDOCK:   -5.32 KCAL/MOL
REMARK 922        TOTAL FREE ENERGY PREDICTED BY IDOCK:  -11.91 KCAL/MOL
REMARK 923 INTER-LIGAND FREE ENERGY PREDICTED BY IDOCK:  -10.44 KCAL/MOL
REMARK 924 INTRA-LIGAND FREE ENERGY PREDICTED BY IDOCK:   -1.47 KCAL/MOL
REMARK 927      BINDING AFFINITY PREDICTED BY RF-SCORE:    0.00 PKD
ROOT
HETATM    1  C   UNL     1     -11.416  11.974  66.416  1.00  0.00    -0.417 C  
HETATM    2  C   UNL     1     -10.175  11.106  66.608  1.00  0.00    -0.274 C  
ENDROOT
BRANCH   2   3
HETATM    3  C   UNL     1     -10.612   9.742  67.115  1.00  0.00    -0.298 C  
BRANCH   3   4
HETATM    4  C   UNL     1      -9.501   8.731  67.413  1.00  0.00    -0.146 C  
BRANCH   4   5
HETATM    5  S   UNL     1      -9.601   8.426  69.190  1.00  0.00    -0.166 S  
HETATM    6  O   UNL     1      -9.053   7.118  69.465  1.00  0.00    -0.146 OA 
HETATM    7  O   UNL     1      -9.107   9.614  69.844  1.00  0.00    -0.194 OA 
BRANCH   5   8
HETATM    8  N   UNL     1     -11.258   8.292  69.553  1.00  0.00    -0.439 N  
HETATM    9  H   UNL     1     -11.968   7.952  68.904  1.00  0.00     0.000 HD 
BRANCH   8  10
HETATM   10  C   UNL     1     -11.541   8.757  71.002  1.00  0.00    -0.288 C  
HETATM   11  C   UNL     1     -11.514   7.546  71.934  1.00  0.00    -0.270 C  
HETATM   12  O   UNL     1     -11.267   7.599  73.130  1.00  0.00    -0.391 OA 
HETATM   13  O   UNL     1     -11.794   6.382  71.295  1.00  0.00    -0.327 OA 
BRANCH  10  14
HETATM   14  C   UNL     1     -12.857   9.532  71.201  1.00  0.00    -0.361 C  
BRANCH  14  15
HETATM   15  C   UNL     1     -12.701  11.032  71.193  1.00  0.00    -0.521 A  
HETATM   16  C   UNL     1     -13.381  11.766  72.171  1.00  0.00    -0.334 A  
HETATM   17  C   UNL     1     -13.472  13.151  72.069  1.00  0.00    -0.598 A  
HETATM   18  C   UNL     1     -12.901  13.823  70.986  1.00  0.00    -0.305 A  
HETATM   19  C   UNL     1     -11.982  11.726  70.209  1.00  0.00    -0.429 A  
HETATM   20  C   UNL     1     -12.100  13.114  70.093  1.00  0.00    -0.392 A  
BRANCH  18  21
HETATM   21  O   UNL     1     -13.091  15.153  70.704  1.00  0.00    -0.377 OA 
BRANCH  21  22
HETATM   22  C   UNL     1     -11.891  15.927  70.753  1.00  0.00    -0.391 C  
BRANCH  22  23
HETATM   23  C   UNL     1     -11.382  16.246  69.357  1.00  0.00    -0.284 C  
BRANCH  23  24
HETATM   24  C   UNL     1      -9.852  16.304  69.251  1.00  0.00    -0.252 C  
BRANCH  24  25
HETATM   25  C   UNL     1      -9.478  17.164  68.040  1.00  0.00    -0.262 C  
BRANCH  25  26
HETATM   26  C   UNL     1      -9.285  18.669  68.303  1.00  0.00    -0.350 C  
HETATM   27  C   UNL     1      -7.894  19.098  67.795  1.00  0.00    -0.295 C  
HETATM   28  C   UNL     1      -7.861  19.270  66.277  1.00  0.00    -0.299 C  
HETATM   29  N   UNL     1      -8.831  20.278  65.864  1.00  0.00    -0.555 NA 
HETATM   30  H   UNL     1      -8.744  20.499  64.872  1.00  0.00     0.000 HD 
HETATM   31  C   UNL     1     -10.192  19.871  66.210  1.00  0.00    -0.502 C  
HETATM   32  C   UNL     1     -10.360  19.591  67.705  1.00  0.00    -0.574 C  
ENDBRANCH  25  26
ENDBRANCH  24  25
ENDBRANCH  23  24
ENDBRANCH  22  23
ENDBRANCH  21  22
ENDBRANCH  18  21
ENDBRANCH  14  15
ENDBRANCH  10  14
ENDBRANCH   8  10
ENDBRANCH   5   8
ENDBRANCH   4   5
ENDBRANCH   3   4
ENDBRANCH   2   3
TORSDOF 13
ENDMDL
MODEL       18
REMARK 921   NORMALIZED FREE ENERGY PREDICTED BY IDOCK:   -5.31 KCAL/MOL
REMARK 922        TOTAL FREE ENERGY PREDICTED BY IDOCK:  -11.90 KCAL/MOL
REMARK 923 INTER-LIGAND FREE ENERGY PREDICTED BY IDOCK:   -9.70 KCAL/MOL
REMARK 924 INTRA-LIGAND FREE ENERGY PREDICTED BY IDOCK:   -2.19 KCAL/MOL
REMARK 927      BINDING AFFINITY PREDICTED BY RF-SCORE:    0.00 PKD
ROOT
HETATM    1  C   UNL     1     -10.581  11.609  63.255  1.00  0.00    -0.420 C  
HETATM    2  C   UNL     1     -11.881  11.980  63.965  1.00  0.00    -0.500 C  
ENDROOT
BRANCH   2   3
HETATM    3  C   UNL     1     -12.149  13.458  63.744  1.00  0.00    -0.516 C  
BRANCH   3   4
HETATM    4  C   UNL     1     -12.327  14.321  64.997  1.00  0.00    -0.428 C  
BRANCH   4   5
HETATM    5  S   UNL     1     -10.954  15.493  64.965  1.00  0.00    -0.415 S  
HETATM    6  O   UNL     1      -9.744  14.778  64.633  1.00  0.00     0.062 OA 
HETATM    7  O   UNL     1     -11.401  16.634  64.203  1.00  0.00    -1.141 OA 
BRANCH   5   8
HETATM    8  N   UNL     1     -10.733  16.005  66.573  1.00  0.00    -0.281 N  
HETATM    9  H   UNL     1     -10.419  16.937  66.847  1.00  0.00     0.000 HD 
BRANCH   8  10
HETATM   10  C   UNL     1     -11.073  14.865  67.562  1.00  0.00    -0.317 C  
HETATM   11  C   UNL     1     -11.670  15.465  68.836  1.00  0.00    -0.359 C  
HETATM   12  O   UNL     1     -12.417  14.869  69.597  1.00  0.00    -0.241 OA 
HETATM   13  O   UNL     1     -11.284  16.749  69.045  1.00  0.00    -0.228 OA 
BRANCH  10  14
HETATM   14  C   UNL     1      -9.899  13.939  67.930  1.00  0.00    -0.228 C  
BRANCH  14  15
HETATM   15  C   UNL     1      -9.990  12.557  67.334  1.00  0.00    -0.207 A  
HETATM   16  C   UNL     1     -11.124  11.791  67.626  1.00  0.00    -0.312 A  
HETATM   17  C   UNL     1     -11.155  10.436  67.311  1.00  0.00    -0.251 A  
HETATM   18  C   UNL     1     -10.052   9.820  66.714  1.00  0.00    -0.231 A  
HETATM   19  C   UNL     1      -8.961  11.974  66.578  1.00  0.00    -0.193 A  
HETATM   20  C   UNL     1      -8.983  10.608  66.289  1.00  0.00    -0.180 A  
BRANCH  18  21
HETATM   21  O   UNL     1      -9.916   8.467  66.533  1.00  0.00    -0.258 OA 
BRANCH  21  22
HETATM   22  C   UNL     1     -10.646   7.684  67.481  1.00  0.00    -0.252 C  
BRANCH  22  23
HETATM   23  C   UNL     1     -10.417   6.199  67.263  1.00  0.00    -0.317 C  
BRANCH  23  24
HETATM   24  C   UNL     1      -9.805   5.480  68.473  1.00  0.00    -0.193 C  
BRANCH  24  25
HETATM   25  C   UNL     1     -10.050   6.330  69.723  1.00  0.00    -0.217 C  
BRANCH  25  26
HETATM   26  C   UNL     1     -11.167   5.850  70.669  1.00  0.00    -0.284 C  
HETATM   27  C   UNL     1     -10.534   5.275  71.950  1.00  0.00    -0.282 C  
HETATM   28  C   UNL     1     -10.073   6.371  72.910  1.00  0.00    -0.183 C  
HETATM   29  N   UNL     1     -11.204   7.210  73.294  1.00  0.00    -0.567 NA 
HETATM   30  H   UNL     1     -10.948   7.874  74.026  1.00  0.00     0.000 HD 
HETATM   31  C   UNL     1     -11.776   7.886  72.130  1.00  0.00    -0.333 C  
HETATM   32  C   UNL     1     -12.221   6.906  71.042  1.00  0.00    -0.427 C  
ENDBRANCH  25  26
ENDBRANCH  24  25
ENDBRANCH  23  24
ENDBRANCH  22  23
ENDBRANCH  21  22
ENDBRANCH  18  21
ENDBRANCH  14  15
ENDBRANCH  10  14
ENDBRANCH   8  10
ENDBRANCH   5   8
ENDBRANCH   4   5
ENDBRANCH   3   4
ENDBRANCH   2   3
TORSDOF 13
ENDMDL
MODEL       19
REMARK 921   NORMALIZED FREE ENERGY PREDICTED BY IDOCK:   -5.31 KCAL/MOL
REMARK 922        TOTAL FREE ENERGY PREDICTED BY IDOCK:  -11.89 KCAL/MOL
REMARK 923 INTER-LIGAND FREE ENERGY PREDICTED BY IDOCK:  -10.20 KCAL/MOL
REMARK 924 INTRA-LIGAND FREE ENERGY PREDICTED BY IDOCK:   -1.69 KCAL/MOL
REMARK 927      BINDING AFFINITY PREDICTED BY RF-SCORE:    0.00 PKD
ROOT
HETATM    1  C   UNL     1      -9.271   2.371  67.268  1.00  0.00    -0.151 C  
HETATM    2  C   UNL     1      -9.409   3.155  68.571  1.00  0.00    -0.240 C  
ENDROOT
BRANCH   2   3
HETATM    3  C   UNL     1      -9.724   4.602  68.234  1.00  0.00    -0.193 C  
BRANCH   3   4
HETATM    4  C   UNL     1      -9.557   5.624  69.363  1.00  0.00    -0.143 C  
BRANCH   4   5
HETATM    5  S   UNL     1     -10.594   7.026  68.893  1.00  0.00    -0.202 S  
HETATM    6  O   UNL     1      -9.844   8.243  69.098  1.00  0.00    -0.172 OA 
HETATM    7  O   UNL     1     -11.181   6.696  67.616  1.00  0.00    -0.296 OA 
BRANCH   5   8
HETATM    8  N   UNL     1     -11.852   7.088  70.036  1.00  0.00    -0.600 N  
HETATM    9  H   UNL     1     -12.687   6.502  70.012  1.00  0.00     0.000 HD 
BRANCH   8  10
HETATM   10  C   UNL     1     -11.556   8.153  71.119  1.00  0.00    -0.279 C  
HETATM   11  C   UNL     1     -10.994   7.464  72.363  1.00  0.00    -0.275 C  
HETATM   12  O   UNL     1     -10.277   8.008  73.190  1.00  0.00    -0.322 OA 
HETATM   13  O   UNL     1     -11.372   6.165  72.463  1.00  0.00    -0.270 OA 
BRANCH  10  14
HETATM   14  C   UNL     1     -12.750   9.040  71.516  1.00  0.00    -0.399 C  
BRANCH  14  15
HETATM   15  C   UNL     1     -12.671  10.454  70.999  1.00  0.00    -0.490 A  
HETATM   16  C   UNL     1     -12.095  10.660  69.741  1.00  0.00    -0.343 A  
HETATM   17  C   UNL     1     -11.776  11.948  69.319  1.00  0.00    -0.389 A  
HETATM   18  C   UNL     1     -12.011  13.046  70.149  1.00  0.00    -0.303 A  
HETATM   19  C   UNL     1     -13.065  11.571  71.750  1.00  0.00    -0.503 A  
HETATM   20  C   UNL     1     -12.717  12.860  71.337  1.00  0.00    -0.366 A  
BRANCH  18  21
HETATM   21  O   UNL     1     -11.569  14.321  69.902  1.00  0.00    -0.263 OA 
BRANCH  21  22
HETATM   22  C   UNL     1     -10.342  14.371  69.169  1.00  0.00    -0.154 C  
BRANCH  22  23
HETATM   23  C   UNL     1     -10.437  15.334  67.999  1.00  0.00    -0.248 C  
BRANCH  23  24
HETATM   24  C   UNL     1     -11.423  14.893  66.908  1.00  0.00    -0.318 C  
BRANCH  24  25
HETATM   25  C   UNL     1     -10.750  13.823  66.044  1.00  0.00    -0.284 C  
BRANCH  25  26
HETATM   26  C   UNL     1     -11.515  12.496  65.880  1.00  0.00    -0.417 C  
HETATM   27  C   UNL     1     -12.659  12.692  64.867  1.00  0.00    -0.525 C  
HETATM   28  C   UNL     1     -12.161  12.684  63.422  1.00  0.00    -0.525 C  
HETATM   29  N   UNL     1     -11.499  11.417  63.127  1.00  0.00    -0.873 NA 
HETATM   30  H   UNL     1     -11.264  11.338  62.137  1.00  0.00     0.000 HD 
HETATM   31  C   UNL     1     -10.324  11.227  63.977  1.00  0.00    -0.371 C  
HETATM   32  C   UNL     1     -10.662  11.284  65.468  1.00  0.00    -0.283 C  
ENDBRANCH  25  26
ENDBRANCH  24  25
ENDBRANCH  23  24
ENDBRANCH  22  23
ENDBRANCH  21  22
ENDBRANCH  18  21
ENDBRANCH  14  15
ENDBRANCH  10  14
ENDBRANCH   8  10
ENDBRANCH   5   8
ENDBRANCH   4   5
ENDBRANCH   3   4
ENDBRANCH   2   3
TORSDOF 13
ENDMDL
MODEL       20
REMARK 921   NORMALIZED FREE ENERGY PREDICTED BY IDOCK:   -5.31 KCAL/MOL
REMARK 922        TOTAL FREE ENERGY PREDICTED BY IDOCK:  -11.89 KCAL/MOL
REMARK 923 INTER-LIGAND FREE ENERGY PREDICTED BY IDOCK:  -10.05 KCAL/MOL
REMARK 924 INTRA-LIGAND FREE ENERGY PREDICTED BY IDOCK:   -1.83 KCAL/MOL
REMARK 927      BINDING AFFINITY PREDICTED BY RF-SCORE:    0.00 PKD
ROOT
HETATM    1  C   UNL     1     -12.382  10.824  70.595  1.00  0.00    -0.465 C  
HETATM    2  C   UNL     1     -13.113  11.409  71.801  1.00  0.00    -0.523 C  
ENDROOT
BRANCH   2   3
HETATM    3  C   UNL     1     -13.141  12.921  71.664  1.00  0.00    -0.430 C  
BRANCH   3   4
HETATM    4  C   UNL     1     -12.456  13.513  70.428  1.00  0.00    -0.275 C  
BRANCH   4   5
HETATM    5  S   UNL     1     -12.601  15.303  70.617  1.00  0.00    -0.427 S  
HETATM    6  O   UNL     1     -13.952  15.616  71.022  1.00  0.00    -0.534 OA 
HETATM    7  O   UNL     1     -11.456  15.734  71.381  1.00  0.00    -0.377 OA 
BRANCH   5   8
HETATM    8  N   UNL     1     -12.450  15.957  69.053  1.00  0.00    -0.368 N  
HETATM    9  H   UNL     1     -12.970  16.764  68.710  1.00  0.00     0.000 HD 
BRANCH   8  10
HETATM   10  C   UNL     1     -11.415  15.159  68.224  1.00  0.00    -0.336 C  
HETATM   11  C   UNL     1     -10.340  16.115  67.706  1.00  0.00    -0.283 C  
HETATM   12  O   UNL     1      -9.202  15.782  67.414  1.00  0.00    -0.198 OA 
HETATM   13  O   UNL     1     -10.778  17.395  67.602  1.00  0.00    -0.363 OA 
BRANCH  10  14
HETATM   14  C   UNL     1     -11.994  14.350  67.049  1.00  0.00    -0.424 C  
BRANCH  14  15
HETATM   15  C   UNL     1     -11.206  13.113  66.700  1.00  0.00    -0.335 A  
HETATM   16  C   UNL     1     -11.211  12.688  65.367  1.00  0.00    -0.334 A  
HETATM   17  C   UNL     1     -10.709  11.434  65.030  1.00  0.00    -0.340 A  
HETATM   18  C   UNL     1     -10.210  10.580  66.016  1.00  0.00    -0.245 A  
HETATM   19  C   UNL     1     -10.545  12.326  67.655  1.00  0.00    -0.238 A  
HETATM   20  C   UNL     1     -10.068  11.056  67.318  1.00  0.00    -0.222 A  
BRANCH  18  21
HETATM   21  O   UNL     1      -9.866   9.267  65.811  1.00  0.00    -0.296 OA 
BRANCH  21  22
HETATM   22  C   UNL     1      -9.703   8.521  67.019  1.00  0.00    -0.204 C  
BRANCH  22  23
HETATM   23  C   UNL     1     -10.643   7.328  67.062  1.00  0.00    -0.415 C  
BRANCH  23  24
HETATM   24  C   UNL     1     -10.803   6.713  68.459  1.00  0.00    -0.319 C  
BRANCH  24  25
HETATM   25  C   UNL     1     -10.493   7.787  69.506  1.00  0.00    -0.225 C  
BRANCH  25  26
HETATM   26  C   UNL     1      -9.643   7.343  70.711  1.00  0.00    -0.170 C  
HETATM   27  C   UNL     1      -9.824   8.354  71.859  1.00  0.00    -0.328 C  
HETATM   28  C   UNL     1     -11.143   8.154  72.605  1.00  0.00    -0.380 C  
HETATM   29  N   UNL     1     -11.203   6.808  73.165  1.00  0.00    -0.496 NA 
HETATM   30  H   UNL     1     -12.017   6.688  73.768  1.00  0.00     0.000 HD 
HETATM   31  C   UNL     1     -11.160   5.796  72.110  1.00  0.00    -0.271 C  
HETATM   32  C   UNL     1      -9.915   5.920  71.228  1.00  0.00    -0.232 C  
ENDBRANCH  25  26
ENDBRANCH  24  25
ENDBRANCH  23  24
ENDBRANCH  22  23
ENDBRANCH  21  22
ENDBRANCH  18  21
ENDBRANCH  14  15
ENDBRANCH  10  14
ENDBRANCH   8  10
ENDBRANCH   5   8
ENDBRANCH   4   5
ENDBRANCH   3   4
ENDBRANCH   2   3
TORSDOF 13
ENDMDL
MODEL       21
REMARK 921   NORMALIZED FREE ENERGY PREDICTED BY IDOCK:   -5.29 KCAL/MOL
REMARK 922        TOTAL FREE ENERGY PREDICTED BY IDOCK:  -11.86 KCAL/MOL
REMARK 923 INTER-LIGAND FREE ENERGY PREDICTED BY IDOCK:   -9.43 KCAL/MOL
REMARK 924 INTRA-LIGAND FREE ENERGY PREDICTED BY IDOCK:   -2.43 KCAL/MOL
REMARK 927      BINDING AFFINITY PREDICTED BY RF-SCORE:    0.00 PKD
ROOT
HETATM    1  C   UNL     1     -12.660  11.942  63.555  1.00  0.00    -0.579 C  
HETATM    2  C   UNL     1     -11.134  11.890  63.581  1.00  0.00    -0.517 C  
ENDROOT
BRANCH   2   3
HETATM    3  C   UNL     1     -10.616  13.178  64.195  1.00  0.00    -0.384 C  
BRANCH   3   4
HETATM    4  C   UNL     1     -11.665  14.154  64.736  1.00  0.00    -0.410 C  
BRANCH   4   5
HETATM    5  S   UNL     1     -10.754  15.665  65.121  1.00  0.00    -0.425 S  
HETATM    6  O   UNL     1      -9.341  15.367  65.108  1.00  0.00     0.022 OA 
HETATM    7  O   UNL     1     -11.322  16.711  64.305  1.00  0.00    -1.116 OA 
BRANCH   5   8
HETATM    8  N   UNL     1     -11.110  16.031  66.744  1.00  0.00    -0.113 N  
HETATM    9  H   UNL     1     -11.258  16.973  67.107  1.00  0.00     0.000 HD 
BRANCH   8  10
HETATM   10  C   UNL     1     -11.179  14.739  67.593  1.00  0.00    -0.323 C  
HETATM   11  C   UNL     1     -11.843  15.054  68.935  1.00  0.00    -0.307 C  
HETATM   12  O   UNL     1     -12.428  14.233  69.625  1.00  0.00    -0.308 OA 
HETATM   13  O   UNL     1     -11.718  16.357  69.292  1.00  0.00    -0.195 OA 
BRANCH  10  14
HETATM   14  C   UNL     1      -9.831  14.037  67.837  1.00  0.00    -0.233 C  
BRANCH  14  15
HETATM   15  C   UNL     1      -9.885  12.535  67.725  1.00  0.00    -0.204 A  
HETATM   16  C   UNL     1      -8.680  11.828  67.805  1.00  0.00    -0.155 A  
HETATM   17  C   UNL     1      -8.636  10.478  67.470  1.00  0.00    -0.121 A  
HETATM   18  C   UNL     1      -9.786   9.816  67.034  1.00  0.00    -0.193 A  
HETATM   19  C   UNL     1     -11.065  11.824  67.459  1.00  0.00    -0.330 A  
HETATM   20  C   UNL     1     -11.013  10.476  67.095  1.00  0.00    -0.294 A  
BRANCH  18  21
HETATM   21  O   UNL     1      -9.807   8.547  66.512  1.00  0.00    -0.237 OA 
BRANCH  21  22
HETATM   22  C   UNL     1     -10.762   7.685  67.135  1.00  0.00    -0.290 C  
BRANCH  22  23
HETATM   23  C   UNL     1     -10.086   6.484  67.774  1.00  0.00    -0.176 C  
BRANCH  23  24
HETATM   24  C   UNL     1      -9.824   6.644  69.277  1.00  0.00    -0.157 C  
BRANCH  24  25
HETATM   25  C   UNL     1     -10.981   7.433  69.895  1.00  0.00    -0.239 C  
BRANCH  25  26
HETATM   26  C   UNL     1     -10.610   8.442  70.998  1.00  0.00    -0.258 C  
HETATM   27  C   UNL     1     -10.905   9.870  70.499  1.00  0.00    -0.391 C  
HETATM   28  C   UNL     1     -12.393  10.210  70.568  1.00  0.00    -0.245 C  
HETATM   29  N   UNL     1     -12.872  10.096  71.942  1.00  0.00    -0.429 NA 
HETATM   30  H   UNL     1     -13.830  10.434  72.035  1.00  0.00     0.000 HD 
HETATM   31  C   UNL     1     -12.732   8.727  72.435  1.00  0.00    -0.368 C  
HETATM   32  C   UNL     1     -11.290   8.220  72.359  1.00  0.00    -0.457 C  
ENDBRANCH  25  26
ENDBRANCH  24  25
ENDBRANCH  23  24
ENDBRANCH  22  23
ENDBRANCH  21  22
ENDBRANCH  18  21
ENDBRANCH  14  15
ENDBRANCH  10  14
ENDBRANCH   8  10
ENDBRANCH   5   8
ENDBRANCH   4   5
ENDBRANCH   3   4
ENDBRANCH   2   3
TORSDOF 13
ENDMDL
MODEL       22
REMARK 921   NORMALIZED FREE ENERGY PREDICTED BY IDOCK:   -5.27 KCAL/MOL
REMARK 922        TOTAL FREE ENERGY PREDICTED BY IDOCK:  -11.82 KCAL/MOL
REMARK 923 INTER-LIGAND FREE ENERGY PREDICTED BY IDOCK:   -9.61 KCAL/MOL
REMARK 924 INTRA-LIGAND FREE ENERGY PREDICTED BY IDOCK:   -2.22 KCAL/MOL
REMARK 927      BINDING AFFINITY PREDICTED BY RF-SCORE:    0.00 PKD
ROOT
HETATM    1  C   UNL     1     -10.429  11.075  63.878  1.00  0.00    -0.422 C  
HETATM    2  C   UNL     1     -11.574  12.084  63.877  1.00  0.00    -0.536 C  
ENDROOT
BRANCH   2   3
HETATM    3  C   UNL     1     -11.024  13.441  64.283  1.00  0.00    -0.391 C  
BRANCH   3   4
HETATM    4  C   UNL     1     -11.872  14.264  65.258  1.00  0.00    -0.374 C  
BRANCH   4   5
HETATM    5  S   UNL     1     -10.896  15.743  65.603  1.00  0.00    -0.272 S  
HETATM    6  O   UNL     1     -10.939  16.605  64.445  1.00  0.00    -0.924 OA 
HETATM    7  O   UNL     1     -11.290  16.204  66.913  1.00  0.00     0.028 OA 
BRANCH   5   8
HETATM    8  N   UNL     1      -9.277  15.228  65.706  1.00  0.00    -0.436 N  
HETATM    9  H   UNL     1      -8.614  15.243  64.931  1.00  0.00     0.000 HD 
BRANCH   8  10
HETATM   10  C   UNL     1      -8.950  14.732  67.134  1.00  0.00    -0.224 C  
HETATM   11  C   UNL     1      -7.690  15.438  67.636  1.00  0.00    -0.160 C  
HETATM   12  O   UNL     1      -7.418  15.611  68.815  1.00  0.00    -0.133 OA 
HETATM   13  O   UNL     1      -6.887  15.863  66.628  1.00  0.00    -0.204 OA 
BRANCH  10  14
HETATM   14  C   UNL     1      -8.781  13.208  67.281  1.00  0.00    -0.210 C  
BRANCH  14  15
HETATM   15  C   UNL     1     -10.004  12.496  67.801  1.00  0.00    -0.210 A  
HETATM   16  C   UNL     1     -10.845  13.192  68.676  1.00  0.00    -0.287 A  
HETATM   17  C   UNL     1     -11.843  12.518  69.373  1.00  0.00    -0.368 A  
HETATM   18  C   UNL     1     -12.009  11.139  69.220  1.00  0.00    -0.351 A  
HETATM   19  C   UNL     1     -10.289  11.151  67.520  1.00  0.00    -0.228 A  
HETATM   20  C   UNL     1     -11.274  10.471  68.242  1.00  0.00    -0.354 A  
BRANCH  18  21
HETATM   21  O   UNL     1     -12.836  10.362  69.992  1.00  0.00    -0.175 OA 
BRANCH  21  22
HETATM   22  C   UNL     1     -12.889  10.764  71.362  1.00  0.00    -0.452 C  
BRANCH  22  23
HETATM   23  C   UNL     1     -13.385   9.636  72.250  1.00  0.00    -0.498 C  
BRANCH  23  24
HETATM   24  C   UNL     1     -14.003   8.462  71.478  1.00  0.00    -0.407 C  
BRANCH  24  25
HETATM   25  C   UNL     1     -13.100   7.236  71.644  1.00  0.00    -0.417 C  
BRANCH  25  26
HETATM   26  C   UNL     1     -11.589   7.470  71.459  1.00  0.00    -0.301 C  
HETATM   27  C   UNL     1     -10.815   6.619  72.485  1.00  0.00    -0.270 C  
HETATM   28  C   UNL     1     -10.727   5.152  72.070  1.00  0.00    -0.169 C  
HETATM   29  N   UNL     1     -10.058   5.034  70.779  1.00  0.00    -0.229 NA 
HETATM   30  H   UNL     1      -9.878   4.060  70.536  1.00  0.00     0.000 HD 
HETATM   31  C   UNL     1     -10.812   5.721  69.731  1.00  0.00    -0.349 C  
HETATM   32  C   UNL     1     -11.042   7.201  70.047  1.00  0.00    -0.288 C  
ENDBRANCH  25  26
ENDBRANCH  24  25
ENDBRANCH  23  24
ENDBRANCH  22  23
ENDBRANCH  21  22
ENDBRANCH  18  21
ENDBRANCH  14  15
ENDBRANCH  10  14
ENDBRANCH   8  10
ENDBRANCH   5   8
ENDBRANCH   4   5
ENDBRANCH   3   4
ENDBRANCH   2   3
TORSDOF 13
ENDMDL
MODEL       23
REMARK 921   NORMALIZED FREE ENERGY PREDICTED BY IDOCK:   -5.27 KCAL/MOL
REMARK 922        TOTAL FREE ENERGY PREDICTED BY IDOCK:  -11.82 KCAL/MOL
REMARK 923 INTER-LIGAND FREE ENERGY PREDICTED BY IDOCK:   -9.48 KCAL/MOL
REMARK 924 INTRA-LIGAND FREE ENERGY PREDICTED BY IDOCK:   -2.34 KCAL/MOL
REMARK 927      BINDING AFFINITY PREDICTED BY RF-SCORE:    0.00 PKD
ROOT
HETATM    1  C   UNL     1     -10.458   6.225  66.807  1.00  0.00    -0.311 C  
HETATM    2  C   UNL     1     -10.340   7.650  67.342  1.00  0.00    -0.347 C  
ENDROOT
BRANCH   2   3
HETATM    3  C   UNL     1      -9.550   8.478  66.344  1.00  0.00    -0.314 C  
BRANCH   3   4
HETATM    4  C   UNL     1     -10.261   9.695  65.744  1.00  0.00    -0.102 C  
BRANCH   4   5
HETATM    5  S   UNL     1      -8.978  10.955  65.569  1.00  0.00    -0.186 S  
HETATM    6  O   UNL     1      -8.387  11.194  66.865  1.00  0.00    -0.135 OA 
HETATM    7  O   UNL     1      -8.184  10.582  64.424  1.00  0.00    -0.150 OA 
BRANCH   5   8
HETATM    8  N   UNL     1      -9.787  12.402  65.183  1.00  0.00    -0.431 N  
HETATM    9  H   UNL     1      -9.360  13.194  64.702  1.00  0.00     0.000 HD 
BRANCH   8  10
HETATM   10  C   UNL     1     -11.257  12.351  65.660  1.00  0.00    -0.322 C  
HETATM   11  C   UNL     1     -12.184  12.545  64.460  1.00  0.00    -0.453 C  
HETATM   12  O   UNL     1     -13.335  12.140  64.402  1.00  0.00    -0.740 OA 
HETATM   13  O   UNL     1     -11.594  13.222  63.442  1.00  0.00    -0.358 OA 
BRANCH  10  14
HETATM   14  C   UNL     1     -11.627  13.359  66.765  1.00  0.00    -0.404 C  
BRANCH  14  15
HETATM   15  C   UNL     1     -11.686  12.767  68.150  1.00  0.00    -0.392 A  
HETATM   16  C   UNL     1     -11.559  11.379  68.275  1.00  0.00    -0.376 A  
HETATM   17  C   UNL     1     -11.845  10.756  69.486  1.00  0.00    -0.380 A  
HETATM   18  C   UNL     1     -12.277  11.502  70.585  1.00  0.00    -0.378 A  
HETATM   19  C   UNL     1     -11.947  13.525  69.301  1.00  0.00    -0.378 A  
HETATM   20  C   UNL     1     -12.262  12.894  70.508  1.00  0.00    -0.395 A  
BRANCH  18  21
HETATM   21  O   UNL     1     -12.753  10.966  71.755  1.00  0.00    -0.398 OA 
BRANCH  21  22
HETATM   22  C   UNL     1     -13.878  10.103  71.574  1.00  0.00     0.092 C  
BRANCH  22  23
HETATM   23  C   UNL     1     -13.748   8.843  72.413  1.00  0.00    -0.512 C  
BRANCH  23  24
HETATM   24  C   UNL     1     -13.629   7.555  71.586  1.00  0.00    -0.442 C  
BRANCH  24  25
HETATM   25  C   UNL     1     -12.221   7.486  70.988  1.00  0.00    -0.288 C  
BRANCH  25  26
HETATM   26  C   UNL     1     -11.055   7.397  71.990  1.00  0.00    -0.279 C  
HETATM   27  C   UNL     1     -10.287   6.081  71.759  1.00  0.00    -0.259 C  
HETATM   28  C   UNL     1      -9.356   6.160  70.550  1.00  0.00    -0.161 C  
HETATM   29  N   UNL     1      -8.383   7.233  70.735  1.00  0.00    -0.123 NA 
HETATM   30  H   UNL     1      -7.676   7.229  70.000  1.00  0.00     0.000 HD 
HETATM   31  C   UNL     1      -9.047   8.532  70.838  1.00  0.00    -0.172 C  
HETATM   32  C   UNL     1     -10.072   8.579  71.974  1.00  0.00    -0.386 C  
ENDBRANCH  25  26
ENDBRANCH  24  25
ENDBRANCH  23  24
ENDBRANCH  22  23
ENDBRANCH  21  22
ENDBRANCH  18  21
ENDBRANCH  14  15
ENDBRANCH  10  14
ENDBRANCH   8  10
ENDBRANCH   5   8
ENDBRANCH   4   5
ENDBRANCH   3   4
ENDBRANCH   2   3
TORSDOF 13
ENDMDL
MODEL       24
REMARK 921   NORMALIZED FREE ENERGY PREDICTED BY IDOCK:   -5.24 KCAL/MOL
REMARK 922        TOTAL FREE ENERGY PREDICTED BY IDOCK:  -11.77 KCAL/MOL
REMARK 923 INTER-LIGAND FREE ENERGY PREDICTED BY IDOCK:   -9.55 KCAL/MOL
REMARK 924 INTRA-LIGAND FREE ENERGY PREDICTED BY IDOCK:   -2.23 KCAL/MOL
REMARK 927      BINDING AFFINITY PREDICTED BY RF-SCORE:    0.00 PKD
ROOT
HETATM    1  C   UNL     1     -12.633  15.231  70.329  1.00  0.00    -0.388 C  
HETATM    2  C   UNL     1     -11.175  15.536  69.993  1.00  0.00    -0.325 C  
ENDROOT
BRANCH   2   3
HETATM    3  C   UNL     1     -11.128  16.263  68.660  1.00  0.00    -0.356 C  
BRANCH   3   4
HETATM    4  C   UNL     1      -9.743  16.670  68.147  1.00  0.00    -0.244 C  
BRANCH   4   5
HETATM    5  S   UNL     1      -9.624  15.961  66.490  1.00  0.00    -0.291 S  
HETATM    6  O   UNL     1      -9.150  16.981  65.585  1.00  0.00    -0.500 OA 
HETATM    7  O   UNL     1      -8.953  14.691  66.629  1.00  0.00    -0.256 OA 
BRANCH   5   8
HETATM    8  N   UNL     1     -11.222  15.645  65.995  1.00  0.00    -0.132 N  
HETATM    9  H   UNL     1     -11.948  16.354  65.894  1.00  0.00     0.000 HD 
BRANCH   8  10
HETATM   10  C   UNL     1     -11.421  14.136  65.721  1.00  0.00    -0.327 C  
HETATM   11  C   UNL     1     -12.025  13.953  64.327  1.00  0.00    -0.444 C  
HETATM   12  O   UNL     1     -11.906  12.943  63.649  1.00  0.00    -0.464 OA 
HETATM   13  O   UNL     1     -12.717  15.041  63.906  1.00  0.00    -0.775 OA 
BRANCH  10  14
HETATM   14  C   UNL     1     -12.279  13.384  66.756  1.00  0.00    -0.367 C  
BRANCH  14  15
HETATM   15  C   UNL     1     -11.552  12.277  67.476  1.00  0.00    -0.422 A  
HETATM   16  C   UNL     1     -12.005  11.917  68.750  1.00  0.00    -0.307 A  
HETATM   17  C   UNL     1     -11.237  11.081  69.556  1.00  0.00    -0.343 A  
HETATM   18  C   UNL     1     -10.001  10.606  69.113  1.00  0.00    -0.211 A  
HETATM   19  C   UNL     1     -10.399  11.656  66.971  1.00  0.00    -0.248 A  
HETATM   20  C   UNL     1      -9.617  10.841  67.793  1.00  0.00    -0.176 A  
BRANCH  18  21
HETATM   21  O   UNL     1      -9.096   9.933  69.895  1.00  0.00    -0.218 OA 
BRANCH  21  22
HETATM   22  C   UNL     1      -9.686   9.278  71.021  1.00  0.00    -0.271 C  
BRANCH  22  23
HETATM   23  C   UNL     1      -9.736   7.773  70.820  1.00  0.00    -0.175 C  
BRANCH  23  24
HETATM   24  C   UNL     1     -10.887   7.303  69.920  1.00  0.00    -0.264 C  
BRANCH  24  25
HETATM   25  C   UNL     1     -10.349   6.248  68.949  1.00  0.00    -0.246 C  
BRANCH  25  26
HETATM   26  C   UNL     1     -10.941   6.262  67.528  1.00  0.00    -0.444 C  
HETATM   27  C   UNL     1     -10.585   7.597  66.845  1.00  0.00    -0.359 C  
HETATM   28  C   UNL     1      -9.143   7.622  66.339  1.00  0.00    -0.174 C  
HETATM   29  N   UNL     1      -8.929   6.544  65.379  1.00  0.00    -0.368 NA 
HETATM   30  H   UNL     1      -8.012   6.611  64.937  1.00  0.00     0.000 HD 
HETATM   31  C   UNL     1      -9.132   5.236  66.002  1.00  0.00    -0.152 C  
HETATM   32  C   UNL     1     -10.524   5.091  66.622  1.00  0.00    -0.301 C  
ENDBRANCH  25  26
ENDBRANCH  24  25
ENDBRANCH  23  24
ENDBRANCH  22  23
ENDBRANCH  21  22
ENDBRANCH  18  21
ENDBRANCH  14  15
ENDBRANCH  10  14
ENDBRANCH   8  10
ENDBRANCH   5   8
ENDBRANCH   4   5
ENDBRANCH   3   4
ENDBRANCH   2   3
TORSDOF 13
ENDMDL
MODEL       25
REMARK 921   NORMALIZED FREE ENERGY PREDICTED BY IDOCK:   -5.24 KCAL/MOL
REMARK 922        TOTAL FREE ENERGY PREDICTED BY IDOCK:  -11.77 KCAL/MOL
REMARK 923 INTER-LIGAND FREE ENERGY PREDICTED BY IDOCK:   -9.07 KCAL/MOL
REMARK 924 INTRA-LIGAND FREE ENERGY PREDICTED BY IDOCK:   -2.70 KCAL/MOL
REMARK 927      BINDING AFFINITY PREDICTED BY RF-SCORE:    0.00 PKD
ROOT
HETATM    1  C   UNL     1      -8.489  10.402  69.152  1.00  0.00    -0.168 C  
HETATM    2  C   UNL     1     -10.016  10.386  69.120  1.00  0.00    -0.237 C  
ENDROOT
BRANCH   2   3
HETATM    3  C   UNL     1     -10.519   9.719  70.388  1.00  0.00    -0.358 C  
BRANCH   3   4
HETATM    4  C   UNL     1     -12.034   9.728  70.616  1.00  0.00    -0.259 C  
BRANCH   4   5
HETATM    5  S   UNL     1     -12.343   8.406  71.806  1.00  0.00    -0.350 S  
HETATM    6  O   UNL     1     -12.703   9.000  73.072  1.00  0.00    -0.209 OA 
HETATM    7  O   UNL     1     -13.191   7.443  71.146  1.00  0.00    -0.306 OA 
BRANCH   5   8
HETATM    8  N   UNL     1     -10.839   7.659  72.084  1.00  0.00    -0.233 N  
HETATM    9  H   UNL     1      -9.997   8.148  72.391  1.00  0.00     0.000 HD 
BRANCH   8  10
HETATM   10  C   UNL     1     -10.923   6.140  71.806  1.00  0.00    -0.264 C  
HETATM   11  C   UNL     1     -10.981   5.387  73.136  1.00  0.00    -0.302 C  
HETATM   12  O   UNL     1     -11.472   4.278  73.281  1.00  0.00    -0.250 OA 
HETATM   13  O   UNL     1     -10.426   6.082  74.160  1.00  0.00    -0.279 OA 
BRANCH  10  14
HETATM   14  C   UNL     1      -9.788   5.564  70.937  1.00  0.00    -0.241 C  
BRANCH  14  15
HETATM   15  C   UNL     1      -9.783   6.063  69.514  1.00  0.00    -0.182 A  
HETATM   16  C   UNL     1      -8.561   6.466  68.967  1.00  0.00    -0.124 A  
HETATM   17  C   UNL     1      -8.528   7.155  67.757  1.00  0.00    -0.120 A  
HETATM   18  C   UNL     1      -9.712   7.466  67.085  1.00  0.00    -0.171 A  
HETATM   19  C   UNL     1     -10.948   6.222  68.750  1.00  0.00    -0.424 A  
HETATM   20  C   UNL     1     -10.916   6.939  67.551  1.00  0.00    -0.340 A  
BRANCH  18  21
HETATM   21  O   UNL     1      -9.796   8.292  65.992  1.00  0.00    -0.147 OA 
BRANCH  21  22
HETATM   22  C   UNL     1      -8.525   8.672  65.461  1.00  0.00    -0.165 C  
BRANCH  22  23
HETATM   23  C   UNL     1      -8.488  10.153  65.124  1.00  0.00    -0.167 C  
BRANCH  23  24
HETATM   24  C   UNL     1      -9.846  10.729  64.700  1.00  0.00    -0.366 C  
BRANCH  24  25
HETATM   25  C   UNL     1     -10.192  11.899  65.627  1.00  0.00    -0.280 C  
BRANCH  25  26
HETATM   26  C   UNL     1     -11.662  12.357  65.630  1.00  0.00    -0.468 C  
HETATM   27  C   UNL     1     -11.726  13.854  65.991  1.00  0.00    -0.381 C  
HETATM   28  C   UNL     1     -11.359  14.750  64.809  1.00  0.00    -0.397 C  
HETATM   29  N   UNL     1     -12.268  14.507  63.694  1.00  0.00    -1.062 NA 
HETATM   30  H   UNL     1     -12.121  15.176  62.937  1.00  0.00     0.000 HD 
HETATM   31  C   UNL     1     -12.165  13.127  63.221  1.00  0.00    -0.360 C  
HETATM   32  C   UNL     1     -12.440  12.106  64.327  1.00  0.00    -0.461 C  
ENDBRANCH  25  26
ENDBRANCH  24  25
ENDBRANCH  23  24
ENDBRANCH  22  23
ENDBRANCH  21  22
ENDBRANCH  18  21
ENDBRANCH  14  15
ENDBRANCH  10  14
ENDBRANCH   8  10
ENDBRANCH   5   8
ENDBRANCH   4   5
ENDBRANCH   3   4
ENDBRANCH   2   3
TORSDOF 13
ENDMDL
MODEL       26
REMARK 921   NORMALIZED FREE ENERGY PREDICTED BY IDOCK:   -5.24 KCAL/MOL
REMARK 922        TOTAL FREE ENERGY PREDICTED BY IDOCK:  -11.77 KCAL/MOL
REMARK 923 INTER-LIGAND FREE ENERGY PREDICTED BY IDOCK:   -9.52 KCAL/MOL
REMARK 924 INTRA-LIGAND FREE ENERGY PREDICTED BY IDOCK:   -2.25 KCAL/MOL
REMARK 927      BINDING AFFINITY PREDICTED BY RF-SCORE:    0.00 PKD
ROOT
HETATM    1  C   UNL     1     -10.784   6.654  66.869  1.00  0.00    -0.401 C  
HETATM    2  C   UNL     1      -9.996   6.185  68.089  1.00  0.00    -0.158 C  
ENDROOT
BRANCH   2   3
HETATM    3  C   UNL     1     -10.962   5.993  69.245  1.00  0.00    -0.436 C  
BRANCH   3   4
HETATM    4  C   UNL     1     -10.349   5.644  70.605  1.00  0.00    -0.252 C  
BRANCH   4   5
HETATM    5  S   UNL     1     -11.432   6.415  71.826  1.00  0.00    -0.309 S  
HETATM    6  O   UNL     1     -12.532   7.045  71.134  1.00  0.00    -0.368 OA 
HETATM    7  O   UNL     1     -11.644   5.439  72.868  1.00  0.00    -0.312 OA 
BRANCH   5   8
HETATM    8  N   UNL     1     -10.544   7.701  72.500  1.00  0.00    -0.255 N  
HETATM    9  H   UNL     1     -10.864   8.282  73.276  1.00  0.00     0.000 HD 
BRANCH   8  10
HETATM   10  C   UNL     1      -9.188   7.868  71.776  1.00  0.00    -0.150 C  
HETATM   11  C   UNL     1      -8.056   7.486  72.732  1.00  0.00    -0.109 C  
HETATM   12  O   UNL     1      -6.955   7.094  72.378  1.00  0.00    -0.064 OA 
HETATM   13  O   UNL     1      -8.400   7.624  74.038  1.00  0.00    -0.171 OA 
BRANCH  10  14
HETATM   14  C   UNL     1      -8.918   9.267  71.193  1.00  0.00    -0.168 C  
BRANCH  14  15
HETATM   15  C   UNL     1      -9.901   9.697  70.133  1.00  0.00    -0.310 A  
HETATM   16  C   UNL     1      -9.489   9.642  68.797  1.00  0.00    -0.148 A  
HETATM   17  C   UNL     1     -10.253  10.247  67.803  1.00  0.00    -0.225 A  
HETATM   18  C   UNL     1     -11.429  10.927  68.127  1.00  0.00    -0.295 A  
HETATM   19  C   UNL     1     -11.167  10.226  70.426  1.00  0.00    -0.407 A  
HETATM   20  C   UNL     1     -11.917  10.858  69.431  1.00  0.00    -0.393 A  
BRANCH  18  21
HETATM   21  O   UNL     1     -12.148  11.704  67.252  1.00  0.00    -0.595 OA 
BRANCH  21  22
HETATM   22  C   UNL     1     -11.403  12.795  66.708  1.00  0.00    -0.313 C  
BRANCH  22  23
HETATM   23  C   UNL     1     -11.901  14.126  67.245  1.00  0.00    -0.452 C  
BRANCH  23  24
HETATM   24  C   UNL     1     -11.303  14.510  68.605  1.00  0.00    -0.300 C  
BRANCH  24  25
HETATM   25  C   UNL     1     -12.448  14.783  69.584  1.00  0.00    -0.179 C  
BRANCH  25  26
HETATM   26  C   UNL     1     -12.266  14.247  71.017  1.00  0.00    -0.428 C  
HETATM   27  C   UNL     1     -11.320  15.185  71.792  1.00  0.00    -0.391 C  
HETATM   28  C   UNL     1     -12.026  16.456  72.264  1.00  0.00    -0.439 C  
HETATM   29  N   UNL     1     -13.147  16.115  73.133  1.00  0.00    -0.492 NA 
HETATM   30  H   UNL     1     -13.560  16.946  73.557  1.00  0.00     0.000 HD 
HETATM   31  C   UNL     1     -14.146  15.323  72.415  1.00  0.00    -0.525 C  
HETATM   32  C   UNL     1     -13.561  14.041  71.819  1.00  0.00    -0.476 C  
ENDBRANCH  25  26
ENDBRANCH  24  25
ENDBRANCH  23  24
ENDBRANCH  22  23
ENDBRANCH  21  22
ENDBRANCH  18  21
ENDBRANCH  14  15
ENDBRANCH  10  14
ENDBRANCH   8  10
ENDBRANCH   5   8
ENDBRANCH   4   5
ENDBRANCH   3   4
ENDBRANCH   2   3
TORSDOF 13
ENDMDL
MODEL       27
REMARK 921   NORMALIZED FREE ENERGY PREDICTED BY IDOCK:   -5.23 KCAL/MOL
REMARK 922        TOTAL FREE ENERGY PREDICTED BY IDOCK:  -11.74 KCAL/MOL
REMARK 923 INTER-LIGAND FREE ENERGY PREDICTED BY IDOCK:   -9.48 KCAL/MOL
REMARK 924 INTRA-LIGAND FREE ENERGY PREDICTED BY IDOCK:   -2.27 KCAL/MOL
REMARK 927      BINDING AFFINITY PREDICTED BY RF-SCORE:    0.00 PKD
ROOT
HETATM    1  C   UNL     1     -10.575  16.247  67.223  1.00  0.00    -0.298 C  
HETATM    2  C   UNL     1      -9.886  15.785  65.941  1.00  0.00    -0.381 C  
ENDROOT
BRANCH   2   3
HETATM    3  C   UNL     1     -10.952  15.364  64.944  1.00  0.00    -0.453 C  
BRANCH   3   4
HETATM    4  C   UNL     1     -10.831  13.952  64.362  1.00  0.00    -0.290 C  
BRANCH   4   5
HETATM    5  S   UNL     1     -12.192  13.019  65.095  1.00  0.00    -0.482 S  
HETATM    6  O   UNL     1     -12.870  13.865  66.049  1.00  0.00    -0.430 OA 
HETATM    7  O   UNL     1     -12.892  12.382  64.006  1.00  0.00    -0.717 OA 
BRANCH   5   8
HETATM    8  N   UNL     1     -11.474  11.791  66.029  1.00  0.00    -0.285 N  
HETATM    9  H   UNL     1     -11.989  11.061  66.521  1.00  0.00     0.000 HD 
BRANCH   8  10
HETATM   10  C   UNL     1      -9.933  11.935  66.031  1.00  0.00    -0.232 C  
HETATM   11  C   UNL     1      -9.303  10.605  65.618  1.00  0.00    -0.201 C  
HETATM   12  O   UNL     1      -8.197  10.492  65.111  1.00  0.00    -0.161 OA 
HETATM   13  O   UNL     1     -10.104   9.540  65.871  1.00  0.00    -0.294 OA 
BRANCH  10  14
HETATM   14  C   UNL     1      -9.316  12.407  67.361  1.00  0.00    -0.181 C  
BRANCH  14  15
HETATM   15  C   UNL     1     -10.185  12.163  68.569  1.00  0.00    -0.214 A  
HETATM   16  C   UNL     1     -10.155  10.891  69.151  1.00  0.00    -0.198 A  
HETATM   17  C   UNL     1     -11.103  10.535  70.106  1.00  0.00    -0.369 A  
HETATM   18  C   UNL     1     -12.104  11.433  70.483  1.00  0.00    -0.394 A  
HETATM   19  C   UNL     1     -11.080  13.115  69.079  1.00  0.00    -0.282 A  
HETATM   20  C   UNL     1     -12.049  12.746  70.016  1.00  0.00    -0.355 A  
BRANCH  18  21
HETATM   21  O   UNL     1     -13.181  11.116  71.272  1.00  0.00    -0.305 OA 
BRANCH  21  22
HETATM   22  C   UNL     1     -12.995   9.931  72.049  1.00  0.00    -0.423 C  
BRANCH  22  23
HETATM   23  C   UNL     1     -14.126   8.942  71.828  1.00  0.00    -0.426 C  
BRANCH  23  24
HETATM   24  C   UNL     1     -13.654   7.530  71.457  1.00  0.00    -0.439 C  
BRANCH  24  25
HETATM   25  C   UNL     1     -12.129   7.474  71.584  1.00  0.00    -0.341 C  
BRANCH  25  26
HETATM   26  C   UNL     1     -11.442   6.208  71.040  1.00  0.00    -0.316 C  
HETATM   27  C   UNL     1     -11.528   6.206  69.501  1.00  0.00    -0.299 C  
HETATM   28  C   UNL     1     -10.501   7.142  68.864  1.00  0.00    -0.207 C  
HETATM   29  N   UNL     1      -9.151   6.742  69.249  1.00  0.00    -0.139 NA 
HETATM   30  H   UNL     1      -8.443   7.274  68.742  1.00  0.00     0.000 HD 
HETATM   31  C   UNL     1      -8.966   6.841  70.696  1.00  0.00    -0.151 C  
HETATM   32  C   UNL     1      -9.982   6.003  71.476  1.00  0.00    -0.212 C  
ENDBRANCH  25  26
ENDBRANCH  24  25
ENDBRANCH  23  24
ENDBRANCH  22  23
ENDBRANCH  21  22
ENDBRANCH  18  21
ENDBRANCH  14  15
ENDBRANCH  10  14
ENDBRANCH   8  10
ENDBRANCH   5   8
ENDBRANCH   4   5
ENDBRANCH   3   4
ENDBRANCH   2   3
TORSDOF 13
ENDMDL
MODEL       28
REMARK 921   NORMALIZED FREE ENERGY PREDICTED BY IDOCK:   -5.22 KCAL/MOL
REMARK 922        TOTAL FREE ENERGY PREDICTED BY IDOCK:  -11.73 KCAL/MOL
REMARK 923 INTER-LIGAND FREE ENERGY PREDICTED BY IDOCK:   -9.95 KCAL/MOL
REMARK 924 INTRA-LIGAND FREE ENERGY PREDICTED BY IDOCK:   -1.79 KCAL/MOL
REMARK 927      BINDING AFFINITY PREDICTED BY RF-SCORE:    0.00 PKD
ROOT
HETATM    1  C   UNL     1     -11.711  11.800  63.625  1.00  0.00    -0.517 C  
HETATM    2  C   UNL     1     -12.382  13.073  64.136  1.00  0.00    -0.429 C  
ENDROOT
BRANCH   2   3
HETATM    3  C   UNL     1     -12.200  13.144  65.642  1.00  0.00    -0.521 C  
BRANCH   3   4
HETATM    4  C   UNL     1     -12.000  14.538  66.246  1.00  0.00    -0.322 C  
BRANCH   4   5
HETATM    5  S   UNL     1     -10.225  14.854  66.132  1.00  0.00    -0.319 S  
HETATM    6  O   UNL     1      -9.542  13.592  65.967  1.00  0.00    -0.250 OA 
HETATM    7  O   UNL     1     -10.056  15.941  65.199  1.00  0.00    -0.451 OA 
BRANCH   5   8
HETATM    8  N   UNL     1      -9.746  15.414  67.666  1.00  0.00    -0.211 N  
HETATM    9  H   UNL     1      -8.913  15.101  68.164  1.00  0.00     0.000 HD 
BRANCH   8  10
HETATM   10  C   UNL     1     -10.747  16.465  68.202  1.00  0.00    -0.336 C  
HETATM   11  C   UNL     1     -10.260  17.864  67.823  1.00  0.00    -0.368 C  
HETATM   12  O   UNL     1     -10.986  18.840  67.702  1.00  0.00    -0.384 OA 
HETATM   13  O   UNL     1      -8.919  17.921  67.629  1.00  0.00    -0.246 OA 
BRANCH  10  14
HETATM   14  C   UNL     1     -11.018  16.406  69.717  1.00  0.00    -0.341 C  
BRANCH  14  15
HETATM   15  C   UNL     1     -11.812  15.202  70.158  1.00  0.00    -0.351 A  
HETATM   16  C   UNL     1     -12.658  15.345  71.263  1.00  0.00    -0.477 A  
HETATM   17  C   UNL     1     -13.225  14.223  71.861  1.00  0.00    -0.456 A  
HETATM   18  C   UNL     1     -12.944  12.943  71.379  1.00  0.00    -0.270 A  
HETATM   19  C   UNL     1     -11.677  13.934  69.573  1.00  0.00    -0.369 A  
HETATM   20  C   UNL     1     -12.223  12.807  70.193  1.00  0.00    -0.320 A  
BRANCH  18  21
HETATM   21  O   UNL     1     -13.303  11.776  72.005  1.00  0.00    -0.487 OA 
BRANCH  21  22
HETATM   22  C   UNL     1     -13.043  10.604  71.230  1.00  0.00    -0.359 C  
BRANCH  22  23
HETATM   23  C   UNL     1     -12.275   9.569  72.033  1.00  0.00    -0.370 C  
BRANCH  23  24
HETATM   24  C   UNL     1     -10.855   9.305  71.512  1.00  0.00    -0.442 C  
BRANCH  24  25
HETATM   25  C   UNL     1     -10.878   9.356  69.982  1.00  0.00    -0.271 C  
BRANCH  25  26
HETATM   26  C   UNL     1      -9.660  10.008  69.301  1.00  0.00    -0.227 C  
HETATM   27  C   UNL     1      -8.652   8.910  68.908  1.00  0.00    -0.135 C  
HETATM   28  C   UNL     1      -9.072   8.165  67.642  1.00  0.00    -0.134 C  
HETATM   29  N   UNL     1      -9.191   9.099  66.526  1.00  0.00    -0.163 NA 
HETATM   30  H   UNL     1      -9.352   8.612  65.644  1.00  0.00     0.000 HD 
HETATM   31  C   UNL     1     -10.225  10.100  66.786  1.00  0.00    -0.228 C  
HETATM   32  C   UNL     1      -9.973  10.884  68.076  1.00  0.00    -0.188 C  
ENDBRANCH  25  26
ENDBRANCH  24  25
ENDBRANCH  23  24
ENDBRANCH  22  23
ENDBRANCH  21  22
ENDBRANCH  18  21
ENDBRANCH  14  15
ENDBRANCH  10  14
ENDBRANCH   8  10
ENDBRANCH   5   8
ENDBRANCH   4   5
ENDBRANCH   3   4
ENDBRANCH   2   3
TORSDOF 13
ENDMDL
MODEL       29
REMARK 921   NORMALIZED FREE ENERGY PREDICTED BY IDOCK:   -5.16 KCAL/MOL
REMARK 922        TOTAL FREE ENERGY PREDICTED BY IDOCK:  -11.63 KCAL/MOL
REMARK 923 INTER-LIGAND FREE ENERGY PREDICTED BY IDOCK:   -9.41 KCAL/MOL
REMARK 924 INTRA-LIGAND FREE ENERGY PREDICTED BY IDOCK:   -2.21 KCAL/MOL
REMARK 927      BINDING AFFINITY PREDICTED BY RF-SCORE:    0.00 PKD
ROOT
HETATM    1  C   UNL     1     -10.777  19.523  66.841  1.00  0.00    -0.576 C  
HETATM    2  C   UNL     1     -10.034  19.835  68.138  1.00  0.00    -0.557 C  
ENDROOT
BRANCH   2   3
HETATM    3  C   UNL     1      -8.543  19.856  67.849  1.00  0.00    -0.341 C  
BRANCH   3   4
HETATM    4  C   UNL     1      -8.051  18.961  66.708  1.00  0.00    -0.269 C  
BRANCH   4   5
HETATM    5  S   UNL     1      -6.421  18.383  67.228  1.00  0.00    -0.187 S  
HETATM    6  O   UNL     1      -5.418  19.066  66.444  1.00  0.00    -0.155 OA 
HETATM    7  O   UNL     1      -6.412  18.410  68.670  1.00  0.00    -0.216 OA 
BRANCH   5   8
HETATM    8  N   UNL     1      -6.321  16.755  66.744  1.00  0.00    -0.194 N  
HETATM    9  H   UNL     1      -5.760  16.416  65.962  1.00  0.00     0.000 HD 
BRANCH   8  10
HETATM   10  C   UNL     1      -7.196  15.860  67.653  1.00  0.00    -0.159 C  
HETATM   11  C   UNL     1      -6.355  14.692  68.171  1.00  0.00    -0.140 C  
HETATM   12  O   UNL     1      -6.583  14.080  69.203  1.00  0.00    -0.102 OA 
HETATM   13  O   UNL     1      -5.308  14.396  67.360  1.00  0.00    -0.334 OA 
BRANCH  10  14
HETATM   14  C   UNL     1      -8.483  15.319  67.003  1.00  0.00    -0.258 C  
BRANCH  14  15
HETATM   15  C   UNL     1      -9.735  15.569  67.805  1.00  0.00    -0.211 A  
HETATM   16  C   UNL     1      -9.626  16.345  68.964  1.00  0.00    -0.264 A  
HETATM   17  C   UNL     1     -10.684  16.408  69.867  1.00  0.00    -0.300 A  
HETATM   18  C   UNL     1     -11.858  15.688  69.637  1.00  0.00    -0.362 A  
HETATM   19  C   UNL     1     -10.976  14.993  67.495  1.00  0.00    -0.307 A  
HETATM   20  C   UNL     1     -12.026  15.035  68.417  1.00  0.00    -0.231 A  
BRANCH  18  21
HETATM   21  O   UNL     1     -12.875  15.541  70.547  1.00  0.00    -0.443 OA 
BRANCH  21  22
HETATM   22  C   UNL     1     -12.477  14.886  71.753  1.00  0.00    -0.339 C  
BRANCH  22  23
HETATM   23  C   UNL     1     -13.605  14.044  72.323  1.00  0.00    -0.622 C  
BRANCH  23  24
HETATM   24  C   UNL     1     -13.402  12.532  72.149  1.00  0.00    -0.540 C  
BRANCH  24  25
HETATM   25  C   UNL     1     -12.467  12.298  70.959  1.00  0.00    -0.361 C  
BRANCH  25  26
HETATM   26  C   UNL     1     -12.608  10.947  70.233  1.00  0.00    -0.342 C  
HETATM   27  C   UNL     1     -11.714  10.950  68.978  1.00  0.00    -0.391 C  
HETATM   28  C   UNL     1     -10.243  10.712  69.316  1.00  0.00    -0.213 C  
HETATM   29  N   UNL     1     -10.083   9.428  69.990  1.00  0.00    -0.210 NA 
HETATM   30  H   UNL     1      -9.099   9.191  70.118  1.00  0.00     0.000 HD 
HETATM   31  C   UNL     1     -10.813   9.405  71.257  1.00  0.00    -0.361 C  
HETATM   32  C   UNL     1     -12.304   9.701  71.082  1.00  0.00    -0.427 C  
ENDBRANCH  25  26
ENDBRANCH  24  25
ENDBRANCH  23  24
ENDBRANCH  22  23
ENDBRANCH  21  22
ENDBRANCH  18  21
ENDBRANCH  14  15
ENDBRANCH  10  14
ENDBRANCH   8  10
ENDBRANCH   5   8
ENDBRANCH   4   5
ENDBRANCH   3   4
ENDBRANCH   2   3
TORSDOF 13
ENDMDL
MODEL       30
REMARK 921   NORMALIZED FREE ENERGY PREDICTED BY IDOCK:   -5.16 KCAL/MOL
REMARK 922        TOTAL FREE ENERGY PREDICTED BY IDOCK:  -11.62 KCAL/MOL
REMARK 923 INTER-LIGAND FREE ENERGY PREDICTED BY IDOCK:  -10.40 KCAL/MOL
REMARK 924 INTRA-LIGAND FREE ENERGY PREDICTED BY IDOCK:   -1.22 KCAL/MOL
REMARK 927      BINDING AFFINITY PREDICTED BY RF-SCORE:    0.00 PKD
ROOT
HETATM    1  C   UNL     1     -10.710  19.165  66.534  1.00  0.00    -0.456 C  
HETATM    2  C   UNL     1     -10.192  17.806  66.999  1.00  0.00    -0.346 C  
ENDROOT
BRANCH   2   3
HETATM    3  C   UNL     1     -10.334  16.817  65.856  1.00  0.00    -0.341 C  
BRANCH   3   4
HETATM    4  C   UNL     1     -11.003  15.479  66.183  1.00  0.00    -0.247 C  
BRANCH   4   5
HETATM    5  S   UNL     1     -11.884  15.008  64.678  1.00  0.00    -0.306 S  
HETATM    6  O   UNL     1     -13.143  14.406  65.051  1.00  0.00    -0.615 OA 
HETATM    7  O   UNL     1     -11.814  16.140  63.786  1.00  0.00    -0.885 OA 
BRANCH   5   8
HETATM    8  N   UNL     1     -10.984  13.746  63.978  1.00  0.00    -0.545 N  
HETATM    9  H   UNL     1     -10.758  13.676  62.985  1.00  0.00     0.000 HD 
BRANCH   8  10
HETATM   10  C   UNL     1     -10.555  12.719  65.052  1.00  0.00    -0.308 C  
HETATM   11  C   UNL     1      -9.581  11.716  64.430  1.00  0.00    -0.108 C  
HETATM   12  O   UNL     1      -8.749  11.080  65.058  1.00  0.00    -0.146 OA 
HETATM   13  O   UNL     1      -9.731  11.600  63.086  1.00  0.00    -0.385 OA 
BRANCH  10  14
HETATM   14  C   UNL     1     -11.707  11.961  65.737  1.00  0.00    -0.210 C  
BRANCH  14  15
HETATM   15  C   UNL     1     -11.531  11.778  67.224  1.00  0.00    -0.373 A  
HETATM   16  C   UNL     1     -11.139  10.518  67.687  1.00  0.00    -0.375 A  
HETATM   17  C   UNL     1     -11.195  10.223  69.046  1.00  0.00    -0.260 A  
HETATM   18  C   UNL     1     -11.658  11.172  69.961  1.00  0.00    -0.338 A  
HETATM   19  C   UNL     1     -11.824  12.779  68.162  1.00  0.00    -0.372 A  
HETATM   20  C   UNL     1     -11.907  12.471  69.523  1.00  0.00    -0.375 A  
BRANCH  18  21
HETATM   21  O   UNL     1     -11.920  10.918  71.284  1.00  0.00    -0.279 OA 
BRANCH  21  22
HETATM   22  C   UNL     1     -13.260  10.486  71.531  1.00  0.00    -0.371 C  
BRANCH  22  23
HETATM   23  C   UNL     1     -13.286   9.207  72.349  1.00  0.00    -0.527 C  
BRANCH  23  24
HETATM   24  C   UNL     1     -13.260   7.926  71.503  1.00  0.00    -0.342 C  
BRANCH  24  25
HETATM   25  C   UNL     1     -11.860   7.310  71.591  1.00  0.00    -0.330 C  
BRANCH  25  26
HETATM   26  C   UNL     1     -10.888   7.962  72.591  1.00  0.00    -0.428 C  
HETATM   27  C   UNL     1     -10.524   6.940  73.685  1.00  0.00    -0.400 C  
HETATM   28  C   UNL     1      -9.488   5.924  73.207  1.00  0.00    -0.142 C  
HETATM   29  N   UNL     1      -8.267   6.608  72.795  1.00  0.00    -0.108 NA 
HETATM   30  H   UNL     1      -7.519   5.947  72.585  1.00  0.00     0.000 HD 
HETATM   31  C   UNL     1      -8.522   7.508  71.670  1.00  0.00    -0.111 C  
HETATM   32  C   UNL     1      -9.602   8.547  71.983  1.00  0.00    -0.371 C  
ENDBRANCH  25  26
ENDBRANCH  24  25
ENDBRANCH  23  24
ENDBRANCH  22  23
ENDBRANCH  21  22
ENDBRANCH  18  21
ENDBRANCH  14  15
ENDBRANCH  10  14
ENDBRANCH   8  10
ENDBRANCH   5   8
ENDBRANCH   4   5
ENDBRANCH   3   4
ENDBRANCH   2   3
TORSDOF 13
ENDMDL
MODEL       31
REMARK 921   NORMALIZED FREE ENERGY PREDICTED BY IDOCK:   -5.14 KCAL/MOL
REMARK 922        TOTAL FREE ENERGY PREDICTED BY IDOCK:  -11.60 KCAL/MOL
REMARK 923 INTER-LIGAND FREE ENERGY PREDICTED BY IDOCK:   -9.43 KCAL/MOL
REMARK 924 INTRA-LIGAND FREE ENERGY PREDICTED BY IDOCK:   -2.16 KCAL/MOL
REMARK 927      BINDING AFFINITY PREDICTED BY RF-SCORE:    0.00 PKD
ROOT
HETATM    1  C   UNL     1      -8.591  18.319  68.339  1.00  0.00    -0.315 C  
HETATM    2  C   UNL     1      -8.251  16.923  68.857  1.00  0.00    -0.218 C  
ENDROOT
BRANCH   2   3
HETATM    3  C   UNL     1      -8.647  15.905  67.802  1.00  0.00    -0.164 C  
BRANCH   3   4
HETATM    4  C   UNL     1      -9.546  14.753  68.260  1.00  0.00    -0.215 C  
BRANCH   4   5
HETATM    5  S   UNL     1     -11.230  15.398  68.166  1.00  0.00    -0.333 S  
HETATM    6  O   UNL     1     -11.694  15.671  69.506  1.00  0.00    -0.328 OA 
HETATM    7  O   UNL     1     -11.229  16.410  67.137  1.00  0.00    -0.058 OA 
BRANCH   5   8
HETATM    8  N   UNL     1     -12.199  14.111  67.619  1.00  0.00    -0.574 N  
HETATM    9  H   UNL     1     -13.147  13.920  67.944  1.00  0.00     0.000 HD 
BRANCH   8  10
HETATM   10  C   UNL     1     -11.446  13.271  66.561  1.00  0.00    -0.337 C  
HETATM   11  C   UNL     1     -11.965  13.631  65.168  1.00  0.00    -0.372 C  
HETATM   12  O   UNL     1     -11.325  13.498  64.136  1.00  0.00    -0.382 OA 
HETATM   13  O   UNL     1     -13.229  14.126  65.188  1.00  0.00    -0.743 OA 
BRANCH  10  14
HETATM   14  C   UNL     1     -11.517  11.745  66.758  1.00  0.00    -0.352 C  
BRANCH  14  15
HETATM   15  C   UNL     1     -11.120  11.278  68.135  1.00  0.00    -0.319 A  
HETATM   16  C   UNL     1      -9.786  10.912  68.343  1.00  0.00    -0.179 A  
HETATM   17  C   UNL     1      -9.415  10.251  69.510  1.00  0.00    -0.207 A  
HETATM   18  C   UNL     1     -10.368   9.931  70.479  1.00  0.00    -0.232 A  
HETATM   19  C   UNL     1     -12.035  11.113  69.186  1.00  0.00    -0.413 A  
HETATM   20  C   UNL     1     -11.665  10.423  70.344  1.00  0.00    -0.419 A  
BRANCH  18  21
HETATM   21  O   UNL     1     -10.136   9.128  71.568  1.00  0.00    -0.319 OA 
BRANCH  21  22
HETATM   22  C   UNL     1     -11.198   8.211  71.841  1.00  0.00    -0.290 C  
BRANCH  22  23
HETATM   23  C   UNL     1     -10.805   6.789  71.480  1.00  0.00    -0.265 C  
BRANCH  23  24
HETATM   24  C   UNL     1     -11.432   6.283  70.174  1.00  0.00    -0.452 C  
BRANCH  24  25
HETATM   25  C   UNL     1     -10.452   6.545  69.027  1.00  0.00    -0.252 C  
BRANCH  25  26
HETATM   26  C   UNL     1     -11.053   6.588  67.610  1.00  0.00    -0.380 C  
HETATM   27  C   UNL     1     -10.560   7.859  66.890  1.00  0.00    -0.333 C  
HETATM   28  C   UNL     1      -9.130   7.713  66.373  1.00  0.00    -0.174 C  
HETATM   29  N   UNL     1      -9.045   6.595  65.439  1.00  0.00    -0.364 NA 
HETATM   30  H   UNL     1      -8.131   6.551  64.988  1.00  0.00     0.000 HD 
HETATM   31  C   UNL     1      -9.383   5.333  66.098  1.00  0.00    -0.156 C  
HETATM   32  C   UNL     1     -10.775   5.357  66.732  1.00  0.00    -0.289 C  
ENDBRANCH  25  26
ENDBRANCH  24  25
ENDBRANCH  23  24
ENDBRANCH  22  23
ENDBRANCH  21  22
ENDBRANCH  18  21
ENDBRANCH  14  15
ENDBRANCH  10  14
ENDBRANCH   8  10
ENDBRANCH   5   8
ENDBRANCH   4   5
ENDBRANCH   3   4
ENDBRANCH   2   3
TORSDOF 13
ENDMDL
MODEL       32
REMARK 921   NORMALIZED FREE ENERGY PREDICTED BY IDOCK:   -5.14 KCAL/MOL
REMARK 922        TOTAL FREE ENERGY PREDICTED BY IDOCK:  -11.60 KCAL/MOL
REMARK 923 INTER-LIGAND FREE ENERGY PREDICTED BY IDOCK:   -8.70 KCAL/MOL
REMARK 924 INTRA-LIGAND FREE ENERGY PREDICTED BY IDOCK:   -2.90 KCAL/MOL
REMARK 927      BINDING AFFINITY PREDICTED BY RF-SCORE:    0.00 PKD
ROOT
HETATM    1  C   UNL     1     -11.844  12.259  63.620  1.00  0.00    -0.610 C  
HETATM    2  C   UNL     1     -12.611  12.609  64.894  1.00  0.00    -0.525 C  
ENDROOT
BRANCH   2   3
HETATM    3  C   UNL     1     -12.091  13.934  65.423  1.00  0.00    -0.423 C  
BRANCH   3   4
HETATM    4  C   UNL     1     -12.264  14.191  66.923  1.00  0.00    -0.365 C  
BRANCH   4   5
HETATM    5  S   UNL     1     -10.636  14.712  67.506  1.00  0.00    -0.260 S  
HETATM    6  O   UNL     1      -9.631  13.924  66.831  1.00  0.00    -0.250 OA 
HETATM    7  O   UNL     1     -10.625  16.155  67.471  1.00  0.00    -0.304 OA 
BRANCH   5   8
HETATM    8  N   UNL     1     -10.544  14.237  69.137  1.00  0.00    -0.340 N  
HETATM    9  H   UNL     1      -9.769  14.458  69.762  1.00  0.00     0.000 HD 
BRANCH   8  10
HETATM   10  C   UNL     1     -11.796  13.424  69.542  1.00  0.00    -0.332 C  
HETATM   11  C   UNL     1     -12.449  14.078  70.760  1.00  0.00    -0.372 C  
HETATM   12  O   UNL     1     -13.631  13.969  71.053  1.00  0.00    -0.218 OA 
HETATM   13  O   UNL     1     -11.576  14.807  71.499  1.00  0.00    -0.332 OA 
BRANCH  10  14
HETATM   14  C   UNL     1     -11.549  11.931  69.828  1.00  0.00    -0.359 C  
BRANCH  14  15
HETATM   15  C   UNL     1     -10.640  11.251  68.836  1.00  0.00    -0.239 A  
HETATM   16  C   UNL     1     -11.217  10.715  67.680  1.00  0.00    -0.361 A  
HETATM   17  C   UNL     1     -10.478   9.873  66.854  1.00  0.00    -0.284 A  
HETATM   18  C   UNL     1      -9.161   9.540  67.175  1.00  0.00    -0.134 A  
HETATM   19  C   UNL     1      -9.269  11.056  69.057  1.00  0.00    -0.077 A  
HETATM   20  C   UNL     1      -8.538  10.187  68.242  1.00  0.00    -0.116 A  
BRANCH  18  21
HETATM   21  O   UNL     1      -8.417   8.584  66.530  1.00  0.00    -0.109 OA 
BRANCH  21  22
HETATM   22  C   UNL     1      -9.144   7.387  66.244  1.00  0.00    -0.156 C  
BRANCH  22  23
HETATM   23  C   UNL     1      -9.251   6.499  67.472  1.00  0.00    -0.113 C  
BRANCH  23  24
HETATM   24  C   UNL     1     -10.651   6.475  68.101  1.00  0.00    -0.307 C  
BRANCH  24  25
HETATM   25  C   UNL     1     -10.508   6.612  69.620  1.00  0.00    -0.249 C  
BRANCH  25  26
HETATM   26  C   UNL     1     -11.281   7.769  70.278  1.00  0.00    -0.215 C  
HETATM   27  C   UNL     1     -12.556   7.214  70.943  1.00  0.00    -0.268 C  
HETATM   28  C   UNL     1     -12.262   6.534  72.279  1.00  0.00    -0.158 C  
HETATM   29  N   UNL     1     -11.641   7.482  73.199  1.00  0.00    -0.602 NA 
HETATM   30  H   UNL     1     -11.546   7.089  74.136  1.00  0.00     0.000 HD 
HETATM   31  C   UNL     1     -10.359   7.956  72.679  1.00  0.00    -0.308 C  
HETATM   32  C   UNL     1     -10.488   8.603  71.299  1.00  0.00    -0.311 C  
ENDBRANCH  25  26
ENDBRANCH  24  25
ENDBRANCH  23  24
ENDBRANCH  22  23
ENDBRANCH  21  22
ENDBRANCH  18  21
ENDBRANCH  14  15
ENDBRANCH  10  14
ENDBRANCH   8  10
ENDBRANCH   5   8
ENDBRANCH   4   5
ENDBRANCH   3   4
ENDBRANCH   2   3
TORSDOF 13
ENDMDL
MODEL       33
REMARK 921   NORMALIZED FREE ENERGY PREDICTED BY IDOCK:   -5.14 KCAL/MOL
REMARK 922        TOTAL FREE ENERGY PREDICTED BY IDOCK:  -11.58 KCAL/MOL
REMARK 923 INTER-LIGAND FREE ENERGY PREDICTED BY IDOCK:   -9.57 KCAL/MOL
REMARK 924 INTRA-LIGAND FREE ENERGY PREDICTED BY IDOCK:   -2.02 KCAL/MOL
REMARK 927      BINDING AFFINITY PREDICTED BY RF-SCORE:    0.00 PKD
ROOT
HETATM    1  C   UNL     1     -11.459  12.621  63.804  1.00  0.00    -0.539 C  
HETATM    2  C   UNL     1     -10.514  11.430  63.951  1.00  0.00    -0.444 C  
ENDROOT
BRANCH   2   3
HETATM    3  C   UNL     1     -10.523  10.981  65.401  1.00  0.00    -0.306 C  
BRANCH   3   4
HETATM    4  C   UNL     1     -10.051  12.002  66.441  1.00  0.00    -0.218 C  
BRANCH   4   5
HETATM    5  S   UNL     1      -8.570  11.277  67.178  1.00  0.00    -0.152 S  
HETATM    6  O   UNL     1      -7.620  11.001  66.126  1.00  0.00    -0.145 OA 
HETATM    7  O   UNL     1      -8.231  12.095  68.318  1.00  0.00    -0.157 OA 
BRANCH   5   8
HETATM    8  N   UNL     1      -9.033   9.748  67.764  1.00  0.00    -0.128 N  
HETATM    9  H   UNL     1      -9.109   8.907  67.192  1.00  0.00     0.000 HD 
BRANCH   8  10
HETATM   10  C   UNL     1      -9.322   9.808  69.282  1.00  0.00    -0.191 C  
HETATM   11  C   UNL     1      -8.156   9.175  70.043  1.00  0.00    -0.128 C  
HETATM   12  O   UNL     1      -7.861   9.437  71.199  1.00  0.00    -0.325 OA 
HETATM   13  O   UNL     1      -7.466   8.277  69.296  1.00  0.00    -0.081 OA 
BRANCH  10  14
HETATM   14  C   UNL     1     -10.644   9.156  69.729  1.00  0.00    -0.240 C  
BRANCH  14  15
HETATM   15  C   UNL     1     -11.653  10.123  70.293  1.00  0.00    -0.379 A  
HETATM   16  C   UNL     1     -11.639  11.438  69.815  1.00  0.00    -0.407 A  
HETATM   17  C   UNL     1     -12.374  12.427  70.463  1.00  0.00    -0.346 A  
HETATM   18  C   UNL     1     -13.119  12.125  71.604  1.00  0.00    -0.310 A  
HETATM   19  C   UNL     1     -12.540   9.794  71.329  1.00  0.00    -0.460 A  
HETATM   20  C   UNL     1     -13.253  10.794  71.995  1.00  0.00    -0.466 A  
BRANCH  18  21
HETATM   21  O   UNL     1     -13.724  13.056  72.411  1.00  0.00    -0.578 OA 
BRANCH  21  22
HETATM   22  C   UNL     1     -13.851  14.345  71.806  1.00  0.00    -0.443 C  
BRANCH  22  23
HETATM   23  C   UNL     1     -13.078  15.398  72.582  1.00  0.00    -0.541 C  
BRANCH  23  24
HETATM   24  C   UNL     1     -11.603  15.514  72.174  1.00  0.00    -0.552 C  
BRANCH  24  25
HETATM   25  C   UNL     1     -11.528  16.160  70.787  1.00  0.00    -0.408 C  
BRANCH  25  26
HETATM   26  C   UNL     1     -10.859  15.326  69.679  1.00  0.00    -0.294 C  
HETATM   27  C   UNL     1     -11.519  15.658  68.327  1.00  0.00    -0.353 C  
HETATM   28  C   UNL     1     -11.021  16.983  67.750  1.00  0.00    -0.199 C  
HETATM   29  N   UNL     1      -9.575  16.934  67.556  1.00  0.00    -0.242 NA 
HETATM   30  H   UNL     1      -9.235  17.759  67.062  1.00  0.00     0.000 HD 
HETATM   31  C   UNL     1      -8.880  16.743  68.829  1.00  0.00    -0.258 C  
HETATM   32  C   UNL     1      -9.334  15.478  69.561  1.00  0.00    -0.276 C  
ENDBRANCH  25  26
ENDBRANCH  24  25
ENDBRANCH  23  24
ENDBRANCH  22  23
ENDBRANCH  21  22
ENDBRANCH  18  21
ENDBRANCH  14  15
ENDBRANCH  10  14
ENDBRANCH   8  10
ENDBRANCH   5   8
ENDBRANCH   4   5
ENDBRANCH   3   4
ENDBRANCH   2   3
TORSDOF 13
ENDMDL
MODEL       34
REMARK 921   NORMALIZED FREE ENERGY PREDICTED BY IDOCK:   -5.12 KCAL/MOL
REMARK 922        TOTAL FREE ENERGY PREDICTED BY IDOCK:  -11.56 KCAL/MOL
REMARK 923 INTER-LIGAND FREE ENERGY PREDICTED BY IDOCK:   -8.61 KCAL/MOL
REMARK 924 INTRA-LIGAND FREE ENERGY PREDICTED BY IDOCK:   -2.95 KCAL/MOL
REMARK 927      BINDING AFFINITY PREDICTED BY RF-SCORE:    0.00 PKD
ROOT
HETATM    1  C   UNL     1     -13.130  11.663  71.758  1.00  0.00    -0.487 C  
HETATM    2  C   UNL     1     -12.250  10.630  71.059  1.00  0.00    -0.498 C  
ENDROOT
BRANCH   2   3
HETATM    3  C   UNL     1     -12.799   9.246  71.355  1.00  0.00    -0.398 C  
BRANCH   3   4
HETATM    4  C   UNL     1     -12.063   8.426  72.419  1.00  0.00    -0.378 C  
BRANCH   4   5
HETATM    5  S   UNL     1     -11.484   6.946  71.562  1.00  0.00    -0.295 S  
HETATM    6  O   UNL     1     -11.669   5.808  72.431  1.00  0.00    -0.301 OA 
HETATM    7  O   UNL     1     -12.043   6.992  70.232  1.00  0.00    -0.221 OA 
BRANCH   5   8
HETATM    8  N   UNL     1      -9.797   7.115  71.414  1.00  0.00    -0.176 N  
HETATM    9  H   UNL     1      -9.122   6.835  72.126  1.00  0.00     0.000 HD 
BRANCH   8  10
HETATM   10  C   UNL     1      -9.428   7.754  70.054  1.00  0.00    -0.161 C  
HETATM   11  C   UNL     1      -8.217   7.026  69.468  1.00  0.00    -0.132 C  
HETATM   12  O   UNL     1      -7.950   6.975  68.277  1.00  0.00    -0.119 OA 
HETATM   13  O   UNL     1      -7.451   6.428  70.416  1.00  0.00    -0.089 OA 
BRANCH  10  14
HETATM   14  C   UNL     1      -9.151   9.268  70.089  1.00  0.00    -0.248 C  
BRANCH  14  15
HETATM   15  C   UNL     1      -9.339   9.964  68.765  1.00  0.00    -0.157 A  
HETATM   16  C   UNL     1     -10.435   9.590  67.979  1.00  0.00    -0.279 A  
HETATM   17  C   UNL     1     -10.525  10.015  66.657  1.00  0.00    -0.244 A  
HETATM   18  C   UNL     1      -9.520  10.804  66.093  1.00  0.00    -0.187 A  
HETATM   19  C   UNL     1      -8.428  10.897  68.249  1.00  0.00    -0.134 A  
HETATM   20  C   UNL     1      -8.506  11.299  66.913  1.00  0.00    -0.152 A  
BRANCH  18  21
HETATM   21  O   UNL     1      -9.428  11.118  64.761  1.00  0.00    -0.220 OA 
BRANCH  21  22
HETATM   22  C   UNL     1     -10.694  11.321  64.130  1.00  0.00    -0.369 C  
BRANCH  22  23
HETATM   23  C   UNL     1     -11.204  12.734  64.355  1.00  0.00    -0.390 C  
BRANCH  23  24
HETATM   24  C   UNL     1     -12.503  12.804  65.169  1.00  0.00    -0.565 C  
BRANCH  24  25
HETATM   25  C   UNL     1     -12.380  13.938  66.190  1.00  0.00    -0.504 C  
BRANCH  25  26
HETATM   26  C   UNL     1     -11.207  13.840  67.184  1.00  0.00    -0.327 C  
HETATM   27  C   UNL     1     -10.544  15.224  67.324  1.00  0.00    -0.290 C  
HETATM   28  C   UNL     1     -11.345  16.160  68.228  1.00  0.00    -0.316 C  
HETATM   29  N   UNL     1     -11.480  15.579  69.560  1.00  0.00    -0.307 NA 
HETATM   30  H   UNL     1     -11.905  16.236  70.215  1.00  0.00     0.000 HD 
HETATM   31  C   UNL     1     -12.213  14.315  69.510  1.00  0.00    -0.297 C  
HETATM   32  C   UNL     1     -11.560  13.293  68.577  1.00  0.00    -0.368 C  
ENDBRANCH  25  26
ENDBRANCH  24  25
ENDBRANCH  23  24
ENDBRANCH  22  23
ENDBRANCH  21  22
ENDBRANCH  18  21
ENDBRANCH  14  15
ENDBRANCH  10  14
ENDBRANCH   8  10
ENDBRANCH   5   8
ENDBRANCH   4   5
ENDBRANCH   3   4
ENDBRANCH   2   3
TORSDOF 13
ENDMDL
MODEL       35
REMARK 921   NORMALIZED FREE ENERGY PREDICTED BY IDOCK:   -5.12 KCAL/MOL
REMARK 922        TOTAL FREE ENERGY PREDICTED BY IDOCK:  -11.56 KCAL/MOL
REMARK 923 INTER-LIGAND FREE ENERGY PREDICTED BY IDOCK:   -8.76 KCAL/MOL
REMARK 924 INTRA-LIGAND FREE ENERGY PREDICTED BY IDOCK:   -2.79 KCAL/MOL
REMARK 927      BINDING AFFINITY PREDICTED BY RF-SCORE:    0.00 PKD
ROOT
HETATM    1  C   UNL     1     -13.156  10.821  71.722  1.00  0.00    -0.573 C  
HETATM    2  C   UNL     1     -12.857  10.993  70.235  1.00  0.00    -0.178 C  
ENDROOT
BRANCH   2   3
HETATM    3  C   UNL     1     -11.783  12.054  70.076  1.00  0.00    -0.346 C  
BRANCH   3   4
HETATM    4  C   UNL     1     -12.219  13.510  70.270  1.00  0.00    -0.347 C  
BRANCH   4   5
HETATM    5  S   UNL     1     -11.513  14.407  68.870  1.00  0.00    -0.309 S  
HETATM    6  O   UNL     1     -11.803  15.813  69.031  1.00  0.00    -0.391 OA 
HETATM    7  O   UNL     1     -10.165  13.920  68.703  1.00  0.00    -0.231 OA 
BRANCH   5   8
HETATM    8  N   UNL     1     -12.405  13.928  67.503  1.00  0.00    -0.474 N  
HETATM    9  H   UNL     1     -13.416  14.028  67.407  1.00  0.00     0.000 HD 
BRANCH   8  10
HETATM   10  C   UNL     1     -11.475  13.318  66.428  1.00  0.00    -0.329 C  
HETATM   11  C   UNL     1     -11.955  13.751  65.042  1.00  0.00    -0.383 C  
HETATM   12  O   UNL     1     -11.241  13.819  64.053  1.00  0.00    -0.281 OA 
HETATM   13  O   UNL     1     -13.276  14.060  65.015  1.00  0.00    -0.720 OA 
BRANCH  10  14
HETATM   14  C   UNL     1     -11.335  11.785  66.469  1.00  0.00    -0.370 C  
BRANCH  14  15
HETATM   15  C   UNL     1     -10.007  11.270  65.973  1.00  0.00    -0.273 A  
HETATM   16  C   UNL     1     -10.014  10.351  64.918  1.00  0.00    -0.409 A  
HETATM   17  C   UNL     1      -8.852   9.663  64.582  1.00  0.00    -0.253 A  
HETATM   18  C   UNL     1      -7.672   9.868  65.300  1.00  0.00    -0.129 A  
HETATM   19  C   UNL     1      -8.782  11.599  66.572  1.00  0.00    -0.182 A  
HETATM   20  C   UNL     1      -7.624  10.886  66.251  1.00  0.00    -0.136 A  
BRANCH  18  21
HETATM   21  O   UNL     1      -6.534   9.112  65.165  1.00  0.00    -0.067 OA 
BRANCH  21  22
HETATM   22  C   UNL     1      -6.444   8.037  66.101  1.00  0.00    -0.046 C  
BRANCH  22  23
HETATM   23  C   UNL     1      -7.196   6.812  65.609  1.00  0.00    -0.073 C  
BRANCH  23  24
HETATM   24  C   UNL     1      -8.078   6.152  66.678  1.00  0.00    -0.109 C  
BRANCH  24  25
HETATM   25  C   UNL     1      -8.553   7.231  67.655  1.00  0.00    -0.126 C  
BRANCH  25  26
HETATM   26  C   UNL     1     -10.024   7.667  67.532  1.00  0.00    -0.233 C  
HETATM   27  C   UNL     1     -10.932   6.427  67.653  1.00  0.00    -0.441 C  
HETATM   28  C   UNL     1     -11.098   5.970  69.101  1.00  0.00    -0.335 C  
HETATM   29  N   UNL     1     -11.678   7.043  69.902  1.00  0.00    -0.587 NA 
HETATM   30  H   UNL     1     -11.910   6.726  70.844  1.00  0.00     0.000 HD 
HETATM   31  C   UNL     1     -10.801   8.213  69.930  1.00  0.00    -0.215 C  
HETATM   32  C   UNL     1     -10.485   8.743  68.529  1.00  0.00    -0.212 C  
ENDBRANCH  25  26
ENDBRANCH  24  25
ENDBRANCH  23  24
ENDBRANCH  22  23
ENDBRANCH  21  22
ENDBRANCH  18  21
ENDBRANCH  14  15
ENDBRANCH  10  14
ENDBRANCH   8  10
ENDBRANCH   5   8
ENDBRANCH   4   5
ENDBRANCH   3   4
ENDBRANCH   2   3
TORSDOF 13
ENDMDL
MODEL       36
REMARK 921   NORMALIZED FREE ENERGY PREDICTED BY IDOCK:   -5.11 KCAL/MOL
REMARK 922        TOTAL FREE ENERGY PREDICTED BY IDOCK:  -11.54 KCAL/MOL
REMARK 923 INTER-LIGAND FREE ENERGY PREDICTED BY IDOCK:  -10.14 KCAL/MOL
REMARK 924 INTRA-LIGAND FREE ENERGY PREDICTED BY IDOCK:   -1.40 KCAL/MOL
REMARK 927      BINDING AFFINITY PREDICTED BY RF-SCORE:    0.00 PKD
ROOT
HETATM    1  C   UNL     1      -6.558  14.155  68.355  1.00  0.00    -0.106 C  
HETATM    2  C   UNL     1      -6.537  15.608  67.884  1.00  0.00    -0.171 C  
ENDROOT
BRANCH   2   3
HETATM    3  C   UNL     1      -7.966  16.055  67.630  1.00  0.00    -0.160 C  
BRANCH   3   4
HETATM    4  C   UNL     1      -8.372  16.264  66.168  1.00  0.00    -0.225 C  
BRANCH   4   5
HETATM    5  S   UNL     1     -10.163  16.494  66.202  1.00  0.00    -0.352 S  
HETATM    6  O   UNL     1     -10.516  17.187  67.419  1.00  0.00    -0.335 OA 
HETATM    7  O   UNL     1     -10.542  16.992  64.902  1.00  0.00    -0.673 OA 
BRANCH   5   8
HETATM    8  N   UNL     1     -10.835  14.940  66.372  1.00  0.00    -0.320 N  
HETATM    9  H   UNL     1     -11.338  14.612  67.197  1.00  0.00     0.000 HD 
BRANCH   8  10
HETATM   10  C   UNL     1     -10.579  14.091  65.104  1.00  0.00    -0.386 C  
HETATM   11  C   UNL     1     -11.914  13.795  64.418  1.00  0.00    -0.445 C  
HETATM   12  O   UNL     1     -12.039  13.548  63.228  1.00  0.00    -0.499 OA 
HETATM   13  O   UNL     1     -12.967  13.836  65.273  1.00  0.00    -0.731 OA 
BRANCH  10  14
HETATM   14  C   UNL     1      -9.815  12.774  65.334  1.00  0.00    -0.143 C  
BRANCH  14  15
HETATM   15  C   UNL     1     -10.182  12.060  66.611  1.00  0.00    -0.229 A  
HETATM   16  C   UNL     1      -9.164  11.815  67.539  1.00  0.00    -0.175 A  
HETATM   17  C   UNL     1      -9.387  10.957  68.612  1.00  0.00    -0.188 A  
HETATM   18  C   UNL     1     -10.619  10.318  68.767  1.00  0.00    -0.209 A  
HETATM   19  C   UNL     1     -11.465  11.557  66.871  1.00  0.00    -0.261 A  
HETATM   20  C   UNL     1     -11.677  10.673  67.932  1.00  0.00     0.054 A  
BRANCH  18  21
HETATM   21  O   UNL     1     -10.875   9.324  69.679  1.00  0.00    -0.232 OA 
BRANCH  21  22
HETATM   22  C   UNL     1     -11.369   9.806  70.930  1.00  0.00    -0.365 C  
BRANCH  22  23
HETATM   23  C   UNL     1     -12.659  10.588  70.751  1.00  0.00    -0.474 C  
BRANCH  23  24
HETATM   24  C   UNL     1     -12.789  11.796  71.688  1.00  0.00    -0.433 C  
BRANCH  24  25
HETATM   25  C   UNL     1     -12.305  13.046  70.947  1.00  0.00    -0.376 C  
BRANCH  25  26
HETATM   26  C   UNL     1     -13.189  14.300  71.071  1.00  0.00    -0.367 C  
HETATM   27  C   UNL     1     -13.438  14.599  72.562  1.00  0.00    -0.565 C  
HETATM   28  C   UNL     1     -12.238  15.273  73.225  1.00  0.00    -0.463 C  
HETATM   29  N   UNL     1     -11.932  16.530  72.550  1.00  0.00    -0.563 NA 
HETATM   30  H   UNL     1     -11.213  17.058  73.046  1.00  0.00     0.000 HD 
HETATM   31  C   UNL     1     -11.565  16.301  71.153  1.00  0.00    -0.328 C  
HETATM   32  C   UNL     1     -12.654  15.562  70.373  1.00  0.00    -0.421 C  
ENDBRANCH  25  26
ENDBRANCH  24  25
ENDBRANCH  23  24
ENDBRANCH  22  23
ENDBRANCH  21  22
ENDBRANCH  18  21
ENDBRANCH  14  15
ENDBRANCH  10  14
ENDBRANCH   8  10
ENDBRANCH   5   8
ENDBRANCH   4   5
ENDBRANCH   3   4
ENDBRANCH   2   3
TORSDOF 13
ENDMDL
MODEL       37
REMARK 921   NORMALIZED FREE ENERGY PREDICTED BY IDOCK:   -5.11 KCAL/MOL
REMARK 922        TOTAL FREE ENERGY PREDICTED BY IDOCK:  -11.53 KCAL/MOL
REMARK 923 INTER-LIGAND FREE ENERGY PREDICTED BY IDOCK:   -9.20 KCAL/MOL
REMARK 924 INTRA-LIGAND FREE ENERGY PREDICTED BY IDOCK:   -2.33 KCAL/MOL
REMARK 927      BINDING AFFINITY PREDICTED BY RF-SCORE:    0.00 PKD
ROOT
HETATM    1  C   UNL     1      -9.683  10.971  63.014  1.00  0.00    -0.381 C  
HETATM    2  C   UNL     1      -9.938  10.769  64.506  1.00  0.00    -0.395 C  
ENDROOT
BRANCH   2   3
HETATM    3  C   UNL     1     -11.173  11.561  64.898  1.00  0.00    -0.242 C  
BRANCH   3   4
HETATM    4  C   UNL     1     -11.807  12.431  63.808  1.00  0.00    -0.502 C  
BRANCH   4   5
HETATM    5  S   UNL     1     -12.099  14.033  64.590  1.00  0.00    -0.444 S  
HETATM    6  O   UNL     1     -12.823  14.872  63.665  1.00  0.00    -0.587 OA 
HETATM    7  O   UNL     1     -12.589  13.762  65.920  1.00  0.00    -0.472 OA 
BRANCH   5   8
HETATM    8  N   UNL     1     -10.572  14.768  64.745  1.00  0.00    -0.563 N  
HETATM    9  H   UNL     1      -9.925  14.929  63.973  1.00  0.00     0.000 HD 
BRANCH   8  10
HETATM   10  C   UNL     1     -10.300  15.158  66.217  1.00  0.00    -0.294 C  
HETATM   11  C   UNL     1     -10.477  16.668  66.380  1.00  0.00    -0.266 C  
HETATM   12  O   UNL     1     -10.761  17.222  67.431  1.00  0.00    -0.329 OA 
HETATM   13  O   UNL     1     -10.287  17.349  65.221  1.00  0.00    -0.616 OA 
BRANCH  10  14
HETATM   14  C   UNL     1      -8.923  14.738  66.767  1.00  0.00    -0.292 C  
BRANCH  14  15
HETATM   15  C   UNL     1      -8.909  13.389  67.441  1.00  0.00    -0.214 A  
HETATM   16  C   UNL     1      -7.761  12.602  67.306  1.00  0.00    -0.140 A  
HETATM   17  C   UNL     1      -7.778  11.266  67.694  1.00  0.00    -0.115 A  
HETATM   18  C   UNL     1      -8.943  10.690  68.206  1.00  0.00    -0.143 A  
HETATM   19  C   UNL     1     -10.017  12.855  68.116  1.00  0.00    -0.234 A  
HETATM   20  C   UNL     1     -10.041  11.505  68.478  1.00  0.00    -0.211 A  
BRANCH  18  21
HETATM   21  O   UNL     1      -9.112   9.348  68.443  1.00  0.00    -0.128 OA 
BRANCH  21  22
HETATM   22  C   UNL     1     -10.429   8.876  68.153  1.00  0.00    -0.202 C  
BRANCH  22  23
HETATM   23  C   UNL     1     -10.420   7.887  66.999  1.00  0.00    -0.419 C  
BRANCH  23  24
HETATM   24  C   UNL     1     -10.831   6.463  67.397  1.00  0.00    -0.457 C  
BRANCH  24  25
HETATM   25  C   UNL     1     -11.196   6.456  68.885  1.00  0.00    -0.385 C  
BRANCH  25  26
HETATM   26  C   UNL     1     -10.535   5.364  69.746  1.00  0.00    -0.378 C  
HETATM   27  C   UNL     1      -9.250   4.877  69.048  1.00  0.00    -0.165 C  
HETATM   28  C   UNL     1      -8.087   5.850  69.234  1.00  0.00    -0.106 C  
HETATM   29  N   UNL     1      -7.800   6.024  70.654  1.00  0.00    -0.104 NA 
HETATM   30  H   UNL     1      -6.952   6.573  70.801  1.00  0.00     0.000 HD 
HETATM   31  C   UNL     1      -8.945   6.603  71.355  1.00  0.00    -0.139 C  
HETATM   32  C   UNL     1     -10.215   5.764  71.196  1.00  0.00    -0.275 C  
ENDBRANCH  25  26
ENDBRANCH  24  25
ENDBRANCH  23  24
ENDBRANCH  22  23
ENDBRANCH  21  22
ENDBRANCH  18  21
ENDBRANCH  14  15
ENDBRANCH  10  14
ENDBRANCH   8  10
ENDBRANCH   5   8
ENDBRANCH   4   5
ENDBRANCH   3   4
ENDBRANCH   2   3
TORSDOF 13
ENDMDL
MODEL       38
REMARK 921   NORMALIZED FREE ENERGY PREDICTED BY IDOCK:   -5.10 KCAL/MOL
REMARK 922        TOTAL FREE ENERGY PREDICTED BY IDOCK:  -11.53 KCAL/MOL
REMARK 923 INTER-LIGAND FREE ENERGY PREDICTED BY IDOCK:  -10.27 KCAL/MOL
REMARK 924 INTRA-LIGAND FREE ENERGY PREDICTED BY IDOCK:   -1.26 KCAL/MOL
REMARK 927      BINDING AFFINITY PREDICTED BY RF-SCORE:    0.00 PKD
ROOT
HETATM    1  C   UNL     1      -8.813   5.509  66.074  1.00  0.00    -0.147 C  
HETATM    2  C   UNL     1     -10.204   5.045  66.501  1.00  0.00    -0.307 C  
ENDROOT
BRANCH   2   3
HETATM    3  C   UNL     1     -10.955   6.233  67.077  1.00  0.00    -0.442 C  
BRANCH   3   4
HETATM    4  C   UNL     1     -10.120   7.466  67.436  1.00  0.00    -0.211 C  
BRANCH   4   5
HETATM    5  S   UNL     1      -9.922   7.398  69.230  1.00  0.00    -0.177 S  
HETATM    6  O   UNL     1      -9.423   6.091  69.589  1.00  0.00    -0.142 OA 
HETATM    7  O   UNL     1      -9.241   8.609  69.618  1.00  0.00    -0.153 OA 
BRANCH   5   8
HETATM    8  N   UNL     1     -11.493   7.462  69.882  1.00  0.00    -0.484 N  
HETATM    9  H   UNL     1     -12.318   7.050  69.445  1.00  0.00     0.000 HD 
BRANCH   8  10
HETATM   10  C   UNL     1     -11.497   8.229  71.225  1.00  0.00    -0.274 C  
HETATM   11  C   UNL     1     -11.387   7.228  72.377  1.00  0.00    -0.284 C  
HETATM   12  O   UNL     1     -10.939   7.493  73.482  1.00  0.00    -0.339 OA 
HETATM   13  O   UNL     1     -11.842   5.993  72.047  1.00  0.00    -0.303 OA 
BRANCH  10  14
HETATM   14  C   UNL     1     -12.711   9.148  71.456  1.00  0.00    -0.409 C  
BRANCH  14  15
HETATM   15  C   UNL     1     -12.461  10.599  71.129  1.00  0.00    -0.523 A  
HETATM   16  C   UNL     1     -13.062  11.566  71.941  1.00  0.00    -0.492 A  
HETATM   17  C   UNL     1     -13.068  12.903  71.551  1.00  0.00    -0.390 A  
HETATM   18  C   UNL     1     -12.491  13.292  70.341  1.00  0.00    -0.225 A  
HETATM   19  C   UNL     1     -11.732  11.021  70.006  1.00  0.00    -0.437 A  
HETATM   20  C   UNL     1     -11.765  12.358  69.603  1.00  0.00    -0.377 A  
BRANCH  18  21
HETATM   21  O   UNL     1     -12.606  14.543  69.788  1.00  0.00    -0.266 OA 
BRANCH  21  22
HETATM   22  C   UNL     1     -12.117  15.590  70.629  1.00  0.00    -0.389 C  
BRANCH  22  23
HETATM   23  C   UNL     1     -10.962  16.330  69.975  1.00  0.00    -0.356 C  
BRANCH  23  24
HETATM   24  C   UNL     1     -10.534  15.744  68.623  1.00  0.00    -0.231 C  
BRANCH  24  25
HETATM   25  C   UNL     1     -10.503  16.873  67.588  1.00  0.00    -0.332 C  
BRANCH  25  26
HETATM   26  C   UNL     1     -10.195  18.284  68.125  1.00  0.00    -0.406 C  
HETATM   27  C   UNL     1      -8.671  18.514  68.100  1.00  0.00    -0.330 C  
HETATM   28  C   UNL     1      -8.158  18.840  66.698  1.00  0.00    -0.275 C  
HETATM   29  N   UNL     1      -8.812  20.043  66.192  1.00  0.00    -0.527 NA 
HETATM   30  H   UNL     1      -8.401  20.350  65.310  1.00  0.00     0.000 HD 
HETATM   31  C   UNL     1     -10.257  19.846  66.074  1.00  0.00    -0.487 C  
HETATM   32  C   UNL     1     -10.903  19.440  67.400  1.00  0.00    -0.555 C  
ENDBRANCH  25  26
ENDBRANCH  24  25
ENDBRANCH  23  24
ENDBRANCH  22  23
ENDBRANCH  21  22
ENDBRANCH  18  21
ENDBRANCH  14  15
ENDBRANCH  10  14
ENDBRANCH   8  10
ENDBRANCH   5   8
ENDBRANCH   4   5
ENDBRANCH   3   4
ENDBRANCH   2   3
TORSDOF 13
ENDMDL
MODEL       39
REMARK 921   NORMALIZED FREE ENERGY PREDICTED BY IDOCK:   -5.09 KCAL/MOL
REMARK 922        TOTAL FREE ENERGY PREDICTED BY IDOCK:  -11.50 KCAL/MOL
REMARK 923 INTER-LIGAND FREE ENERGY PREDICTED BY IDOCK:   -9.23 KCAL/MOL
REMARK 924 INTRA-LIGAND FREE ENERGY PREDICTED BY IDOCK:   -2.27 KCAL/MOL
REMARK 927      BINDING AFFINITY PREDICTED BY RF-SCORE:    0.00 PKD
ROOT
HETATM    1  C   UNL     1      -6.562   7.531  66.740  1.00  0.00    -0.057 C  
HETATM    2  C   UNL     1      -6.657   8.967  67.250  1.00  0.00    -0.061 C  
ENDROOT
BRANCH   2   3
HETATM    3  C   UNL     1      -7.902   9.608  66.662  1.00  0.00    -0.105 C  
BRANCH   3   4
HETATM    4  C   UNL     1      -7.708  10.465  65.407  1.00  0.00    -0.136 C  
BRANCH   4   5
HETATM    5  S   UNL     1      -9.337  10.545  64.631  1.00  0.00    -0.273 S  
HETATM    6  O   UNL     1      -9.176  10.384  63.205  1.00  0.00    -0.235 OA 
HETATM    7  O   UNL     1     -10.207   9.692  65.403  1.00  0.00    -0.192 OA 
BRANCH   5   8
HETATM    8  N   UNL     1      -9.878  12.146  64.833  1.00  0.00    -0.416 N  
HETATM    9  H   UNL     1      -9.325  12.976  64.616  1.00  0.00     0.000 HD 
BRANCH   8  10
HETATM   10  C   UNL     1     -11.321  12.170  65.389  1.00  0.00    -0.338 C  
HETATM   11  C   UNL     1     -12.305  12.344  64.231  1.00  0.00    -0.455 C  
HETATM   12  O   UNL     1     -13.470  11.979  64.254  1.00  0.00    -0.654 OA 
HETATM   13  O   UNL     1     -11.748  12.954  63.154  1.00  0.00    -0.472 OA 
BRANCH  10  14
HETATM   14  C   UNL     1     -11.596  13.238  66.464  1.00  0.00    -0.392 C  
BRANCH  14  15
HETATM   15  C   UNL     1     -11.646  12.702  67.872  1.00  0.00    -0.401 A  
HETATM   16  C   UNL     1     -11.614  11.314  68.046  1.00  0.00    -0.343 A  
HETATM   17  C   UNL     1     -11.899  10.757  69.289  1.00  0.00    -0.359 A  
HETATM   18  C   UNL     1     -12.236  11.572  70.372  1.00  0.00    -0.355 A  
HETATM   19  C   UNL     1     -11.811  13.518  69.002  1.00  0.00    -0.385 A  
HETATM   20  C   UNL     1     -12.126  12.955  70.242  1.00  0.00    -0.377 A  
BRANCH  18  21
HETATM   21  O   UNL     1     -12.707  11.114  71.578  1.00  0.00    -0.403 OA 
BRANCH  21  22
HETATM   22  C   UNL     1     -13.455   9.900  71.478  1.00  0.00    -0.312 C  
BRANCH  22  23
HETATM   23  C   UNL     1     -12.925   8.845  72.433  1.00  0.00    -0.467 C  
BRANCH  23  24
HETATM   24  C   UNL     1     -11.457   8.466  72.189  1.00  0.00    -0.442 C  
BRANCH  24  25
HETATM   25  C   UNL     1     -11.415   7.207  71.319  1.00  0.00    -0.314 C  
BRANCH  25  26
HETATM   26  C   UNL     1     -10.947   7.396  69.864  1.00  0.00    -0.239 C  
HETATM   27  C   UNL     1      -9.493   7.907  69.862  1.00  0.00    -0.160 C  
HETATM   28  C   UNL     1      -8.486   6.790  70.132  1.00  0.00    -0.139 C  
HETATM   29  N   UNL     1      -8.607   5.749  69.118  1.00  0.00    -0.110 NA 
HETATM   30  H   UNL     1      -7.867   5.051  69.205  1.00  0.00     0.000 HD 
HETATM   31  C   UNL     1      -9.934   5.134  69.151  1.00  0.00    -0.203 C  
HETATM   32  C   UNL     1     -11.059   6.155  68.963  1.00  0.00    -0.437 C  
ENDBRANCH  25  26
ENDBRANCH  24  25
ENDBRANCH  23  24
ENDBRANCH  22  23
ENDBRANCH  21  22
ENDBRANCH  18  21
ENDBRANCH  14  15
ENDBRANCH  10  14
ENDBRANCH   8  10
ENDBRANCH   5   8
ENDBRANCH   4   5
ENDBRANCH   3   4
ENDBRANCH   2   3
TORSDOF 13
ENDMDL
MODEL       40
REMARK 921   NORMALIZED FREE ENERGY PREDICTED BY IDOCK:   -5.08 KCAL/MOL
REMARK 922        TOTAL FREE ENERGY PREDICTED BY IDOCK:  -11.48 KCAL/MOL
REMARK 923 INTER-LIGAND FREE ENERGY PREDICTED BY IDOCK:   -9.44 KCAL/MOL
REMARK 924 INTRA-LIGAND FREE ENERGY PREDICTED BY IDOCK:   -2.04 KCAL/MOL
REMARK 927      BINDING AFFINITY PREDICTED BY RF-SCORE:    0.00 PKD
ROOT
HETATM    1  C   UNL     1     -10.949  15.744  67.417  1.00  0.00    -0.279 C  
HETATM    2  C   UNL     1     -10.144  15.939  66.134  1.00  0.00    -0.334 C  
ENDROOT
BRANCH   2   3
HETATM    3  C   UNL     1     -10.964  15.423  64.965  1.00  0.00    -0.450 C  
BRANCH   3   4
HETATM    4  C   UNL     1     -10.616  14.025  64.444  1.00  0.00    -0.172 C  
BRANCH   4   5
HETATM    5  S   UNL     1     -12.076  13.017  64.781  1.00  0.00    -0.443 S  
HETATM    6  O   UNL     1     -13.141  13.883  65.229  1.00  0.00    -0.777 OA 
HETATM    7  O   UNL     1     -12.236  12.129  63.655  1.00  0.00    -0.496 OA 
BRANCH   5   8
HETATM    8  N   UNL     1     -11.689  12.063  66.136  1.00  0.00    -0.322 N  
HETATM    9  H   UNL     1     -12.363  11.514  66.670  1.00  0.00     0.000 HD 
BRANCH   8  10
HETATM   10  C   UNL     1     -10.175  12.141  66.446  1.00  0.00    -0.220 C  
HETATM   11  C   UNL     1      -9.491  10.870  65.941  1.00  0.00    -0.207 C  
HETATM   12  O   UNL     1      -8.310  10.796  65.636  1.00  0.00    -0.164 OA 
HETATM   13  O   UNL     1     -10.336   9.812  65.861  1.00  0.00    -0.214 OA 
BRANCH  10  14
HETATM   14  C   UNL     1      -9.816  12.367  67.927  1.00  0.00    -0.202 C  
BRANCH  14  15
HETATM   15  C   UNL     1     -10.410  11.352  68.870  1.00  0.00    -0.203 A  
HETATM   16  C   UNL     1     -11.772  11.458  69.173  1.00  0.00    -0.410 A  
HETATM   17  C   UNL     1     -12.319  10.710  70.212  1.00  0.00    -0.406 A  
HETATM   18  C   UNL     1     -11.515   9.859  70.974  1.00  0.00    -0.388 A  
HETATM   19  C   UNL     1      -9.651  10.368  69.521  1.00  0.00    -0.182 A  
HETATM   20  C   UNL     1     -10.195   9.640  70.582  1.00  0.00    -0.346 A  
BRANCH  18  21
HETATM   21  O   UNL     1     -11.918   9.225  72.123  1.00  0.00    -0.344 OA 
BRANCH  21  22
HETATM   22  C   UNL     1     -11.098   8.111  72.482  1.00  0.00    -0.377 C  
BRANCH  22  23
HETATM   23  C   UNL     1     -11.690   6.805  71.981  1.00  0.00    -0.343 C  
BRANCH  23  24
HETATM   24  C   UNL     1     -10.808   6.074  70.959  1.00  0.00    -0.345 C  
BRANCH  24  25
HETATM   25  C   UNL     1     -11.402   6.281  69.563  1.00  0.00    -0.475 C  
BRANCH  25  26
HETATM   26  C   UNL     1     -10.460   6.876  68.500  1.00  0.00    -0.229 C  
HETATM   27  C   UNL     1      -9.031   6.348  68.736  1.00  0.00    -0.126 C  
HETATM   28  C   UNL     1      -8.851   4.921  68.221  1.00  0.00    -0.103 C  
HETATM   29  N   UNL     1      -9.131   4.863  66.790  1.00  0.00    -0.116 NA 
HETATM   30  H   UNL     1      -8.901   3.949  66.399  1.00  0.00     0.000 HD 
HETATM   31  C   UNL     1     -10.516   5.237  66.510  1.00  0.00    -0.298 C  
HETATM   32  C   UNL     1     -10.867   6.630  67.038  1.00  0.00    -0.467 C  
ENDBRANCH  25  26
ENDBRANCH  24  25
ENDBRANCH  23  24
ENDBRANCH  22  23
ENDBRANCH  21  22
ENDBRANCH  18  21
ENDBRANCH  14  15
ENDBRANCH  10  14
ENDBRANCH   8  10
ENDBRANCH   5   8
ENDBRANCH   4   5
ENDBRANCH   3   4
ENDBRANCH   2   3
TORSDOF 13
ENDMDL
MODEL       41
REMARK 921   NORMALIZED FREE ENERGY PREDICTED BY IDOCK:   -5.07 KCAL/MOL
REMARK 922        TOTAL FREE ENERGY PREDICTED BY IDOCK:  -11.46 KCAL/MOL
REMARK 923 INTER-LIGAND FREE ENERGY PREDICTED BY IDOCK:  -10.05 KCAL/MOL
REMARK 924 INTRA-LIGAND FREE ENERGY PREDICTED BY IDOCK:   -1.41 KCAL/MOL
REMARK 927      BINDING AFFINITY PREDICTED BY RF-SCORE:    0.00 PKD
ROOT
HETATM    1  C   UNL     1      -7.173  17.167  68.960  1.00  0.00    -0.229 C  
HETATM    2  C   UNL     1      -7.805  15.778  68.908  1.00  0.00    -0.190 C  
ENDROOT
BRANCH   2   3
HETATM    3  C   UNL     1      -7.655  15.231  67.500  1.00  0.00    -0.212 C  
BRANCH   3   4
HETATM    4  C   UNL     1      -8.907  14.620  66.862  1.00  0.00    -0.242 C  
BRANCH   4   5
HETATM    5  S   UNL     1      -9.855  16.025  66.240  1.00  0.00    -0.333 S  
HETATM    6  O   UNL     1     -10.735  16.487  67.288  1.00  0.00    -0.313 OA 
HETATM    7  O   UNL     1      -8.915  16.906  65.589  1.00  0.00    -0.486 OA 
BRANCH   5   8
HETATM    8  N   UNL     1     -10.890  15.403  65.041  1.00  0.00    -0.427 N  
HETATM    9  H   UNL     1     -11.134  15.888  64.177  1.00  0.00     0.000 HD 
BRANCH   8  10
HETATM   10  C   UNL     1     -11.410  14.002  65.440  1.00  0.00    -0.315 C  
HETATM   11  C   UNL     1     -12.005  13.316  64.210  1.00  0.00    -0.421 C  
HETATM   12  O   UNL     1     -12.095  12.106  64.068  1.00  0.00    -0.414 OA 
HETATM   13  O   UNL     1     -12.432  14.197  63.270  1.00  0.00    -0.758 OA 
BRANCH  10  14
HETATM   14  C   UNL     1     -12.435  13.981  66.589  1.00  0.00    -0.296 C  
BRANCH  14  15
HETATM   15  C   UNL     1     -12.026  13.138  67.770  1.00  0.00    -0.352 A  
HETATM   16  C   UNL     1     -11.644  11.814  67.529  1.00  0.00    -0.361 A  
HETATM   17  C   UNL     1     -11.491  10.925  68.589  1.00  0.00    -0.380 A  
HETATM   18  C   UNL     1     -11.732  11.337  69.902  1.00  0.00    -0.352 A  
HETATM   19  C   UNL     1     -12.093  13.589  69.097  1.00  0.00    -0.331 A  
HETATM   20  C   UNL     1     -11.968  12.687  70.158  1.00  0.00    -0.375 A  
BRANCH  18  21
HETATM   21  O   UNL     1     -11.786  10.498  70.986  1.00  0.00    -0.350 OA 
BRANCH  21  22
HETATM   22  C   UNL     1     -13.028  10.550  71.692  1.00  0.00    -0.476 C  
BRANCH  22  23
HETATM   23  C   UNL     1     -13.357   9.212  72.330  1.00  0.00    -0.527 C  
BRANCH  23  24
HETATM   24  C   UNL     1     -13.053   8.003  71.435  1.00  0.00    -0.265 C  
BRANCH  24  25
HETATM   25  C   UNL     1     -11.865   7.240  72.029  1.00  0.00    -0.332 C  
BRANCH  25  26
HETATM   26  C   UNL     1     -10.557   7.271  71.218  1.00  0.00    -0.236 C  
HETATM   27  C   UNL     1      -9.645   6.118  71.682  1.00  0.00    -0.166 C  
HETATM   28  C   UNL     1     -10.075   4.771  71.102  1.00  0.00    -0.191 C  
HETATM   29  N   UNL     1     -10.046   4.821  69.644  1.00  0.00    -0.232 NA 
HETATM   30  H   UNL     1     -10.211   3.901  69.234  1.00  0.00     0.000 HD 
HETATM   31  C   UNL     1     -10.986   5.816  69.132  1.00  0.00    -0.238 C  
HETATM   32  C   UNL     1     -10.720   7.216  69.690  1.00  0.00    -0.256 C  
ENDBRANCH  25  26
ENDBRANCH  24  25
ENDBRANCH  23  24
ENDBRANCH  22  23
ENDBRANCH  21  22
ENDBRANCH  18  21
ENDBRANCH  14  15
ENDBRANCH  10  14
ENDBRANCH   8  10
ENDBRANCH   5   8
ENDBRANCH   4   5
ENDBRANCH   3   4
ENDBRANCH   2   3
TORSDOF 13
ENDMDL
MODEL       42
REMARK 921   NORMALIZED FREE ENERGY PREDICTED BY IDOCK:   -5.07 KCAL/MOL
REMARK 922        TOTAL FREE ENERGY PREDICTED BY IDOCK:  -11.46 KCAL/MOL
REMARK 923 INTER-LIGAND FREE ENERGY PREDICTED BY IDOCK:   -9.38 KCAL/MOL
REMARK 924 INTRA-LIGAND FREE ENERGY PREDICTED BY IDOCK:   -2.08 KCAL/MOL
REMARK 927      BINDING AFFINITY PREDICTED BY RF-SCORE:    0.00 PKD
ROOT
HETATM    1  C   UNL     1     -12.188  16.193  73.328  1.00  0.00    -0.639 C  
HETATM    2  C   UNL     1     -13.469  15.552  72.799  1.00  0.00    -0.650 C  
ENDROOT
BRANCH   2   3
HETATM    3  C   UNL     1     -13.378  15.466  71.285  1.00  0.00    -0.598 C  
BRANCH   3   4
HETATM    4  C   UNL     1     -12.624  14.264  70.708  1.00  0.00    -0.356 C  
BRANCH   4   5
HETATM    5  S   UNL     1     -11.468  14.960  69.508  1.00  0.00    -0.316 S  
HETATM    6  O   UNL     1     -12.054  16.153  68.943  1.00  0.00    -0.219 OA 
HETATM    7  O   UNL     1     -10.171  14.972  70.140  1.00  0.00    -0.128 OA 
BRANCH   5   8
HETATM    8  N   UNL     1     -11.401  13.851  68.219  1.00  0.00    -0.277 N  
HETATM    9  H   UNL     1     -12.009  13.876  67.400  1.00  0.00     0.000 HD 
BRANCH   8  10
HETATM   10  C   UNL     1     -10.292  12.800  68.459  1.00  0.00    -0.221 C  
HETATM   11  C   UNL     1      -9.149  13.039  67.470  1.00  0.00    -0.191 C  
HETATM   12  O   UNL     1      -7.990  12.700  67.658  1.00  0.00    -0.144 OA 
HETATM   13  O   UNL     1      -9.553  13.676  66.342  1.00  0.00    -0.277 OA 
BRANCH  10  14
HETATM   14  C   UNL     1     -10.746  11.331  68.376  1.00  0.00    -0.238 C  
BRANCH  14  15
HETATM   15  C   UNL     1     -10.864  10.642  69.712  1.00  0.00    -0.317 A  
HETATM   16  C   UNL     1      -9.763   9.910  70.171  1.00  0.00    -0.255 A  
HETATM   17  C   UNL     1      -9.894   9.063  71.268  1.00  0.00    -0.376 A  
HETATM   18  C   UNL     1     -11.124   8.920  71.913  1.00  0.00    -0.372 A  
HETATM   19  C   UNL     1     -12.044  10.628  70.470  1.00  0.00    -0.448 A  
HETATM   20  C   UNL     1     -12.181   9.755  71.552  1.00  0.00    -0.493 A  
BRANCH  18  21
HETATM   21  O   UNL     1     -11.396   7.982  72.877  1.00  0.00    -0.408 OA 
BRANCH  21  22
HETATM   22  C   UNL     1     -10.446   6.916  72.925  1.00  0.00    -0.244 C  
BRANCH  22  23
HETATM   23  C   UNL     1     -10.946   5.696  72.170  1.00  0.00    -0.307 C  
BRANCH  23  24
HETATM   24  C   UNL     1     -10.203   5.432  70.853  1.00  0.00    -0.303 C  
BRANCH  24  25
HETATM   25  C   UNL     1     -11.078   5.914  69.692  1.00  0.00    -0.414 C  
BRANCH  25  26
HETATM   26  C   UNL     1     -10.385   6.788  68.630  1.00  0.00    -0.202 C  
HETATM   27  C   UNL     1      -8.906   6.369  68.515  1.00  0.00    -0.119 C  
HETATM   28  C   UNL     1      -8.730   5.089  67.701  1.00  0.00    -0.103 C  
HETATM   29  N   UNL     1      -9.261   5.272  66.354  1.00  0.00    -0.139 NA 
HETATM   30  H   UNL     1      -9.047   4.475  65.754  1.00  0.00     0.000 HD 
HETATM   31  C   UNL     1     -10.696   5.552  66.388  1.00  0.00    -0.194 C  
HETATM   32  C   UNL     1     -11.034   6.781  67.236  1.00  0.00    -0.433 C  
ENDBRANCH  25  26
ENDBRANCH  24  25
ENDBRANCH  23  24
ENDBRANCH  22  23
ENDBRANCH  21  22
ENDBRANCH  18  21
ENDBRANCH  14  15
ENDBRANCH  10  14
ENDBRANCH   8  10
ENDBRANCH   5   8
ENDBRANCH   4   5
ENDBRANCH   3   4
ENDBRANCH   2   3
TORSDOF 13
ENDMDL
MODEL       43
REMARK 921   NORMALIZED FREE ENERGY PREDICTED BY IDOCK:   -5.06 KCAL/MOL
REMARK 922        TOTAL FREE ENERGY PREDICTED BY IDOCK:  -11.45 KCAL/MOL
REMARK 923 INTER-LIGAND FREE ENERGY PREDICTED BY IDOCK:   -9.96 KCAL/MOL
REMARK 924 INTRA-LIGAND FREE ENERGY PREDICTED BY IDOCK:   -1.49 KCAL/MOL
REMARK 927      BINDING AFFINITY PREDICTED BY RF-SCORE:    0.00 PKD
ROOT
HETATM    1  C   UNL     1     -10.516  19.623  65.871  1.00  0.00    -0.591 C  
HETATM    2  C   UNL     1     -10.875  19.175  67.285  1.00  0.00    -0.529 C  
ENDROOT
BRANCH   2   3
HETATM    3  C   UNL     1      -9.850  19.747  68.249  1.00  0.00    -0.537 C  
BRANCH   3   4
HETATM    4  C   UNL     1      -8.452  20.017  67.686  1.00  0.00    -0.326 C  
BRANCH   4   5
HETATM    5  S   UNL     1      -7.494  18.532  68.059  1.00  0.00    -0.256 S  
HETATM    6  O   UNL     1      -6.096  18.888  68.122  1.00  0.00    -0.204 OA 
HETATM    7  O   UNL     1      -8.164  17.871  69.153  1.00  0.00    -0.086 OA 
BRANCH   5   8
HETATM    8  N   UNL     1      -7.630  17.527  66.692  1.00  0.00    -0.228 N  
HETATM    9  H   UNL     1      -7.254  17.749  65.770  1.00  0.00     0.000 HD 
BRANCH   8  10
HETATM   10  C   UNL     1      -8.401  16.232  67.040  1.00  0.00    -0.205 C  
HETATM   11  C   UNL     1      -7.407  15.156  67.480  1.00  0.00    -0.196 C  
HETATM   12  O   UNL     1      -7.685  14.215  68.207  1.00  0.00    -0.119 OA 
HETATM   13  O   UNL     1      -6.162  15.351  66.977  1.00  0.00    -0.256 OA 
BRANCH  10  14
HETATM   14  C   UNL     1      -9.298  15.677  65.917  1.00  0.00    -0.357 C  
BRANCH  14  15
HETATM   15  C   UNL     1     -10.242  14.588  66.360  1.00  0.00    -0.293 A  
HETATM   16  C   UNL     1     -11.131  14.875  67.401  1.00  0.00    -0.325 A  
HETATM   17  C   UNL     1     -11.850  13.851  68.010  1.00  0.00    -0.411 A  
HETATM   18  C   UNL     1     -11.683  12.526  67.603  1.00  0.00    -0.361 A  
HETATM   19  C   UNL     1     -10.212  13.285  65.840  1.00  0.00    -0.295 A  
HETATM   20  C   UNL     1     -10.913  12.255  66.473  1.00  0.00    -0.320 A  
BRANCH  18  21
HETATM   21  O   UNL     1     -12.203  11.436  68.256  1.00  0.00    -0.588 OA 
BRANCH  21  22
HETATM   22  C   UNL     1     -11.979  11.451  69.667  1.00  0.00    -0.348 C  
BRANCH  22  23
HETATM   23  C   UNL     1     -13.012  10.612  70.400  1.00  0.00    -0.210 C  
BRANCH  23  24
HETATM   24  C   UNL     1     -12.689  10.382  71.882  1.00  0.00    -0.459 C  
BRANCH  24  25
HETATM   25  C   UNL     1     -12.877   8.895  72.199  1.00  0.00    -0.471 C  
BRANCH  25  26
HETATM   26  C   UNL     1     -11.603   8.106  72.555  1.00  0.00    -0.468 C  
HETATM   27  C   UNL     1     -11.755   6.652  72.066  1.00  0.00    -0.354 C  
HETATM   28  C   UNL     1     -11.521   6.521  70.561  1.00  0.00    -0.387 C  
HETATM   29  N   UNL     1     -10.179   6.982  70.220  1.00  0.00    -0.191 NA 
HETATM   30  H   UNL     1      -9.954   6.793  69.243  1.00  0.00     0.000 HD 
HETATM   31  C   UNL     1     -10.010   8.397  70.549  1.00  0.00    -0.185 C  
HETATM   32  C   UNL     1     -10.286   8.694  72.024  1.00  0.00    -0.407 C  
ENDBRANCH  25  26
ENDBRANCH  24  25
ENDBRANCH  23  24
ENDBRANCH  22  23
ENDBRANCH  21  22
ENDBRANCH  18  21
ENDBRANCH  14  15
ENDBRANCH  10  14
ENDBRANCH   8  10
ENDBRANCH   5   8
ENDBRANCH   4   5
ENDBRANCH   3   4
ENDBRANCH   2   3
TORSDOF 13
ENDMDL
MODEL       44
REMARK 921   NORMALIZED FREE ENERGY PREDICTED BY IDOCK:   -5.06 KCAL/MOL
REMARK 922        TOTAL FREE ENERGY PREDICTED BY IDOCK:  -11.45 KCAL/MOL
REMARK 923 INTER-LIGAND FREE ENERGY PREDICTED BY IDOCK:   -9.40 KCAL/MOL
REMARK 924 INTRA-LIGAND FREE ENERGY PREDICTED BY IDOCK:   -2.05 KCAL/MOL
REMARK 927      BINDING AFFINITY PREDICTED BY RF-SCORE:    0.00 PKD
ROOT
HETATM    1  C   UNL     1     -13.314  12.206  71.958  1.00  0.00    -0.470 C  
HETATM    2  C   UNL     1     -12.597  11.404  70.875  1.00  0.00    -0.453 C  
ENDROOT
BRANCH   2   3
HETATM    3  C   UNL     1     -12.532   9.951  71.312  1.00  0.00    -0.479 C  
BRANCH   3   4
HETATM    4  C   UNL     1     -11.135   9.355  71.512  1.00  0.00    -0.376 C  
BRANCH   4   5
HETATM    5  S   UNL     1     -11.404   7.584  71.745  1.00  0.00    -0.264 S  
HETATM    6  O   UNL     1     -10.999   7.229  73.085  1.00  0.00    -0.337 OA 
HETATM    7  O   UNL     1     -12.726   7.296  71.245  1.00  0.00    -0.362 OA 
BRANCH   5   8
HETATM    8  N   UNL     1     -10.288   6.799  70.728  1.00  0.00    -0.202 N  
HETATM    9  H   UNL     1      -9.586   6.130  71.044  1.00  0.00     0.000 HD 
BRANCH   8  10
HETATM   10  C   UNL     1     -10.484   7.239  69.258  1.00  0.00    -0.216 C  
HETATM   11  C   UNL     1     -10.645   5.999  68.378  1.00  0.00    -0.261 C  
HETATM   12  O   UNL     1     -11.228   5.984  67.304  1.00  0.00    -0.231 OA 
HETATM   13  O   UNL     1     -10.069   4.894  68.914  1.00  0.00    -0.171 OA 
BRANCH  10  14
HETATM   14  C   UNL     1      -9.372   8.138  68.684  1.00  0.00    -0.143 C  
BRANCH  14  15
HETATM   15  C   UNL     1      -9.814   9.019  67.544  1.00  0.00    -0.230 A  
HETATM   16  C   UNL     1      -9.209   8.829  66.297  1.00  0.00    -0.261 A  
HETATM   17  C   UNL     1      -9.395   9.760  65.278  1.00  0.00    -0.315 A  
HETATM   18  C   UNL     1     -10.172  10.900  65.492  1.00  0.00    -0.271 A  
HETATM   19  C   UNL     1     -10.731  10.070  67.693  1.00  0.00    -0.340 A  
HETATM   20  C   UNL     1     -10.893  11.018  66.680  1.00  0.00    -0.284 A  
BRANCH  18  21
HETATM   21  O   UNL     1     -10.266  11.956  64.621  1.00  0.00    -0.260 OA 
BRANCH  21  22
HETATM   22  C   UNL     1     -11.568  12.122  64.056  1.00  0.00    -0.423 C  
BRANCH  22  23
HETATM   23  C   UNL     1     -12.037  13.563  64.161  1.00  0.00    -0.488 C  
BRANCH  23  24
HETATM   24  C   UNL     1     -12.496  13.966  65.569  1.00  0.00    -0.541 C  
BRANCH  24  25
HETATM   25  C   UNL     1     -11.467  14.933  66.162  1.00  0.00    -0.272 C  
BRANCH  25  26
HETATM   26  C   UNL     1     -10.712  14.447  67.412  1.00  0.00    -0.280 C  
HETATM   27  C   UNL     1      -9.650  15.493  67.802  1.00  0.00    -0.209 C  
HETATM   28  C   UNL     1     -10.259  16.691  68.530  1.00  0.00    -0.282 C  
HETATM   29  N   UNL     1     -10.936  16.250  69.745  1.00  0.00    -0.343 NA 
HETATM   30  H   UNL     1     -11.246  17.041  70.310  1.00  0.00     0.000 HD 
HETATM   31  C   UNL     1     -12.041  15.344  69.432  1.00  0.00    -0.280 C  
HETATM   32  C   UNL     1     -11.588  14.120  68.633  1.00  0.00    -0.352 C  
ENDBRANCH  25  26
ENDBRANCH  24  25
ENDBRANCH  23  24
ENDBRANCH  22  23
ENDBRANCH  21  22
ENDBRANCH  18  21
ENDBRANCH  14  15
ENDBRANCH  10  14
ENDBRANCH   8  10
ENDBRANCH   5   8
ENDBRANCH   4   5
ENDBRANCH   3   4
ENDBRANCH   2   3
TORSDOF 13
ENDMDL
MODEL       45
REMARK 921   NORMALIZED FREE ENERGY PREDICTED BY IDOCK:   -5.05 KCAL/MOL
REMARK 922        TOTAL FREE ENERGY PREDICTED BY IDOCK:  -11.44 KCAL/MOL
REMARK 923 INTER-LIGAND FREE ENERGY PREDICTED BY IDOCK:   -8.93 KCAL/MOL
REMARK 924 INTRA-LIGAND FREE ENERGY PREDICTED BY IDOCK:   -2.51 KCAL/MOL
REMARK 927      BINDING AFFINITY PREDICTED BY RF-SCORE:    0.00 PKD
ROOT
HETATM    1  C   UNL     1     -12.019  14.929  70.040  1.00  0.00    -0.377 C  
HETATM    2  C   UNL     1     -10.516  15.158  69.892  1.00  0.00    -0.234 C  
ENDROOT
BRANCH   2   3
HETATM    3  C   UNL     1     -10.174  15.186  68.412  1.00  0.00    -0.221 C  
BRANCH   3   4
HETATM    4  C   UNL     1     -11.025  16.102  67.527  1.00  0.00    -0.238 C  
BRANCH   4   5
HETATM    5  S   UNL     1     -10.349  15.914  65.863  1.00  0.00    -0.385 S  
HETATM    6  O   UNL     1     -10.293  17.216  65.239  1.00  0.00    -0.629 OA 
HETATM    7  O   UNL     1      -9.182  15.074  65.982  1.00  0.00    -0.293 OA 
BRANCH   5   8
HETATM    8  N   UNL     1     -11.514  15.051  64.974  1.00  0.00    -0.373 N  
HETATM    9  H   UNL     1     -12.275  15.479  64.445  1.00  0.00     0.000 HD 
BRANCH   8  10
HETATM   10  C   UNL     1     -11.264  13.528  65.077  1.00  0.00    -0.322 C  
HETATM   11  C   UNL     1     -11.631  12.865  63.749  1.00  0.00    -0.475 C  
HETATM   12  O   UNL     1     -11.165  11.808  63.351  1.00  0.00    -0.395 OA 
HETATM   13  O   UNL     1     -12.540  13.579  63.037  1.00  0.00    -0.716 OA 
BRANCH  10  14
HETATM   14  C   UNL     1     -11.998  12.815  66.228  1.00  0.00    -0.460 C  
BRANCH  14  15
HETATM   15  C   UNL     1     -11.121  11.910  67.057  1.00  0.00    -0.354 A  
HETATM   16  C   UNL     1     -11.670  11.347  68.214  1.00  0.00    -0.359 A  
HETATM   17  C   UNL     1     -10.849  10.707  69.139  1.00  0.00    -0.279 A  
HETATM   18  C   UNL     1      -9.469  10.634  68.933  1.00  0.00    -0.192 A  
HETATM   19  C   UNL     1      -9.767  11.679  66.772  1.00  0.00    -0.220 A  
HETATM   20  C   UNL     1      -8.941  11.062  67.716  1.00  0.00    -0.140 A  
BRANCH  18  21
HETATM   21  O   UNL     1      -8.563  10.191  69.863  1.00  0.00    -0.177 OA 
BRANCH  21  22
HETATM   22  C   UNL     1      -9.040   9.101  70.656  1.00  0.00    -0.257 C  
BRANCH  22  23
HETATM   23  C   UNL     1      -8.117   7.899  70.553  1.00  0.00    -0.109 C  
BRANCH  23  24
HETATM   24  C   UNL     1      -7.537   7.677  69.150  1.00  0.00    -0.100 C  
BRANCH  24  25
HETATM   25  C   UNL     1      -7.973   6.296  68.652  1.00  0.00    -0.105 C  
BRANCH  25  26
HETATM   26  C   UNL     1      -8.448   6.214  67.190  1.00  0.00    -0.104 C  
HETATM   27  C   UNL     1      -9.466   5.065  67.051  1.00  0.00    -0.150 C  
HETATM   28  C   UNL     1     -10.850   5.454  67.569  1.00  0.00     0.093 C  
HETATM   29  N   UNL     1     -11.356   6.608  66.833  1.00  0.00    -0.824 NA 
HETATM   30  H   UNL     1     -12.326   6.812  67.076  1.00  0.00     0.000 HD 
HETATM   31  C   UNL     1     -10.495   7.774  67.025  1.00  0.00    -0.349 C  
HETATM   32  C   UNL     1      -9.046   7.507  66.611  1.00  0.00    -0.189 C  
ENDBRANCH  25  26
ENDBRANCH  24  25
ENDBRANCH  23  24
ENDBRANCH  22  23
ENDBRANCH  21  22
ENDBRANCH  18  21
ENDBRANCH  14  15
ENDBRANCH  10  14
ENDBRANCH   8  10
ENDBRANCH   5   8
ENDBRANCH   4   5
ENDBRANCH   3   4
ENDBRANCH   2   3
TORSDOF 13
ENDMDL
MODEL       46
REMARK 921   NORMALIZED FREE ENERGY PREDICTED BY IDOCK:   -5.04 KCAL/MOL
REMARK 922        TOTAL FREE ENERGY PREDICTED BY IDOCK:  -11.41 KCAL/MOL
REMARK 923 INTER-LIGAND FREE ENERGY PREDICTED BY IDOCK:   -9.39 KCAL/MOL
REMARK 924 INTRA-LIGAND FREE ENERGY PREDICTED BY IDOCK:   -2.01 KCAL/MOL
REMARK 927      BINDING AFFINITY PREDICTED BY RF-SCORE:    0.00 PKD
ROOT
HETATM    1  C   UNL     1      -9.763   9.705  65.208  1.00  0.00    -0.330 C  
HETATM    2  C   UNL     1      -9.315   8.517  66.057  1.00  0.00    -0.266 C  
ENDROOT
BRANCH   2   3
HETATM    3  C   UNL     1     -10.504   8.021  66.860  1.00  0.00    -0.387 C  
BRANCH   3   4
HETATM    4  C   UNL     1     -10.550   6.521  67.167  1.00  0.00    -0.328 C  
BRANCH   4   5
HETATM    5  S   UNL     1     -10.370   6.398  68.960  1.00  0.00    -0.222 S  
HETATM    6  O   UNL     1     -10.529   5.015  69.345  1.00  0.00    -0.206 OA 
HETATM    7  O   UNL     1      -9.196   7.159  69.312  1.00  0.00    -0.141 OA 
BRANCH   5   8
HETATM    8  N   UNL     1     -11.717   7.195  69.626  1.00  0.00    -0.516 N  
HETATM    9  H   UNL     1     -12.678   7.078  69.304  1.00  0.00     0.000 HD 
BRANCH   8  10
HETATM   10  C   UNL     1     -11.286   8.123  70.787  1.00  0.00    -0.261 C  
HETATM   11  C   UNL     1     -11.599   7.441  72.119  1.00  0.00    -0.293 C  
HETATM   12  O   UNL     1     -11.019   7.676  73.169  1.00  0.00    -0.392 OA 
HETATM   13  O   UNL     1     -12.600   6.531  72.023  1.00  0.00    -0.319 OA 
BRANCH  10  14
HETATM   14  C   UNL     1     -11.906   9.532  70.771  1.00  0.00    -0.350 C  
BRANCH  14  15
HETATM   15  C   UNL     1     -11.167  10.525  69.910  1.00  0.00    -0.374 A  
HETATM   16  C   UNL     1     -11.916  11.507  69.252  1.00  0.00    -0.397 A  
HETATM   17  C   UNL     1     -11.328  12.291  68.264  1.00  0.00    -0.339 A  
HETATM   18  C   UNL     1      -9.992  12.099  67.905  1.00  0.00    -0.200 A  
HETATM   19  C   UNL     1      -9.786  10.458  69.669  1.00  0.00    -0.179 A  
HETATM   20  C   UNL     1      -9.206  11.227  68.657  1.00  0.00    -0.163 A  
BRANCH  18  21
HETATM   21  O   UNL     1      -9.380  12.690  66.828  1.00  0.00    -0.221 OA 
BRANCH  21  22
HETATM   22  C   UNL     1     -10.230  13.577  66.099  1.00  0.00    -0.302 C  
BRANCH  22  23
HETATM   23  C   UNL     1      -9.629  14.969  66.009  1.00  0.00    -0.359 C  
BRANCH  23  24
HETATM   24  C   UNL     1      -9.864  15.831  67.257  1.00  0.00    -0.230 C  
BRANCH  24  25
HETATM   25  C   UNL     1      -8.703  16.819  67.396  1.00  0.00    -0.202 C  
BRANCH  25  26
HETATM   26  C   UNL     1      -8.911  17.986  68.378  1.00  0.00    -0.300 C  
HETATM   27  C   UNL     1      -7.759  18.997  68.216  1.00  0.00    -0.346 C  
HETATM   28  C   UNL     1      -7.939  19.886  66.986  1.00  0.00    -0.301 C  
HETATM   29  N   UNL     1      -9.191  20.629  67.083  1.00  0.00    -0.586 NA 
HETATM   30  H   UNL     1      -9.278  21.318  66.336  1.00  0.00     0.000 HD 
HETATM   31  C   UNL     1     -10.339  19.723  67.117  1.00  0.00    -0.458 C  
HETATM   32  C   UNL     1     -10.259  18.717  68.267  1.00  0.00    -0.425 C  
ENDBRANCH  25  26
ENDBRANCH  24  25
ENDBRANCH  23  24
ENDBRANCH  22  23
ENDBRANCH  21  22
ENDBRANCH  18  21
ENDBRANCH  14  15
ENDBRANCH  10  14
ENDBRANCH   8  10
ENDBRANCH   5   8
ENDBRANCH   4   5
ENDBRANCH   3   4
ENDBRANCH   2   3
TORSDOF 13
ENDMDL
MODEL       47
REMARK 921   NORMALIZED FREE ENERGY PREDICTED BY IDOCK:   -5.03 KCAL/MOL
REMARK 922        TOTAL FREE ENERGY PREDICTED BY IDOCK:  -11.39 KCAL/MOL
REMARK 923 INTER-LIGAND FREE ENERGY PREDICTED BY IDOCK:   -8.97 KCAL/MOL
REMARK 924 INTRA-LIGAND FREE ENERGY PREDICTED BY IDOCK:   -2.42 KCAL/MOL
REMARK 927      BINDING AFFINITY PREDICTED BY RF-SCORE:    0.00 PKD
ROOT
HETATM    1  C   UNL     1     -13.602  13.040  72.319  1.00  0.00    -0.643 C  
HETATM    2  C   UNL     1     -12.811  12.116  71.396  1.00  0.00    -0.378 C  
ENDROOT
BRANCH   2   3
HETATM    3  C   UNL     1     -13.004  10.684  71.863  1.00  0.00    -0.542 C  
BRANCH   3   4
HETATM    4  C   UNL     1     -13.074   9.608  70.775  1.00  0.00    -0.071 C  
BRANCH   4   5
HETATM    5  S   UNL     1     -12.041   8.255  71.379  1.00  0.00    -0.298 S  
HETATM    6  O   UNL     1     -11.857   8.416  72.802  1.00  0.00    -0.371 OA 
HETATM    7  O   UNL     1     -12.574   7.041  70.810  1.00  0.00    -0.314 OA 
BRANCH   5   8
HETATM    8  N   UNL     1     -10.498   8.502  70.707  1.00  0.00    -0.195 N  
HETATM    9  H   UNL     1      -9.619   8.360  71.205  1.00  0.00     0.000 HD 
BRANCH   8  10
HETATM   10  C   UNL     1     -10.610   8.971  69.237  1.00  0.00    -0.213 C  
HETATM   11  C   UNL     1     -10.284   7.800  68.308  1.00  0.00    -0.201 C  
HETATM   12  O   UNL     1     -10.685   7.697  67.159  1.00  0.00    -0.332 OA 
HETATM   13  O   UNL     1      -9.492   6.867  68.894  1.00  0.00    -0.138 OA 
BRANCH  10  14
HETATM   14  C   UNL     1      -9.737  10.184  68.862  1.00  0.00    -0.189 C  
BRANCH  14  15
HETATM   15  C   UNL     1     -10.336  11.075  67.803  1.00  0.00    -0.218 A  
HETATM   16  C   UNL     1     -11.387  11.920  68.176  1.00  0.00    -0.350 A  
HETATM   17  C   UNL     1     -12.133  12.580  67.204  1.00  0.00    -0.135 A  
HETATM   18  C   UNL     1     -11.854  12.396  65.848  1.00  0.00    -0.405 A  
HETATM   19  C   UNL     1      -9.951  11.034  66.455  1.00  0.00    -0.253 A  
HETATM   20  C   UNL     1     -10.720  11.674  65.480  1.00  0.00    -0.333 A  
BRANCH  18  21
HETATM   21  O   UNL     1     -12.640  12.853  64.820  1.00  0.00    -0.570 OA 
BRANCH  21  22
HETATM   22  C   UNL     1     -11.996  13.825  63.993  1.00  0.00    -0.408 C  
BRANCH  22  23
HETATM   23  C   UNL     1     -12.350  15.238  64.423  1.00  0.00    -0.172 C  
BRANCH  23  24
HETATM   24  C   UNL     1     -11.133  16.151  64.622  1.00  0.00    -0.310 C  
BRANCH  24  25
HETATM   25  C   UNL     1     -10.245  15.553  65.717  1.00  0.00    -0.390 C  
BRANCH  25  26
HETATM   26  C   UNL     1     -10.641  15.876  67.170  1.00  0.00    -0.316 C  
HETATM   27  C   UNL     1      -9.713  15.105  68.131  1.00  0.00    -0.217 C  
HETATM   28  C   UNL     1      -8.342  15.766  68.265  1.00  0.00    -0.163 C  
HETATM   29  N   UNL     1      -8.489  17.130  68.764  1.00  0.00    -0.250 NA 
HETATM   30  H   UNL     1      -7.584  17.551  68.976  1.00  0.00     0.000 HD 
HETATM   31  C   UNL     1      -9.260  17.951  67.831  1.00  0.00    -0.263 C  
HETATM   32  C   UNL     1     -10.645  17.368  67.542  1.00  0.00    -0.330 C  
ENDBRANCH  25  26
ENDBRANCH  24  25
ENDBRANCH  23  24
ENDBRANCH  22  23
ENDBRANCH  21  22
ENDBRANCH  18  21
ENDBRANCH  14  15
ENDBRANCH  10  14
ENDBRANCH   8  10
ENDBRANCH   5   8
ENDBRANCH   4   5
ENDBRANCH   3   4
ENDBRANCH   2   3
TORSDOF 13
ENDMDL
MODEL       48
REMARK 921   NORMALIZED FREE ENERGY PREDICTED BY IDOCK:   -5.02 KCAL/MOL
REMARK 922        TOTAL FREE ENERGY PREDICTED BY IDOCK:  -11.38 KCAL/MOL
REMARK 923 INTER-LIGAND FREE ENERGY PREDICTED BY IDOCK:   -9.78 KCAL/MOL
REMARK 924 INTRA-LIGAND FREE ENERGY PREDICTED BY IDOCK:   -1.60 KCAL/MOL
REMARK 927      BINDING AFFINITY PREDICTED BY RF-SCORE:    0.00 PKD
ROOT
HETATM    1  C   UNL     1      -8.043   4.099  71.835  1.00  0.00    -0.088 C  
HETATM    2  C   UNL     1      -9.567   4.035  71.773  1.00  0.00    -0.223 C  
ENDROOT
BRANCH   2   3
HETATM    3  C   UNL     1     -10.122   5.418  72.064  1.00  0.00    -0.240 C  
BRANCH   3   4
HETATM    4  C   UNL     1      -9.692   6.545  71.119  1.00  0.00    -0.174 C  
BRANCH   4   5
HETATM    5  S   UNL     1     -10.498   8.031  71.756  1.00  0.00    -0.244 S  
HETATM    6  O   UNL     1     -11.333   7.659  72.875  1.00  0.00    -0.369 OA 
HETATM    7  O   UNL     1      -9.474   9.041  71.871  1.00  0.00    -0.313 OA 
BRANCH   5   8
HETATM    8  N   UNL     1     -11.583   8.535  70.547  1.00  0.00    -0.435 N  
HETATM    9  H   UNL     1     -11.938   7.936  69.801  1.00  0.00     0.000 HD 
BRANCH   8  10
HETATM   10  C   UNL     1     -11.958  10.024  70.734  1.00  0.00    -0.335 C  
HETATM   11  C   UNL     1     -13.219  10.122  71.593  1.00  0.00    -0.418 C  
HETATM   12  O   UNL     1     -13.521  11.094  72.269  1.00  0.00    -0.337 OA 
HETATM   13  O   UNL     1     -13.987   9.005  71.532  1.00  0.00    -0.373 OA 
BRANCH  10  14
HETATM   14  C   UNL     1     -12.157  10.823  69.432  1.00  0.00    -0.315 C  
BRANCH  14  15
HETATM   15  C   UNL     1     -11.433  12.145  69.399  1.00  0.00    -0.355 A  
HETATM   16  C   UNL     1     -12.076  13.257  69.954  1.00  0.00    -0.377 A  
HETATM   17  C   UNL     1     -11.572  14.537  69.740  1.00  0.00    -0.345 A  
HETATM   18  C   UNL     1     -10.431  14.728  68.957  1.00  0.00    -0.249 A  
HETATM   19  C   UNL     1     -10.195  12.330  68.766  1.00  0.00    -0.119 A  
HETATM   20  C   UNL     1      -9.707  13.617  68.528  1.00  0.00    -0.184 A  
BRANCH  18  21
HETATM   21  O   UNL     1      -9.966  15.951  68.541  1.00  0.00    -0.209 OA 
BRANCH  21  22
HETATM   22  C   UNL     1      -8.930  15.867  67.560  1.00  0.00    -0.194 C  
BRANCH  22  23
HETATM   23  C   UNL     1      -9.430  16.293  66.190  1.00  0.00    -0.373 C  
BRANCH  23  24
HETATM   24  C   UNL     1     -10.898  15.931  65.924  1.00  0.00    -0.237 C  
BRANCH  24  25
HETATM   25  C   UNL     1     -10.945  14.813  64.879  1.00  0.00    -0.425 C  
BRANCH  25  26
HETATM   26  C   UNL     1     -11.122  13.381  65.417  1.00  0.00    -0.301 C  
HETATM   27  C   UNL     1     -12.509  12.852  65.003  1.00  0.00    -0.553 C  
HETATM   28  C   UNL     1     -12.543  12.401  63.543  1.00  0.00    -0.425 C  
HETATM   29  N   UNL     1     -11.563  11.343  63.321  1.00  0.00    -0.848 NA 
HETATM   30  H   UNL     1     -11.650  10.941  62.386  1.00  0.00     0.000 HD 
HETATM   31  C   UNL     1     -10.206  11.821  63.579  1.00  0.00    -0.450 C  
HETATM   32  C   UNL     1     -10.038  12.374  64.996  1.00  0.00    -0.269 C  
ENDBRANCH  25  26
ENDBRANCH  24  25
ENDBRANCH  23  24
ENDBRANCH  22  23
ENDBRANCH  21  22
ENDBRANCH  18  21
ENDBRANCH  14  15
ENDBRANCH  10  14
ENDBRANCH   8  10
ENDBRANCH   5   8
ENDBRANCH   4   5
ENDBRANCH   3   4
ENDBRANCH   2   3
TORSDOF 13
ENDMDL
MODEL       49
REMARK 921   NORMALIZED FREE ENERGY PREDICTED BY IDOCK:   -5.01 KCAL/MOL
REMARK 922        TOTAL FREE ENERGY PREDICTED BY IDOCK:  -11.37 KCAL/MOL
REMARK 923 INTER-LIGAND FREE ENERGY PREDICTED BY IDOCK:   -9.55 KCAL/MOL
REMARK 924 INTRA-LIGAND FREE ENERGY PREDICTED BY IDOCK:   -1.82 KCAL/MOL
REMARK 927      BINDING AFFINITY PREDICTED BY RF-SCORE:    0.00 PKD
ROOT
HETATM    1  C   UNL     1     -12.317  12.155  63.572  1.00  0.00    -0.682 C  
HETATM    2  C   UNL     1     -10.794  12.172  63.458  1.00  0.00    -0.518 C  
ENDROOT
BRANCH   2   3
HETATM    3  C   UNL     1     -10.280  10.754  63.634  1.00  0.00    -0.327 C  
BRANCH   3   4
HETATM    4  C   UNL     1      -8.842  10.482  63.184  1.00  0.00    -0.215 C  
BRANCH   4   5
HETATM    5  S   UNL     1      -8.055   9.656  64.584  1.00  0.00    -0.152 S  
HETATM    6  O   UNL     1      -6.995   8.812  64.084  1.00  0.00    -0.087 OA 
HETATM    7  O   UNL     1      -7.816  10.670  65.583  1.00  0.00    -0.157 OA 
BRANCH   5   8
HETATM    8  N   UNL     1      -9.214   8.580  65.211  1.00  0.00    -0.430 N  
HETATM    9  H   UNL     1      -9.788   7.954  64.647  1.00  0.00     0.000 HD 
BRANCH   8  10
HETATM   10  C   UNL     1      -9.279   8.683  66.753  1.00  0.00    -0.169 C  
HETATM   11  C   UNL     1      -8.690   7.413  67.368  1.00  0.00    -0.121 C  
HETATM   12  O   UNL     1      -8.202   7.349  68.486  1.00  0.00    -0.123 OA 
HETATM   13  O   UNL     1      -8.760   6.343  66.537  1.00  0.00    -0.123 OA 
BRANCH  10  14
HETATM   14  C   UNL     1     -10.681   8.937  67.339  1.00  0.00    -0.225 C  
BRANCH  14  15
HETATM   15  C   UNL     1     -10.878  10.323  67.898  1.00  0.00    -0.337 A  
HETATM   16  C   UNL     1     -11.112  10.448  69.271  1.00  0.00    -0.303 A  
HETATM   17  C   UNL     1     -11.538  11.663  69.802  1.00  0.00    -0.389 A  
HETATM   18  C   UNL     1     -11.752  12.765  68.971  1.00  0.00    -0.323 A  
HETATM   19  C   UNL     1     -10.923  11.476  67.100  1.00  0.00    -0.338 A  
HETATM   20  C   UNL     1     -11.379  12.686  67.629  1.00  0.00    -0.362 A  
BRANCH  18  21
HETATM   21  O   UNL     1     -12.340  13.940  69.367  1.00  0.00    -0.329 OA 
BRANCH  21  22
HETATM   22  C   UNL     1     -11.556  14.689  70.299  1.00  0.00    -0.280 C  
BRANCH  22  23
HETATM   23  C   UNL     1     -11.451  16.147  69.886  1.00  0.00    -0.286 C  
BRANCH  23  24
HETATM   24  C   UNL     1     -10.960  16.352  68.446  1.00  0.00    -0.353 C  
BRANCH  24  25
HETATM   25  C   UNL     1      -9.713  17.240  68.475  1.00  0.00    -0.296 C  
BRANCH  25  26
HETATM   26  C   UNL     1      -9.956  18.761  68.455  1.00  0.00    -0.450 C  
HETATM   27  C   UNL     1      -8.608  19.487  68.284  1.00  0.00    -0.380 C  
HETATM   28  C   UNL     1      -8.116  19.459  66.838  1.00  0.00    -0.277 C  
HETATM   29  N   UNL     1      -9.094  20.096  65.962  1.00  0.00    -0.580 NA 
HETATM   30  H   UNL     1      -8.737  20.198  65.012  1.00  0.00     0.000 HD 
HETATM   31  C   UNL     1     -10.367  19.376  65.985  1.00  0.00    -0.497 C  
HETATM   32  C   UNL     1     -10.951  19.262  67.395  1.00  0.00    -0.445 C  
ENDBRANCH  25  26
ENDBRANCH  24  25
ENDBRANCH  23  24
ENDBRANCH  22  23
ENDBRANCH  21  22
ENDBRANCH  18  21
ENDBRANCH  14  15
ENDBRANCH  10  14
ENDBRANCH   8  10
ENDBRANCH   5   8
ENDBRANCH   4   5
ENDBRANCH   3   4
ENDBRANCH   2   3
TORSDOF 13
ENDMDL
MODEL       50
REMARK 921   NORMALIZED FREE ENERGY PREDICTED BY IDOCK:   -4.99 KCAL/MOL
REMARK 922        TOTAL FREE ENERGY PREDICTED BY IDOCK:  -11.33 KCAL/MOL
REMARK 923 INTER-LIGAND FREE ENERGY PREDICTED BY IDOCK:   -9.06 KCAL/MOL
REMARK 924 INTRA-LIGAND FREE ENERGY PREDICTED BY IDOCK:   -2.27 KCAL/MOL
REMARK 927      BINDING AFFINITY PREDICTED BY RF-SCORE:    0.00 PKD
ROOT
HETATM    1  C   UNL     1     -12.287  10.769  70.369  1.00  0.00    -0.438 C  
HETATM    2  C   UNL     1     -13.008  11.113  71.671  1.00  0.00    -0.548 C  
ENDROOT
BRANCH   2   3
HETATM    3  C   UNL     1     -13.077  12.624  71.801  1.00  0.00    -0.461 C  
BRANCH   3   4
HETATM    4  C   UNL     1     -12.407  13.442  70.693  1.00  0.00    -0.348 C  
BRANCH   4   5
HETATM    5  S   UNL     1     -12.271  15.117  71.356  1.00  0.00    -0.377 S  
HETATM    6  O   UNL     1     -13.481  15.838  71.039  1.00  0.00    -0.581 OA 
HETATM    7  O   UNL     1     -11.790  14.989  72.710  1.00  0.00    -0.352 OA 
BRANCH   5   8
HETATM    8  N   UNL     1     -11.053  15.886  70.450  1.00  0.00    -0.349 N  
HETATM    9  H   UNL     1     -10.558  16.729  70.742  1.00  0.00     0.000 HD 
BRANCH   8  10
HETATM   10  C   UNL     1     -10.799  15.132  69.123  1.00  0.00    -0.251 C  
HETATM   11  C   UNL     1      -9.293  15.046  68.872  1.00  0.00    -0.208 C  
HETATM   12  O   UNL     1      -8.753  14.185  68.194  1.00  0.00    -0.165 OA 
HETATM   13  O   UNL     1      -8.599  16.036  69.488  1.00  0.00    -0.211 OA 
BRANCH  10  14
HETATM   14  C   UNL     1     -11.495  15.724  67.883  1.00  0.00    -0.221 C  
BRANCH  14  15
HETATM   15  C   UNL     1     -11.582  14.781  66.711  1.00  0.00    -0.333 A  
HETATM   16  C   UNL     1     -12.168  13.528  66.920  1.00  0.00    -0.377 A  
HETATM   17  C   UNL     1     -12.060  12.533  65.952  1.00  0.00    -0.420 A  
HETATM   18  C   UNL     1     -11.353  12.766  64.771  1.00  0.00    -0.309 A  
HETATM   19  C   UNL     1     -11.029  15.063  65.453  1.00  0.00    -0.380 A  
HETATM   20  C   UNL     1     -10.896  14.054  64.495  1.00  0.00    -0.362 A  
BRANCH  18  21
HETATM   21  O   UNL     1     -11.038  11.802  63.846  1.00  0.00    -0.352 OA 
BRANCH  21  22
HETATM   22  C   UNL     1      -9.638  11.703  63.574  1.00  0.00    -0.250 C  
BRANCH  22  23
HETATM   23  C   UNL     1      -9.217  10.259  63.365  1.00  0.00    -0.321 C  
BRANCH  23  24
HETATM   24  C   UNL     1      -9.368   9.379  64.613  1.00  0.00    -0.112 C  
BRANCH  24  25
HETATM   25  C   UNL     1      -8.807  10.138  65.819  1.00  0.00    -0.177 C  
BRANCH  25  26
HETATM   26  C   UNL     1      -9.767  10.346  67.004  1.00  0.00    -0.216 C  
HETATM   27  C   UNL     1     -10.504   9.025  67.297  1.00  0.00    -0.343 C  
HETATM   28  C   UNL     1      -9.631   8.033  68.065  1.00  0.00    -0.152 C  
HETATM   29  N   UNL     1      -9.210   8.615  69.336  1.00  0.00    -0.149 NA 
HETATM   30  H   UNL     1      -8.728   7.931  69.920  1.00  0.00     0.000 HD 
HETATM   31  C   UNL     1      -8.397   9.811  69.122  1.00  0.00    -0.137 C  
HETATM   32  C   UNL     1      -9.123  10.875  68.297  1.00  0.00    -0.158 C  
ENDBRANCH  25  26
ENDBRANCH  24  25
ENDBRANCH  23  24
ENDBRANCH  22  23
ENDBRANCH  21  22
ENDBRANCH  18  21
ENDBRANCH  14  15
ENDBRANCH  10  14
ENDBRANCH   8  10
ENDBRANCH   5   8
ENDBRANCH   4   5
ENDBRANCH   3   4
ENDBRANCH   2   3
TORSDOF 13
ENDMDL
MODEL       51
REMARK 921   NORMALIZED FREE ENERGY PREDICTED BY IDOCK:   -4.98 KCAL/MOL
REMARK 922        TOTAL FREE ENERGY PREDICTED BY IDOCK:  -11.30 KCAL/MOL
REMARK 923 INTER-LIGAND FREE ENERGY PREDICTED BY IDOCK:   -8.33 KCAL/MOL
REMARK 924 INTRA-LIGAND FREE ENERGY PREDICTED BY IDOCK:   -2.97 KCAL/MOL
REMARK 927      BINDING AFFINITY PREDICTED BY RF-SCORE:    0.00 PKD
ROOT
HETATM    1  C   UNL     1      -6.838   7.668  67.731  1.00  0.00    -0.068 C  
HETATM    2  C   UNL     1      -7.628   6.805  66.749  1.00  0.00    -0.090 C  
ENDROOT
BRANCH   2   3
HETATM    3  C   UNL     1      -8.594   5.937  67.537  1.00  0.00    -0.102 C  
BRANCH   3   4
HETATM    4  C   UNL     1      -8.861   6.347  68.988  1.00  0.00    -0.129 C  
BRANCH   4   5
HETATM    5  S   UNL     1     -10.650   6.207  69.199  1.00  0.00    -0.318 S  
HETATM    6  O   UNL     1     -11.261   6.104  67.895  1.00  0.00    -0.304 OA 
HETATM    7  O   UNL     1     -10.870   5.218  70.227  1.00  0.00    -0.225 OA 
BRANCH   5   8
HETATM    8  N   UNL     1     -11.172   7.707  69.811  1.00  0.00    -0.448 N  
HETATM    9  H   UNL     1     -12.148   7.967  69.952  1.00  0.00     0.000 HD 
BRANCH   8  10
HETATM   10  C   UNL     1      -9.964   8.621  70.123  1.00  0.00    -0.182 C  
HETATM   11  C   UNL     1      -9.813   8.757  71.639  1.00  0.00    -0.308 C  
HETATM   12  O   UNL     1      -8.765   9.022  72.208  1.00  0.00    -0.367 OA 
HETATM   13  O   UNL     1     -10.977   8.550  72.305  1.00  0.00    -0.338 OA 
BRANCH  10  14
HETATM   14  C   UNL     1     -10.013  10.021  69.482  1.00  0.00    -0.249 C  
BRANCH  14  15
HETATM   15  C   UNL     1      -9.586  10.057  68.036  1.00  0.00    -0.154 A  
HETATM   16  C   UNL     1      -8.562  10.939  67.677  1.00  0.00    -0.124 A  
HETATM   17  C   UNL     1      -8.294  11.192  66.335  1.00  0.00    -0.167 A  
HETATM   18  C   UNL     1      -9.051  10.582  65.332  1.00  0.00    -0.187 A  
HETATM   19  C   UNL     1     -10.222   9.317  67.028  1.00  0.00    -0.331 A  
HETATM   20  C   UNL     1      -9.970   9.594  65.682  1.00  0.00    -0.321 A  
BRANCH  18  21
HETATM   21  O   UNL     1      -8.985  10.903  64.000  1.00  0.00    -0.173 OA 
BRANCH  21  22
HETATM   22  C   UNL     1     -10.265  11.037  63.377  1.00  0.00    -0.346 C  
BRANCH  22  23
HETATM   23  C   UNL     1     -10.836  12.430  63.581  1.00  0.00    -0.509 C  
BRANCH  23  24
HETATM   24  C   UNL     1     -12.202  12.446  64.281  1.00  0.00    -0.538 C  
BRANCH  24  25
HETATM   25  C   UNL     1     -11.977  12.584  65.789  1.00  0.00    -0.482 C  
BRANCH  25  26
HETATM   26  C   UNL     1     -12.112  14.002  66.374  1.00  0.00    -0.483 C  
HETATM   27  C   UNL     1     -12.038  13.925  67.911  1.00  0.00    -0.318 C  
HETATM   28  C   UNL     1     -10.605  13.761  68.414  1.00  0.00    -0.253 C  
HETATM   29  N   UNL     1      -9.785  14.884  67.970  1.00  0.00    -0.209 NA 
HETATM   30  H   UNL     1      -8.856  14.860  68.392  1.00  0.00     0.000 HD 
HETATM   31  C   UNL     1      -9.714  14.939  66.511  1.00  0.00    -0.276 C  
HETATM   32  C   UNL     1     -11.095  15.034  65.859  1.00  0.00    -0.334 C  
ENDBRANCH  25  26
ENDBRANCH  24  25
ENDBRANCH  23  24
ENDBRANCH  22  23
ENDBRANCH  21  22
ENDBRANCH  18  21
ENDBRANCH  14  15
ENDBRANCH  10  14
ENDBRANCH   8  10
ENDBRANCH   5   8
ENDBRANCH   4   5
ENDBRANCH   3   4
ENDBRANCH   2   3
TORSDOF 13
ENDMDL
MODEL       52
REMARK 921   NORMALIZED FREE ENERGY PREDICTED BY IDOCK:   -4.96 KCAL/MOL
REMARK 922        TOTAL FREE ENERGY PREDICTED BY IDOCK:  -11.28 KCAL/MOL
REMARK 923 INTER-LIGAND FREE ENERGY PREDICTED BY IDOCK:   -9.71 KCAL/MOL
REMARK 924 INTRA-LIGAND FREE ENERGY PREDICTED BY IDOCK:   -1.57 KCAL/MOL
REMARK 927      BINDING AFFINITY PREDICTED BY RF-SCORE:    0.00 PKD
ROOT
HETATM    1  C   UNL     1      -6.865  18.343  68.176  1.00  0.00    -0.234 C  
HETATM    2  C   UNL     1      -6.602  17.261  67.132  1.00  0.00    -0.203 C  
ENDROOT
BRANCH   2   3
HETATM    3  C   UNL     1      -7.817  17.155  66.227  1.00  0.00    -0.351 C  
BRANCH   3   4
HETATM    4  C   UNL     1      -8.549  15.810  66.211  1.00  0.00    -0.272 C  
BRANCH   4   5
HETATM    5  S   UNL     1     -10.306  16.225  66.173  1.00  0.00    -0.339 S  
HETATM    6  O   UNL     1     -10.623  16.997  67.352  1.00  0.00    -0.328 OA 
HETATM    7  O   UNL     1     -10.589  16.711  64.844  1.00  0.00    -0.694 OA 
BRANCH   5   8
HETATM    8  N   UNL     1     -11.143  14.757  66.372  1.00  0.00    -0.336 N  
HETATM    9  H   UNL     1     -11.667  14.498  67.208  1.00  0.00     0.000 HD 
BRANCH   8  10
HETATM   10  C   UNL     1     -11.000  13.871  65.112  1.00  0.00    -0.350 C  
HETATM   11  C   UNL     1     -12.365  13.728  64.438  1.00  0.00    -0.344 C  
HETATM   12  O   UNL     1     -12.529  13.485  63.252  1.00  0.00    -0.763 OA 
HETATM   13  O   UNL     1     -13.399  13.903  65.300  1.00  0.00    -0.732 OA 
BRANCH  10  14
HETATM   14  C   UNL     1     -10.396  12.474  65.353  1.00  0.00    -0.305 C  
BRANCH  14  15
HETATM   15  C   UNL     1     -10.445  12.018  66.790  1.00  0.00    -0.243 A  
HETATM   16  C   UNL     1      -9.242  11.970  67.502  1.00  0.00    -0.180 A  
HETATM   17  C   UNL     1      -9.185  11.334  68.739  1.00  0.00    -0.133 A  
HETATM   18  C   UNL     1     -10.320  10.723  69.276  1.00  0.00    -0.205 A  
HETATM   19  C   UNL     1     -11.615  11.559  67.413  1.00  0.00    -0.307 A  
HETATM   20  C   UNL     1     -11.549  10.895  68.641  1.00  0.00    -0.373 A  
BRANCH  18  21
HETATM   21  O   UNL     1     -10.323   9.922  70.391  1.00  0.00    -0.273 OA 
BRANCH  21  22
HETATM   22  C   UNL     1     -11.600   9.352  70.686  1.00  0.00    -0.269 C  
BRANCH  22  23
HETATM   23  C   UNL     1     -11.586   8.626  72.020  1.00  0.00    -0.440 C  
BRANCH  23  24
HETATM   24  C   UNL     1     -11.136   7.161  71.926  1.00  0.00    -0.268 C  
BRANCH  24  25
HETATM   25  C   UNL     1     -11.552   6.608  70.561  1.00  0.00    -0.448 C  
BRANCH  25  26
HETATM   26  C   UNL     1     -10.485   5.804  69.794  1.00  0.00    -0.363 C  
HETATM   27  C   UNL     1     -10.758   5.914  68.281  1.00  0.00    -0.319 C  
HETATM   28  C   UNL     1     -10.292   7.250  67.704  1.00  0.00    -0.227 C  
HETATM   29  N   UNL     1      -8.859   7.419  67.926  1.00  0.00    -0.133 NA 
HETATM   30  H   UNL     1      -8.500   8.245  67.445  1.00  0.00     0.000 HD 
HETATM   31  C   UNL     1      -8.547   7.448  69.354  1.00  0.00    -0.134 C  
HETATM   32  C   UNL     1      -9.025   6.191  70.085  1.00  0.00    -0.149 C  
ENDBRANCH  25  26
ENDBRANCH  24  25
ENDBRANCH  23  24
ENDBRANCH  22  23
ENDBRANCH  21  22
ENDBRANCH  18  21
ENDBRANCH  14  15
ENDBRANCH  10  14
ENDBRANCH   8  10
ENDBRANCH   5   8
ENDBRANCH   4   5
ENDBRANCH   3   4
ENDBRANCH   2   3
TORSDOF 13
ENDMDL
MODEL       53
REMARK 921   NORMALIZED FREE ENERGY PREDICTED BY IDOCK:   -4.96 KCAL/MOL
REMARK 922        TOTAL FREE ENERGY PREDICTED BY IDOCK:  -11.28 KCAL/MOL
REMARK 923 INTER-LIGAND FREE ENERGY PREDICTED BY IDOCK:   -9.10 KCAL/MOL
REMARK 924 INTRA-LIGAND FREE ENERGY PREDICTED BY IDOCK:   -2.18 KCAL/MOL
REMARK 927      BINDING AFFINITY PREDICTED BY RF-SCORE:    0.00 PKD
ROOT
HETATM    1  C   UNL     1     -12.010  12.436  64.504  1.00  0.00    -0.474 C  
HETATM    2  C   UNL     1     -12.012  12.614  66.021  1.00  0.00    -0.478 C  
ENDROOT
BRANCH   2   3
HETATM    3  C   UNL     1     -10.749  11.987  66.584  1.00  0.00    -0.280 C  
BRANCH   3   4
HETATM    4  C   UNL     1     -10.843  10.522  67.020  1.00  0.00    -0.225 C  
BRANCH   4   5
HETATM    5  S   UNL     1      -9.510   9.678  66.142  1.00  0.00    -0.237 S  
HETATM    6  O   UNL     1      -9.537  10.091  64.758  1.00  0.00    -0.283 OA 
HETATM    7  O   UNL     1      -8.327   9.812  66.956  1.00  0.00    -0.117 OA 
BRANCH   5   8
HETATM    8  N   UNL     1      -9.931   8.030  66.115  1.00  0.00    -0.466 N  
HETATM    9  H   UNL     1     -10.619   7.617  65.485  1.00  0.00     0.000 HD 
BRANCH   8  10
HETATM   10  C   UNL     1      -9.128   7.243  67.177  1.00  0.00    -0.130 C  
HETATM   11  C   UNL     1      -8.022   6.445  66.484  1.00  0.00    -0.109 C  
HETATM   12  O   UNL     1      -6.986   6.088  67.023  1.00  0.00    -0.065 OA 
HETATM   13  O   UNL     1      -8.307   6.167  65.187  1.00  0.00    -0.142 OA 
BRANCH  10  14
HETATM   14  C   UNL     1      -9.959   6.303  68.070  1.00  0.00    -0.149 C  
BRANCH  14  15
HETATM   15  C   UNL     1     -10.387   6.911  69.382  1.00  0.00    -0.220 A  
HETATM   16  C   UNL     1     -11.512   6.374  70.017  1.00  0.00    -0.496 A  
HETATM   17  C   UNL     1     -12.094   7.040  71.092  1.00  0.00    -0.412 A  
HETATM   18  C   UNL     1     -11.573   8.256  71.540  1.00  0.00    -0.279 A  
HETATM   19  C   UNL     1      -9.767   8.036  69.947  1.00  0.00    -0.180 A  
HETATM   20  C   UNL     1     -10.370   8.717  71.008  1.00  0.00    -0.297 A  
BRANCH  18  21
HETATM   21  O   UNL     1     -12.178   9.071  72.464  1.00  0.00    -0.304 OA 
BRANCH  21  22
HETATM   22  C   UNL     1     -13.366   9.703  71.983  1.00  0.00    -0.457 C  
BRANCH  22  23
HETATM   23  C   UNL     1     -13.118  11.165  71.653  1.00  0.00    -0.529 C  
BRANCH  23  24
HETATM   24  C   UNL     1     -12.640  11.406  70.214  1.00  0.00    -0.225 C  
BRANCH  24  25
HETATM   25  C   UNL     1     -11.747  12.650  70.197  1.00  0.00    -0.247 C  
BRANCH  25  26
HETATM   26  C   UNL     1     -12.395  13.950  69.685  1.00  0.00    -0.301 C  
HETATM   27  C   UNL     1     -13.129  14.643  70.850  1.00  0.00    -0.416 C  
HETATM   28  C   UNL     1     -12.169  15.385  71.779  1.00  0.00    -0.379 C  
HETATM   29  N   UNL     1     -11.431  16.399  71.032  1.00  0.00    -0.556 NA 
HETATM   30  H   UNL     1     -10.873  16.988  71.651  1.00  0.00     0.000 HD 
HETATM   31  C   UNL     1     -10.613  15.790  69.984  1.00  0.00    -0.326 C  
HETATM   32  C   UNL     1     -11.440  14.948  69.010  1.00  0.00    -0.322 C  
ENDBRANCH  25  26
ENDBRANCH  24  25
ENDBRANCH  23  24
ENDBRANCH  22  23
ENDBRANCH  21  22
ENDBRANCH  18  21
ENDBRANCH  14  15
ENDBRANCH  10  14
ENDBRANCH   8  10
ENDBRANCH   5   8
ENDBRANCH   4   5
ENDBRANCH   3   4
ENDBRANCH   2   3
TORSDOF 13
ENDMDL
MODEL       54
REMARK 921   NORMALIZED FREE ENERGY PREDICTED BY IDOCK:   -4.95 KCAL/MOL
REMARK 922        TOTAL FREE ENERGY PREDICTED BY IDOCK:  -11.26 KCAL/MOL
REMARK 923 INTER-LIGAND FREE ENERGY PREDICTED BY IDOCK:   -9.11 KCAL/MOL
REMARK 924 INTRA-LIGAND FREE ENERGY PREDICTED BY IDOCK:   -2.15 KCAL/MOL
REMARK 927      BINDING AFFINITY PREDICTED BY RF-SCORE:    0.00 PKD
ROOT
HETATM    1  C   UNL     1     -12.512  12.015  63.432  1.00  0.00    -0.625 C  
HETATM    2  C   UNL     1     -11.250  11.967  64.290  1.00  0.00    -0.424 C  
ENDROOT
BRANCH   2   3
HETATM    3  C   UNL     1     -10.595  13.337  64.265  1.00  0.00    -0.402 C  
BRANCH   3   4
HETATM    4  C   UNL     1     -11.454  14.519  64.722  1.00  0.00    -0.408 C  
BRANCH   4   5
HETATM    5  S   UNL     1     -10.451  15.390  65.945  1.00  0.00    -0.363 S  
HETATM    6  O   UNL     1      -9.915  16.584  65.336  1.00  0.00    -0.552 OA 
HETATM    7  O   UNL     1     -11.226  15.435  67.162  1.00  0.00    -0.326 OA 
BRANCH   5   8
HETATM    8  N   UNL     1      -9.098  14.401  66.237  1.00  0.00    -0.491 N  
HETATM    9  H   UNL     1      -8.561  13.925  65.511  1.00  0.00     0.000 HD 
BRANCH   8  10
HETATM   10  C   UNL     1      -8.793  14.321  67.751  1.00  0.00    -0.185 C  
HETATM   11  C   UNL     1      -7.797  15.421  68.123  1.00  0.00    -0.124 C  
HETATM   12  O   UNL     1      -7.687  15.905  69.240  1.00  0.00    -0.208 OA 
HETATM   13  O   UNL     1      -7.033  15.817  67.074  1.00  0.00    -0.197 OA 
BRANCH  10  14
HETATM   14  C   UNL     1      -8.269  12.962  68.249  1.00  0.00    -0.153 C  
BRANCH  14  15
HETATM   15  C   UNL     1      -8.932  11.769  67.607  1.00  0.00    -0.169 A  
HETATM   16  C   UNL     1     -10.184  11.376  68.092  1.00  0.00    -0.200 A  
HETATM   17  C   UNL     1     -10.730  10.153  67.712  1.00  0.00    -0.328 A  
HETATM   18  C   UNL     1     -10.031   9.299  66.856  1.00  0.00    -0.233 A  
HETATM   19  C   UNL     1      -8.320  10.989  66.614  1.00  0.00    -0.155 A  
HETATM   20  C   UNL     1      -8.856   9.750  66.257  1.00  0.00    -0.165 A  
BRANCH  18  21
HETATM   21  O   UNL     1     -10.399   8.008  66.571  1.00  0.00    -0.260 OA 
BRANCH  21  22
HETATM   22  C   UNL     1      -9.817   7.038  67.445  1.00  0.00    -0.154 C  
BRANCH  22  23
HETATM   23  C   UNL     1     -10.870   6.097  68.005  1.00  0.00    -0.398 C  
BRANCH  23  24
HETATM   24  C   UNL     1     -11.266   6.398  69.457  1.00  0.00    -0.477 C  
BRANCH  24  25
HETATM   25  C   UNL     1     -10.206   7.316  70.073  1.00  0.00    -0.206 C  
BRANCH  25  26
HETATM   26  C   UNL     1     -10.368   7.640  71.569  1.00  0.00    -0.223 C  
HETATM   27  C   UNL     1     -10.531   9.163  71.743  1.00  0.00    -0.361 C  
HETATM   28  C   UNL     1     -11.942   9.637  71.399  1.00  0.00    -0.399 C  
HETATM   29  N   UNL     1     -12.918   8.971  72.254  1.00  0.00    -0.413 NA 
HETATM   30  H   UNL     1     -13.854   9.357  72.128  1.00  0.00     0.000 HD 
HETATM   31  C   UNL     1     -12.900   7.523  72.045  1.00  0.00    -0.195 C  
HETATM   32  C   UNL     1     -11.518   6.913  72.287  1.00  0.00    -0.313 C  
ENDBRANCH  25  26
ENDBRANCH  24  25
ENDBRANCH  23  24
ENDBRANCH  22  23
ENDBRANCH  21  22
ENDBRANCH  18  21
ENDBRANCH  14  15
ENDBRANCH  10  14
ENDBRANCH   8  10
ENDBRANCH   5   8
ENDBRANCH   4   5
ENDBRANCH   3   4
ENDBRANCH   2   3
TORSDOF 13
ENDMDL
MODEL       55
REMARK 921   NORMALIZED FREE ENERGY PREDICTED BY IDOCK:   -4.94 KCAL/MOL
REMARK 922        TOTAL FREE ENERGY PREDICTED BY IDOCK:  -11.25 KCAL/MOL
REMARK 923 INTER-LIGAND FREE ENERGY PREDICTED BY IDOCK:   -9.29 KCAL/MOL
REMARK 924 INTRA-LIGAND FREE ENERGY PREDICTED BY IDOCK:   -1.96 KCAL/MOL
REMARK 927      BINDING AFFINITY PREDICTED BY RF-SCORE:    0.00 PKD
ROOT
HETATM    1  C   UNL     1     -12.555  13.210  71.008  1.00  0.00    -0.397 C  
HETATM    2  C   UNL     1     -13.228  12.186  71.919  1.00  0.00    -0.474 C  
ENDROOT
BRANCH   2   3
HETATM    3  C   UNL     1     -12.801  10.796  71.483  1.00  0.00    -0.567 C  
BRANCH   3   4
HETATM    4  C   UNL     1     -13.443   9.616  72.219  1.00  0.00    -0.400 C  
BRANCH   4   5
HETATM    5  S   UNL     1     -12.399   8.193  71.835  1.00  0.00    -0.349 S  
HETATM    6  O   UNL     1     -11.371   8.090  72.844  1.00  0.00    -0.408 OA 
HETATM    7  O   UNL     1     -13.288   7.096  71.535  1.00  0.00    -0.383 OA 
BRANCH   5   8
HETATM    8  N   UNL     1     -11.571   8.588  70.402  1.00  0.00    -0.460 N  
HETATM    9  H   UNL     1     -11.994   9.046  69.595  1.00  0.00     0.000 HD 
BRANCH   8  10
HETATM   10  C   UNL     1     -10.087   8.157  70.492  1.00  0.00    -0.192 C  
HETATM   11  C   UNL     1      -9.198   9.399  70.424  1.00  0.00    -0.257 C  
HETATM   12  O   UNL     1      -8.069   9.467  70.887  1.00  0.00    -0.297 OA 
HETATM   13  O   UNL     1      -9.793  10.441  69.790  1.00  0.00    -0.198 OA 
BRANCH  10  14
HETATM   14  C   UNL     1      -9.631   7.138  69.431  1.00  0.00    -0.153 C  
BRANCH  14  15
HETATM   15  C   UNL     1      -9.337   7.739  68.080  1.00  0.00    -0.146 A  
HETATM   16  C   UNL     1      -7.999   7.954  67.736  1.00  0.00    -0.124 A  
HETATM   17  C   UNL     1      -7.677   8.720  66.619  1.00  0.00    -0.093 A  
HETATM   18  C   UNL     1      -8.682   9.295  65.838  1.00  0.00    -0.154 A  
HETATM   19  C   UNL     1     -10.337   8.169  67.195  1.00  0.00    -0.391 A  
HETATM   20  C   UNL     1     -10.012   8.962  66.090  1.00  0.00    -0.290 A  
BRANCH  18  21
HETATM   21  O   UNL     1      -8.467  10.207  64.835  1.00  0.00    -0.156 OA 
BRANCH  21  22
HETATM   22  C   UNL     1      -9.412  10.118  63.766  1.00  0.00    -0.275 C  
BRANCH  22  23
HETATM   23  C   UNL     1      -9.664  11.478  63.139  1.00  0.00    -0.412 C  
BRANCH  23  24
HETATM   24  C   UNL     1     -10.976  12.136  63.587  1.00  0.00    -0.527 C  
BRANCH  24  25
HETATM   25  C   UNL     1     -10.662  13.155  64.687  1.00  0.00    -0.398 C  
BRANCH  25  26
HETATM   26  C   UNL     1     -10.783  12.653  66.138  1.00  0.00    -0.293 C  
HETATM   27  C   UNL     1      -9.432  12.842  66.854  1.00  0.00    -0.237 C  
HETATM   28  C   UNL     1      -9.202  14.291  67.282  1.00  0.00    -0.214 C  
HETATM   29  N   UNL     1     -10.264  14.722  68.185  1.00  0.00    -0.225 NA 
HETATM   30  H   UNL     1     -10.070  15.643  68.580  1.00  0.00     0.000 HD 
HETATM   31  C   UNL     1     -11.567  14.683  67.522  1.00  0.00    -0.375 C  
HETATM   32  C   UNL     1     -11.904  13.296  66.973  1.00  0.00    -0.442 C  
ENDBRANCH  25  26
ENDBRANCH  24  25
ENDBRANCH  23  24
ENDBRANCH  22  23
ENDBRANCH  21  22
ENDBRANCH  18  21
ENDBRANCH  14  15
ENDBRANCH  10  14
ENDBRANCH   8  10
ENDBRANCH   5   8
ENDBRANCH   4   5
ENDBRANCH   3   4
ENDBRANCH   2   3
TORSDOF 13
ENDMDL
MODEL       56
REMARK 921   NORMALIZED FREE ENERGY PREDICTED BY IDOCK:   -4.94 KCAL/MOL
REMARK 922        TOTAL FREE ENERGY PREDICTED BY IDOCK:  -11.23 KCAL/MOL
REMARK 923 INTER-LIGAND FREE ENERGY PREDICTED BY IDOCK:   -9.55 KCAL/MOL
REMARK 924 INTRA-LIGAND FREE ENERGY PREDICTED BY IDOCK:   -1.68 KCAL/MOL
REMARK 927      BINDING AFFINITY PREDICTED BY RF-SCORE:    0.00 PKD
ROOT
HETATM    1  C   UNL     1     -14.159   8.626  71.955  1.00  0.00    -0.512 C  
HETATM    2  C   UNL     1     -13.682   7.255  71.481  1.00  0.00    -0.451 C  
ENDROOT
BRANCH   2   3
HETATM    3  C   UNL     1     -12.164   7.260  71.433  1.00  0.00    -0.384 C  
BRANCH   3   4
HETATM    4  C   UNL     1     -11.454   8.355  72.235  1.00  0.00    -0.384 C  
BRANCH   4   5
HETATM    5  S   UNL     1      -9.763   8.385  71.602  1.00  0.00    -0.246 S  
HETATM    6  O   UNL     1      -8.880   8.801  72.666  1.00  0.00    -0.394 OA 
HETATM    7  O   UNL     1      -9.566   7.148  70.885  1.00  0.00    -0.167 OA 
BRANCH   5   8
HETATM    8  N   UNL     1      -9.707   9.651  70.466  1.00  0.00    -0.305 N  
HETATM    9  H   UNL     1      -9.764  10.642  70.699  1.00  0.00     0.000 HD 
BRANCH   8  10
HETATM   10  C   UNL     1      -9.557   9.092  69.031  1.00  0.00    -0.156 C  
HETATM   11  C   UNL     1      -8.346   9.743  68.361  1.00  0.00    -0.110 C  
HETATM   12  O   UNL     1      -7.708   9.241  67.448  1.00  0.00    -0.094 OA 
HETATM   13  O   UNL     1      -8.040  10.956  68.888  1.00  0.00    -0.136 OA 
BRANCH  10  14
HETATM   14  C   UNL     1     -10.794   9.252  68.128  1.00  0.00    -0.145 C  
BRANCH  14  15
HETATM   15  C   UNL     1     -11.182  10.684  67.857  1.00  0.00    -0.376 A  
HETATM   16  C   UNL     1     -10.943  11.196  66.577  1.00  0.00    -0.270 A  
HETATM   17  C   UNL     1     -11.053  12.563  66.338  1.00  0.00    -0.332 A  
HETATM   18  C   UNL     1     -11.387  13.440  67.372  1.00  0.00    -0.309 A  
HETATM   19  C   UNL     1     -11.688  11.544  68.842  1.00  0.00    -0.403 A  
HETATM   20  C   UNL     1     -11.769  12.919  68.607  1.00  0.00    -0.359 A  
BRANCH  18  21
HETATM   21  O   UNL     1     -11.342  14.809  67.280  1.00  0.00    -0.335 OA 
BRANCH  21  22
HETATM   22  C   UNL     1     -10.015  15.340  67.266  1.00  0.00    -0.226 C  
BRANCH  22  23
HETATM   23  C   UNL     1      -9.638  15.920  68.618  1.00  0.00    -0.209 C  
BRANCH  23  24
HETATM   24  C   UNL     1     -10.811  16.568  69.367  1.00  0.00    -0.311 C  
BRANCH  24  25
HETATM   25  C   UNL     1     -10.918  15.929  70.755  1.00  0.00    -0.271 C  
BRANCH  25  26
HETATM   26  C   UNL     1     -12.152  16.315  71.591  1.00  0.00    -0.354 C  
HETATM   27  C   UNL     1     -13.329  15.395  71.213  1.00  0.00    -0.598 C  
HETATM   28  C   UNL     1     -13.215  14.015  71.858  1.00  0.00    -0.395 C  
HETATM   29  N   UNL     1     -13.180  14.141  73.312  1.00  0.00    -0.492 NA 
HETATM   30  H   UNL     1     -13.226  13.230  73.769  1.00  0.00     0.000 HD 
HETATM   31  C   UNL     1     -12.011  14.905  73.746  1.00  0.00    -0.266 C  
HETATM   32  C   UNL     1     -11.953  16.298  73.116  1.00  0.00    -0.562 C  
ENDBRANCH  25  26
ENDBRANCH  24  25
ENDBRANCH  23  24
ENDBRANCH  22  23
ENDBRANCH  21  22
ENDBRANCH  18  21
ENDBRANCH  14  15
ENDBRANCH  10  14
ENDBRANCH   8  10
ENDBRANCH   5   8
ENDBRANCH   4   5
ENDBRANCH   3   4
ENDBRANCH   2   3
TORSDOF 13
ENDMDL
MODEL       57
REMARK 921   NORMALIZED FREE ENERGY PREDICTED BY IDOCK:   -4.94 KCAL/MOL
REMARK 922        TOTAL FREE ENERGY PREDICTED BY IDOCK:  -11.23 KCAL/MOL
REMARK 923 INTER-LIGAND FREE ENERGY PREDICTED BY IDOCK:   -8.36 KCAL/MOL
REMARK 924 INTRA-LIGAND FREE ENERGY PREDICTED BY IDOCK:   -2.87 KCAL/MOL
REMARK 927      BINDING AFFINITY PREDICTED BY RF-SCORE:    0.00 PKD
ROOT
HETATM    1  C   UNL     1     -11.674  12.122  63.653  1.00  0.00    -0.588 C  
HETATM    2  C   UNL     1     -11.351  13.081  64.797  1.00  0.00    -0.348 C  
ENDROOT
BRANCH   2   3
HETATM    3  C   UNL     1     -11.711  12.407  66.109  1.00  0.00    -0.460 C  
BRANCH   3   4
HETATM    4  C   UNL     1     -10.653  12.448  67.216  1.00  0.00    -0.223 C  
BRANCH   4   5
HETATM    5  S   UNL     1     -11.043  11.055  68.297  1.00  0.00    -0.282 S  
HETATM    6  O   UNL     1      -9.876  10.745  69.090  1.00  0.00    -0.209 OA 
HETATM    7  O   UNL     1     -12.321  11.344  68.901  1.00  0.00    -0.446 OA 
BRANCH   5   8
HETATM    8  N   UNL     1     -11.250   9.709  67.277  1.00  0.00    -0.225 N  
HETATM    9  H   UNL     1     -12.088   9.522  66.726  1.00  0.00     0.000 HD 
BRANCH   8  10
HETATM   10  C   UNL     1      -9.993   8.807  67.299  1.00  0.00    -0.220 C  
HETATM   11  C   UNL     1      -9.108   9.147  66.099  1.00  0.00    -0.187 C  
HETATM   12  O   UNL     1      -7.902   8.957  66.054  1.00  0.00    -0.099 OA 
HETATM   13  O   UNL     1      -9.803   9.692  65.069  1.00  0.00    -0.268 OA 
BRANCH  10  14
HETATM   14  C   UNL     1     -10.269   7.292  67.323  1.00  0.00    -0.323 C  
BRANCH  14  15
HETATM   15  C   UNL     1      -9.538   6.547  68.412  1.00  0.00    -0.122 A  
HETATM   16  C   UNL     1     -10.061   5.318  68.828  1.00  0.00    -0.248 A  
HETATM   17  C   UNL     1      -9.578   4.705  69.981  1.00  0.00    -0.259 A  
HETATM   18  C   UNL     1      -8.579   5.314  70.744  1.00  0.00    -0.130 A  
HETATM   19  C   UNL     1      -8.419   7.063  69.081  1.00  0.00    -0.129 A  
HETATM   20  C   UNL     1      -7.955   6.461  70.254  1.00  0.00    -0.112 A  
BRANCH  18  21
HETATM   21  O   UNL     1      -8.169   4.884  71.981  1.00  0.00    -0.110 OA 
BRANCH  21  22
HETATM   22  C   UNL     1      -9.133   5.104  73.013  1.00  0.00    -0.124 C  
BRANCH  22  23
HETATM   23  C   UNL     1      -8.789   6.333  73.837  1.00  0.00    -0.131 C  
BRANCH  23  24
HETATM   24  C   UNL     1      -9.794   7.483  73.687  1.00  0.00    -0.348 C  
BRANCH  24  25
HETATM   25  C   UNL     1     -11.015   6.970  72.919  1.00  0.00    -0.337 C  
BRANCH  25  26
HETATM   26  C   UNL     1     -11.300   7.638  71.561  1.00  0.00    -0.286 C  
HETATM   27  C   UNL     1     -12.488   6.926  70.886  1.00  0.00    -0.314 C  
HETATM   28  C   UNL     1     -13.831   7.355  71.476  1.00  0.00    -0.374 C  
HETATM   29  N   UNL     1     -14.011   8.794  71.322  1.00  0.00    -0.585 NA 
HETATM   30  H   UNL     1     -14.948   9.088  71.599  1.00  0.00     0.000 HD 
HETATM   31  C   UNL     1     -12.979   9.534  72.048  1.00  0.00    -0.426 C  
HETATM   32  C   UNL     1     -11.564   9.152  71.608  1.00  0.00    -0.449 C  
ENDBRANCH  25  26
ENDBRANCH  24  25
ENDBRANCH  23  24
ENDBRANCH  22  23
ENDBRANCH  21  22
ENDBRANCH  18  21
ENDBRANCH  14  15
ENDBRANCH  10  14
ENDBRANCH   8  10
ENDBRANCH   5   8
ENDBRANCH   4   5
ENDBRANCH   3   4
ENDBRANCH   2   3
TORSDOF 13
ENDMDL
MODEL       58
REMARK 921   NORMALIZED FREE ENERGY PREDICTED BY IDOCK:   -4.93 KCAL/MOL
REMARK 922        TOTAL FREE ENERGY PREDICTED BY IDOCK:  -11.22 KCAL/MOL
REMARK 923 INTER-LIGAND FREE ENERGY PREDICTED BY IDOCK:   -9.99 KCAL/MOL
REMARK 924 INTRA-LIGAND FREE ENERGY PREDICTED BY IDOCK:   -1.23 KCAL/MOL
REMARK 927      BINDING AFFINITY PREDICTED BY RF-SCORE:    0.00 PKD
ROOT
HETATM    1  C   UNL     1     -11.079   2.978  73.488  1.00  0.00    -0.317 C  
HETATM    2  C   UNL     1     -10.745   4.387  73.972  1.00  0.00    -0.334 C  
ENDROOT
BRANCH   2   3
HETATM    3  C   UNL     1     -11.244   5.384  72.940  1.00  0.00    -0.372 C  
BRANCH   3   4
HETATM    4  C   UNL     1     -10.780   6.834  73.104  1.00  0.00    -0.296 C  
BRANCH   4   5
HETATM    5  S   UNL     1     -11.388   7.695  71.637  1.00  0.00    -0.260 S  
HETATM    6  O   UNL     1     -12.336   6.841  70.961  1.00  0.00    -0.378 OA 
HETATM    7  O   UNL     1     -11.728   9.034  72.054  1.00  0.00    -0.357 OA 
BRANCH   5   8
HETATM    8  N   UNL     1     -10.065   7.809  70.574  1.00  0.00    -0.192 N  
HETATM    9  H   UNL     1      -9.111   7.528  70.803  1.00  0.00     0.000 HD 
BRANCH   8  10
HETATM   10  C   UNL     1     -10.505   8.398  69.213  1.00  0.00    -0.215 C  
HETATM   11  C   UNL     1     -10.372   7.324  68.132  1.00  0.00    -0.194 C  
HETATM   12  O   UNL     1     -11.015   7.305  67.093  1.00  0.00    -0.327 OA 
HETATM   13  O   UNL     1      -9.455   6.374  68.444  1.00  0.00    -0.121 OA 
BRANCH  10  14
HETATM   14  C   UNL     1      -9.757   9.670  68.771  1.00  0.00    -0.167 C  
BRANCH  14  15
HETATM   15  C   UNL     1     -10.646  10.745  68.199  1.00  0.00    -0.238 A  
HETATM   16  C   UNL     1     -10.759  10.830  66.807  1.00  0.00    -0.291 A  
HETATM   17  C   UNL     1     -11.362  11.938  66.219  1.00  0.00    -0.394 A  
HETATM   18  C   UNL     1     -11.847  12.984  67.007  1.00  0.00    -0.377 A  
HETATM   19  C   UNL     1     -11.291  11.710  68.986  1.00  0.00    -0.337 A  
HETATM   20  C   UNL     1     -11.870  12.836  68.393  1.00  0.00    -0.353 A  
BRANCH  18  21
HETATM   21  O   UNL     1     -12.289  14.189  66.521  1.00  0.00    -0.460 OA 
BRANCH  21  22
HETATM   22  C   UNL     1     -11.336  14.857  65.691  1.00  0.00    -0.325 C  
BRANCH  22  23
HETATM   23  C   UNL     1     -10.243  15.509  66.520  1.00  0.00    -0.291 C  
BRANCH  23  24
HETATM   24  C   UNL     1     -10.770  16.365  67.681  1.00  0.00    -0.312 C  
BRANCH  24  25
HETATM   25  C   UNL     1      -9.624  17.233  68.208  1.00  0.00    -0.288 C  
BRANCH  25  26
HETATM   26  C   UNL     1      -9.924  18.734  68.376  1.00  0.00    -0.441 C  
HETATM   27  C   UNL     1      -8.600  19.522  68.338  1.00  0.00    -0.389 C  
HETATM   28  C   UNL     1      -8.072  19.698  66.915  1.00  0.00    -0.287 C  
HETATM   29  N   UNL     1      -9.052  20.408  66.100  1.00  0.00    -0.603 NA 
HETATM   30  H   UNL     1      -8.676  20.644  65.181  1.00  0.00     0.000 HD 
HETATM   31  C   UNL     1     -10.297  19.648  65.994  1.00  0.00    -0.523 C  
HETATM   32  C   UNL     1     -10.911  19.332  67.360  1.00  0.00    -0.554 C  
ENDBRANCH  25  26
ENDBRANCH  24  25
ENDBRANCH  23  24
ENDBRANCH  22  23
ENDBRANCH  21  22
ENDBRANCH  18  21
ENDBRANCH  14  15
ENDBRANCH  10  14
ENDBRANCH   8  10
ENDBRANCH   5   8
ENDBRANCH   4   5
ENDBRANCH   3   4
ENDBRANCH   2   3
TORSDOF 13
ENDMDL
MODEL       59
REMARK 921   NORMALIZED FREE ENERGY PREDICTED BY IDOCK:   -4.91 KCAL/MOL
REMARK 922        TOTAL FREE ENERGY PREDICTED BY IDOCK:  -11.18 KCAL/MOL
REMARK 923 INTER-LIGAND FREE ENERGY PREDICTED BY IDOCK:   -9.82 KCAL/MOL
REMARK 924 INTRA-LIGAND FREE ENERGY PREDICTED BY IDOCK:   -1.36 KCAL/MOL
REMARK 927      BINDING AFFINITY PREDICTED BY RF-SCORE:    0.00 PKD
ROOT
HETATM    1  C   UNL     1     -10.529  18.646  67.646  1.00  0.00    -0.468 C  
HETATM    2  C   UNL     1      -9.850  17.308  67.362  1.00  0.00    -0.272 C  
ENDROOT
BRANCH   2   3
HETATM    3  C   UNL     1     -10.485  16.696  66.126  1.00  0.00    -0.291 C  
BRANCH   3   4
HETATM    4  C   UNL     1     -10.753  15.188  66.164  1.00  0.00    -0.325 C  
BRANCH   4   5
HETATM    5  S   UNL     1     -11.840  14.864  64.758  1.00  0.00    -0.339 S  
HETATM    6  O   UNL     1     -13.079  14.309  65.252  1.00  0.00    -0.707 OA 
HETATM    7  O   UNL     1     -11.808  16.044  63.929  1.00  0.00    -0.810 OA 
BRANCH   5   8
HETATM    8  N   UNL     1     -11.112  13.600  63.881  1.00  0.00    -0.533 N  
HETATM    9  H   UNL     1     -11.040  13.568  62.864  1.00  0.00     0.000 HD 
BRANCH   8  10
HETATM   10  C   UNL     1     -10.575  12.509  64.836  1.00  0.00    -0.301 C  
HETATM   11  C   UNL     1      -9.697  11.536  64.048  1.00  0.00    -0.223 C  
HETATM   12  O   UNL     1      -8.806  10.857  64.536  1.00  0.00    -0.162 OA 
HETATM   13  O   UNL     1     -10.006  11.499  62.727  1.00  0.00    -0.275 OA 
BRANCH  10  14
HETATM   14  C   UNL     1     -11.650  11.722  65.609  1.00  0.00    -0.190 C  
BRANCH  14  15
HETATM   15  C   UNL     1     -11.320  11.485  67.062  1.00  0.00    -0.340 A  
HETATM   16  C   UNL     1     -10.699  10.279  67.404  1.00  0.00    -0.339 A  
HETATM   17  C   UNL     1     -10.591   9.901  68.739  1.00  0.00    -0.246 A  
HETATM   18  C   UNL     1     -11.114  10.710  69.751  1.00  0.00    -0.295 A  
HETATM   19  C   UNL     1     -11.683  12.370  68.088  1.00  0.00    -0.408 A  
HETATM   20  C   UNL     1     -11.600  11.975  69.425  1.00  0.00    -0.393 A  
BRANCH  18  21
HETATM   21  O   UNL     1     -11.220  10.342  71.069  1.00  0.00    -0.315 OA 
BRANCH  21  22
HETATM   22  C   UNL     1     -12.069   9.213  71.284  1.00  0.00    -0.323 C  
BRANCH  22  23
HETATM   23  C   UNL     1     -11.310   8.065  71.928  1.00  0.00    -0.336 C  
BRANCH  23  24
HETATM   24  C   UNL     1     -11.801   6.676  71.498  1.00  0.00    -0.387 C  
BRANCH  24  25
HETATM   25  C   UNL     1     -11.543   6.508  69.998  1.00  0.00    -0.455 C  
BRANCH  25  26
HETATM   26  C   UNL     1     -10.420   5.532  69.601  1.00  0.00    -0.379 C  
HETATM   27  C   UNL     1     -10.429   5.343  68.072  1.00  0.00    -0.192 C  
HETATM   28  C   UNL     1      -9.783   6.519  67.340  1.00  0.00    -0.126 C  
HETATM   29  N   UNL     1      -8.399   6.682  67.775  1.00  0.00    -0.122 NA 
HETATM   30  H   UNL     1      -7.910   7.381  67.216  1.00  0.00     0.000 HD 
HETATM   31  C   UNL     1      -8.329   6.988  69.203  1.00  0.00    -0.125 C  
HETATM   32  C   UNL     1      -9.006   5.920  70.066  1.00  0.00    -0.146 C  
ENDBRANCH  25  26
ENDBRANCH  24  25
ENDBRANCH  23  24
ENDBRANCH  22  23
ENDBRANCH  21  22
ENDBRANCH  18  21
ENDBRANCH  14  15
ENDBRANCH  10  14
ENDBRANCH   8  10
ENDBRANCH   5   8
ENDBRANCH   4   5
ENDBRANCH   3   4
ENDBRANCH   2   3
TORSDOF 13
ENDMDL
MODEL       60
REMARK 921   NORMALIZED FREE ENERGY PREDICTED BY IDOCK:   -4.90 KCAL/MOL
REMARK 922        TOTAL FREE ENERGY PREDICTED BY IDOCK:  -11.17 KCAL/MOL
REMARK 923 INTER-LIGAND FREE ENERGY PREDICTED BY IDOCK:   -8.91 KCAL/MOL
REMARK 924 INTRA-LIGAND FREE ENERGY PREDICTED BY IDOCK:   -2.26 KCAL/MOL
REMARK 927      BINDING AFFINITY PREDICTED BY RF-SCORE:    0.00 PKD
ROOT
HETATM    1  C   UNL     1     -12.082  14.336  64.543  1.00  0.00    -0.499 C  
HETATM    2  C   UNL     1     -10.653  14.264  65.077  1.00  0.00    -0.444 C  
ENDROOT
BRANCH   2   3
HETATM    3  C   UNL     1     -10.303  15.602  65.704  1.00  0.00    -0.408 C  
BRANCH   3   4
HETATM    4  C   UNL     1      -9.112  15.619  66.668  1.00  0.00    -0.282 C  
BRANCH   4   5
HETATM    5  S   UNL     1      -9.599  16.734  68.002  1.00  0.00    -0.239 S  
HETATM    6  O   UNL     1      -8.420  17.410  68.492  1.00  0.00    -0.261 OA 
HETATM    7  O   UNL     1     -10.756  17.459  67.536  1.00  0.00    -0.347 OA 
BRANCH   5   8
HETATM    8  N   UNL     1     -10.101  15.740  69.289  1.00  0.00    -0.237 N  
HETATM    9  H   UNL     1      -9.473  15.312  69.969  1.00  0.00     0.000 HD 
BRANCH   8  10
HETATM   10  C   UNL     1     -11.639  15.575  69.285  1.00  0.00    -0.357 C  
HETATM   11  C   UNL     1     -12.152  15.597  70.725  1.00  0.00    -0.412 C  
HETATM   12  O   UNL     1     -13.284  15.921  71.051  1.00  0.00    -0.519 OA 
HETATM   13  O   UNL     1     -11.211  15.216  71.626  1.00  0.00    -0.373 OA 
BRANCH  10  14
HETATM   14  C   UNL     1     -12.166  14.317  68.570  1.00  0.00    -0.194 C  
BRANCH  14  15
HETATM   15  C   UNL     1     -11.610  13.021  69.104  1.00  0.00    -0.368 A  
HETATM   16  C   UNL     1     -10.466  12.497  68.492  1.00  0.00    -0.246 A  
HETATM   17  C   UNL     1     -10.052  11.199  68.776  1.00  0.00    -0.211 A  
HETATM   18  C   UNL     1     -10.779  10.399  69.661  1.00  0.00    -0.265 A  
HETATM   19  C   UNL     1     -12.229  12.279  70.121  1.00  0.00    -0.302 A  
HETATM   20  C   UNL     1     -11.828  10.966  70.383  1.00  0.00    -0.449 A  
BRANCH  18  21
HETATM   21  O   UNL     1     -10.558   9.060  69.865  1.00  0.00    -0.217 OA 
BRANCH  21  22
HETATM   22  C   UNL     1      -9.487   8.529  69.082  1.00  0.00    -0.154 C  
BRANCH  22  23
HETATM   23  C   UNL     1      -9.985   7.475  68.108  1.00  0.00    -0.198 C  
BRANCH  23  24
HETATM   24  C   UNL     1     -10.623   8.053  66.837  1.00  0.00    -0.324 C  
BRANCH  24  25
HETATM   25  C   UNL     1      -9.508   8.432  65.859  1.00  0.00    -0.169 C  
BRANCH  25  26
HETATM   26  C   UNL     1      -9.276   9.938  65.635  1.00  0.00    -0.245 C  
HETATM   27  C   UNL     1      -7.800  10.272  65.926  1.00  0.00    -0.139 C  
HETATM   28  C   UNL     1      -6.879   9.871  64.774  1.00  0.00    -0.129 C  
HETATM   29  N   UNL     1      -7.274  10.563  63.551  1.00  0.00    -0.337 NA 
HETATM   30  H   UNL     1      -6.604  10.406  62.798  1.00  0.00     0.000 HD 
HETATM   31  C   UNL     1      -8.631  10.191  63.151  1.00  0.00    -0.193 C  
HETATM   32  C   UNL     1      -9.663  10.472  64.246  1.00  0.00    -0.391 C  
ENDBRANCH  25  26
ENDBRANCH  24  25
ENDBRANCH  23  24
ENDBRANCH  22  23
ENDBRANCH  21  22
ENDBRANCH  18  21
ENDBRANCH  14  15
ENDBRANCH  10  14
ENDBRANCH   8  10
ENDBRANCH   5   8
ENDBRANCH   4   5
ENDBRANCH   3   4
ENDBRANCH   2   3
TORSDOF 13
ENDMDL
MODEL       61
REMARK 921   NORMALIZED FREE ENERGY PREDICTED BY IDOCK:   -4.90 KCAL/MOL
REMARK 922        TOTAL FREE ENERGY PREDICTED BY IDOCK:  -11.17 KCAL/MOL
REMARK 923 INTER-LIGAND FREE ENERGY PREDICTED BY IDOCK:   -9.81 KCAL/MOL
REMARK 924 INTRA-LIGAND FREE ENERGY PREDICTED BY IDOCK:   -1.36 KCAL/MOL
REMARK 927      BINDING AFFINITY PREDICTED BY RF-SCORE:    0.00 PKD
ROOT
HETATM    1  C   UNL     1     -13.028  15.018  73.419  1.00  0.00    -0.622 C  
HETATM    2  C   UNL     1     -13.388  13.932  72.408  1.00  0.00    -0.629 C  
ENDROOT
BRANCH   2   3
HETATM    3  C   UNL     1     -12.645  14.210  71.113  1.00  0.00    -0.439 C  
BRANCH   3   4
HETATM    4  C   UNL     1     -11.433  15.143  71.202  1.00  0.00    -0.343 C  
BRANCH   4   5
HETATM    5  S   UNL     1     -10.652  15.062  69.575  1.00  0.00    -0.238 S  
HETATM    6  O   UNL     1     -11.528  15.689  68.613  1.00  0.00    -0.338 OA 
HETATM    7  O   UNL     1      -9.284  15.484  69.751  1.00  0.00    -0.267 OA 
BRANCH   5   8
HETATM    8  N   UNL     1     -10.631  13.417  69.142  1.00  0.00    -0.436 N  
HETATM    9  H   UNL     1     -10.606  12.643  69.806  1.00  0.00     0.000 HD 
BRANCH   8  10
HETATM   10  C   UNL     1     -10.656  13.255  67.604  1.00  0.00    -0.236 C  
HETATM   11  C   UNL     1     -11.818  12.343  67.211  1.00  0.00    -0.287 C  
HETATM   12  O   UNL     1     -12.372  12.358  66.122  1.00  0.00    -0.606 OA 
HETATM   13  O   UNL     1     -12.185  11.498  68.208  1.00  0.00    -0.561 OA 
BRANCH  10  14
HETATM   14  C   UNL     1      -9.352  12.729  66.975  1.00  0.00    -0.229 C  
BRANCH  14  15
HETATM   15  C   UNL     1      -9.212  11.228  67.003  1.00  0.00    -0.173 A  
HETATM   16  C   UNL     1      -9.321  10.537  65.792  1.00  0.00    -0.229 A  
HETATM   17  C   UNL     1      -9.443   9.150  65.784  1.00  0.00    -0.322 A  
HETATM   18  C   UNL     1      -9.474   8.434  66.983  1.00  0.00    -0.174 A  
HETATM   19  C   UNL     1      -9.067  10.490  68.188  1.00  0.00    -0.141 A  
HETATM   20  C   UNL     1      -9.219   9.101  68.180  1.00  0.00    -0.137 A  
BRANCH  18  21
HETATM   21  O   UNL     1      -9.772   7.098  67.086  1.00  0.00    -0.146 OA 
BRANCH  21  22
HETATM   22  C   UNL     1      -9.206   6.471  68.240  1.00  0.00    -0.116 C  
BRANCH  22  23
HETATM   23  C   UNL     1     -10.047   5.292  68.697  1.00  0.00    -0.238 C  
BRANCH  23  24
HETATM   24  C   UNL     1     -10.578   5.426  70.131  1.00  0.00    -0.344 C  
BRANCH  24  25
HETATM   25  C   UNL     1     -11.634   6.535  70.161  1.00  0.00    -0.466 C  
BRANCH  25  26
HETATM   26  C   UNL     1     -12.149   6.952  71.551  1.00  0.00    -0.401 C  
HETATM   27  C   UNL     1     -11.277   8.102  72.090  1.00  0.00    -0.393 C  
HETATM   28  C   UNL     1     -11.636   9.446  71.458  1.00  0.00    -0.397 C  
HETATM   29  N   UNL     1     -13.035   9.767  71.723  1.00  0.00    -0.404 NA 
HETATM   30  H   UNL     1     -13.268  10.712  71.417  1.00  0.00     0.000 HD 
HETATM   31  C   UNL     1     -13.925   8.772  71.127  1.00  0.00    -0.054 C  
HETATM   32  C   UNL     1     -13.632   7.353  71.618  1.00  0.00    -0.449 C  
ENDBRANCH  25  26
ENDBRANCH  24  25
ENDBRANCH  23  24
ENDBRANCH  22  23
ENDBRANCH  21  22
ENDBRANCH  18  21
ENDBRANCH  14  15
ENDBRANCH  10  14
ENDBRANCH   8  10
ENDBRANCH   5   8
ENDBRANCH   4   5
ENDBRANCH   3   4
ENDBRANCH   2   3
TORSDOF 13
ENDMDL
MODEL       62
REMARK 921   NORMALIZED FREE ENERGY PREDICTED BY IDOCK:   -4.89 KCAL/MOL
REMARK 922        TOTAL FREE ENERGY PREDICTED BY IDOCK:  -11.14 KCAL/MOL
REMARK 923 INTER-LIGAND FREE ENERGY PREDICTED BY IDOCK:   -9.46 KCAL/MOL
REMARK 924 INTRA-LIGAND FREE ENERGY PREDICTED BY IDOCK:   -1.68 KCAL/MOL
REMARK 927      BINDING AFFINITY PREDICTED BY RF-SCORE:    0.00 PKD
ROOT
HETATM    1  C   UNL     1     -10.910   6.241  66.914  1.00  0.00    -0.428 C  
HETATM    2  C   UNL     1     -11.067   6.901  68.281  1.00  0.00    -0.152 C  
ENDROOT
BRANCH   2   3
HETATM    3  C   UNL     1     -10.346   8.238  68.260  1.00  0.00    -0.242 C  
BRANCH   3   4
HETATM    4  C   UNL     1     -10.491   9.078  66.988  1.00  0.00    -0.246 C  
BRANCH   4   5
HETATM    5  S   UNL     1     -10.610  10.787  67.559  1.00  0.00    -0.256 S  
HETATM    6  O   UNL     1     -11.969  11.040  67.977  1.00  0.00    -0.623 OA 
HETATM    7  O   UNL     1      -9.487  11.010  68.437  1.00  0.00    -0.168 OA 
BRANCH   5   8
HETATM    8  N   UNL     1     -10.386  11.762  66.183  1.00  0.00    -0.223 N  
HETATM    9  H   UNL     1      -9.488  11.925  65.727  1.00  0.00     0.000 HD 
BRANCH   8  10
HETATM   10  C   UNL     1     -11.731  12.368  65.716  1.00  0.00    -0.414 C  
HETATM   11  C   UNL     1     -11.779  12.371  64.188  1.00  0.00    -0.400 C  
HETATM   12  O   UNL     1     -12.807  12.364  63.528  1.00  0.00    -0.749 OA 
HETATM   13  O   UNL     1     -10.546  12.382  63.622  1.00  0.00    -0.424 OA 
BRANCH  10  14
HETATM   14  C   UNL     1     -12.036  13.782  66.245  1.00  0.00    -0.484 C  
BRANCH  14  15
HETATM   15  C   UNL     1     -10.870  14.456  66.921  1.00  0.00    -0.301 A  
HETATM   16  C   UNL     1      -9.889  15.038  66.111  1.00  0.00    -0.325 A  
HETATM   17  C   UNL     1      -8.682  15.456  66.663  1.00  0.00    -0.332 A  
HETATM   18  C   UNL     1      -8.427  15.287  68.025  1.00  0.00    -0.147 A  
HETATM   19  C   UNL     1     -10.679  14.452  68.311  1.00  0.00    -0.246 A  
HETATM   20  C   UNL     1      -9.455  14.845  68.858  1.00  0.00    -0.209 A  
BRANCH  18  21
HETATM   21  O   UNL     1      -7.211  15.497  68.625  1.00  0.00    -0.115 OA 
BRANCH  21  22
HETATM   22  C   UNL     1      -7.099  16.768  69.268  1.00  0.00    -0.198 C  
BRANCH  22  23
HETATM   23  C   UNL     1      -6.184  17.701  68.493  1.00  0.00    -0.182 C  
BRANCH  23  24
HETATM   24  C   UNL     1      -6.634  19.168  68.508  1.00  0.00    -0.284 C  
BRANCH  24  25
HETATM   25  C   UNL     1      -7.562  19.408  67.314  1.00  0.00    -0.268 C  
BRANCH  25  26
HETATM   26  C   UNL     1      -8.913  20.080  67.621  1.00  0.00    -0.420 C  
HETATM   27  C   UNL     1      -9.838  19.941  66.396  1.00  0.00    -0.572 C  
HETATM   28  C   UNL     1     -10.455  18.547  66.292  1.00  0.00    -0.406 C  
HETATM   29  N   UNL     1     -11.234  18.253  67.491  1.00  0.00     0.085 NA 
HETATM   30  H   UNL     1     -11.754  17.380  67.395  1.00  0.00     0.000 HD 
HETATM   31  C   UNL     1     -10.385  18.247  68.681  1.00  0.00    -0.276 C  
HETATM   32  C   UNL     1      -9.639  19.569  68.877  1.00  0.00    -0.460 C  
ENDBRANCH  25  26
ENDBRANCH  24  25
ENDBRANCH  23  24
ENDBRANCH  22  23
ENDBRANCH  21  22
ENDBRANCH  18  21
ENDBRANCH  14  15
ENDBRANCH  10  14
ENDBRANCH   8  10
ENDBRANCH   5   8
ENDBRANCH   4   5
ENDBRANCH   3   4
ENDBRANCH   2   3
TORSDOF 13
ENDMDL
MODEL       63
REMARK 921   NORMALIZED FREE ENERGY PREDICTED BY IDOCK:   -4.88 KCAL/MOL
REMARK 922        TOTAL FREE ENERGY PREDICTED BY IDOCK:  -11.14 KCAL/MOL
REMARK 923 INTER-LIGAND FREE ENERGY PREDICTED BY IDOCK:   -9.48 KCAL/MOL
REMARK 924 INTRA-LIGAND FREE ENERGY PREDICTED BY IDOCK:   -1.66 KCAL/MOL
REMARK 927      BINDING AFFINITY PREDICTED BY RF-SCORE:    0.00 PKD
ROOT
HETATM    1  C   UNL     1      -9.355  10.045  66.982  1.00  0.00    -0.180 C  
HETATM    2  C   UNL     1     -10.528   9.081  66.817  1.00  0.00    -0.270 C  
ENDROOT
BRANCH   2   3
HETATM    3  C   UNL     1     -10.064   7.685  67.196  1.00  0.00    -0.323 C  
BRANCH   3   4
HETATM    4  C   UNL     1     -11.134   6.726  67.727  1.00  0.00    -0.201 C  
BRANCH   4   5
HETATM    5  S   UNL     1     -10.693   6.434  69.454  1.00  0.00    -0.325 S  
HETATM    6  O   UNL     1     -10.417   5.027  69.627  1.00  0.00    -0.255 OA 
HETATM    7  O   UNL     1      -9.734   7.450  69.815  1.00  0.00    -0.169 OA 
BRANCH   5   8
HETATM    8  N   UNL     1     -12.106   6.718  70.357  1.00  0.00    -0.589 N  
HETATM    9  H   UNL     1     -13.010   6.282  70.173  1.00  0.00     0.000 HD 
BRANCH   8  10
HETATM   10  C   UNL     1     -11.834   7.730  71.496  1.00  0.00    -0.293 C  
HETATM   11  C   UNL     1     -11.286   6.982  72.713  1.00  0.00    -0.218 C  
HETATM   12  O   UNL     1     -10.586   7.488  73.577  1.00  0.00    -0.373 OA 
HETATM   13  O   UNL     1     -11.657   5.678  72.741  1.00  0.00    -0.297 OA 
BRANCH  10  14
HETATM   14  C   UNL     1     -13.041   8.588  71.919  1.00  0.00    -0.391 C  
BRANCH  14  15
HETATM   15  C   UNL     1     -12.972  10.023  71.460  1.00  0.00    -0.535 A  
HETATM   16  C   UNL     1     -12.186  10.315  70.340  1.00  0.00    -0.346 A  
HETATM   17  C   UNL     1     -11.890  11.637  70.018  1.00  0.00    -0.435 A  
HETATM   18  C   UNL     1     -12.358  12.684  70.815  1.00  0.00    -0.283 A  
HETATM   19  C   UNL     1     -13.582  11.081  72.149  1.00  0.00    -0.084 A  
HETATM   20  C   UNL     1     -13.260  12.406  71.841  1.00  0.00    -0.486 A  
BRANCH  18  21
HETATM   21  O   UNL     1     -11.973  13.995  70.687  1.00  0.00    -0.318 OA 
BRANCH  21  22
HETATM   22  C   UNL     1     -12.064  14.492  69.350  1.00  0.00    -0.290 C  
BRANCH  22  23
HETATM   23  C   UNL     1     -11.462  15.882  69.235  1.00  0.00    -0.374 C  
BRANCH  23  24
HETATM   24  C   UNL     1      -9.931  15.889  69.123  1.00  0.00    -0.245 C  
BRANCH  24  25
HETATM   25  C   UNL     1      -9.483  14.588  68.451  1.00  0.00    -0.209 C  
BRANCH  25  26
HETATM   26  C   UNL     1      -8.952  14.710  67.010  1.00  0.00    -0.258 C  
HETATM   27  C   UNL     1      -9.862  13.902  66.065  1.00  0.00    -0.306 C  
HETATM   28  C   UNL     1     -11.161  14.640  65.741  1.00  0.00    -0.331 C  
HETATM   29  N   UNL     1     -10.866  15.922  65.110  1.00  0.00    -0.431 NA 
HETATM   30  H   UNL     1     -11.714  16.379  64.775  1.00  0.00     0.000 HD 
HETATM   31  C   UNL     1     -10.105  16.788  66.009  1.00  0.00    -0.332 C  
HETATM   32  C   UNL     1      -8.798  16.145  66.478  1.00  0.00    -0.331 C  
ENDBRANCH  25  26
ENDBRANCH  24  25
ENDBRANCH  23  24
ENDBRANCH  22  23
ENDBRANCH  21  22
ENDBRANCH  18  21
ENDBRANCH  14  15
ENDBRANCH  10  14
ENDBRANCH   8  10
ENDBRANCH   5   8
ENDBRANCH   4   5
ENDBRANCH   3   4
ENDBRANCH   2   3
TORSDOF 13
ENDMDL
MODEL       64
REMARK 921   NORMALIZED FREE ENERGY PREDICTED BY IDOCK:   -4.88 KCAL/MOL
REMARK 922        TOTAL FREE ENERGY PREDICTED BY IDOCK:  -11.13 KCAL/MOL
REMARK 923 INTER-LIGAND FREE ENERGY PREDICTED BY IDOCK:   -9.28 KCAL/MOL
REMARK 924 INTRA-LIGAND FREE ENERGY PREDICTED BY IDOCK:   -1.85 KCAL/MOL
REMARK 927      BINDING AFFINITY PREDICTED BY RF-SCORE:    0.00 PKD
ROOT
HETATM    1  C   UNL     1     -12.255  12.160  70.580  1.00  0.00    -0.392 C  
HETATM    2  C   UNL     1     -12.983  11.752  71.859  1.00  0.00    -0.435 C  
ENDROOT
BRANCH   2   3
HETATM    3  C   UNL     1     -13.317  10.273  71.775  1.00  0.00    -0.476 C  
BRANCH   3   4
HETATM    4  C   UNL     1     -12.556   9.454  70.728  1.00  0.00    -0.047 C  
BRANCH   4   5
HETATM    5  S   UNL     1     -12.044   7.948  71.584  1.00  0.00    -0.311 S  
HETATM    6  O   UNL     1     -11.724   8.283  72.952  1.00  0.00    -0.348 OA 
HETATM    7  O   UNL     1     -13.013   6.932  71.253  1.00  0.00    -0.350 OA 
BRANCH   5   8
HETATM    8  N   UNL     1     -10.561   7.490  70.887  1.00  0.00    -0.218 N  
HETATM    9  H   UNL     1      -9.786   7.066  71.398  1.00  0.00     0.000 HD 
BRANCH   8  10
HETATM   10  C   UNL     1     -10.549   7.803  69.372  1.00  0.00    -0.208 C  
HETATM   11  C   UNL     1     -10.712   6.500  68.587  1.00  0.00    -0.271 C  
HETATM   12  O   UNL     1     -11.166   6.428  67.455  1.00  0.00    -0.352 OA 
HETATM   13  O   UNL     1     -10.297   5.411  69.281  1.00  0.00    -0.235 OA 
BRANCH  10  14
HETATM   14  C   UNL     1      -9.307   8.558  68.864  1.00  0.00    -0.146 C  
BRANCH  14  15
HETATM   15  C   UNL     1      -9.612   9.878  68.201  1.00  0.00    -0.153 A  
HETATM   16  C   UNL     1      -8.696  10.922  68.369  1.00  0.00    -0.147 A  
HETATM   17  C   UNL     1      -9.034  12.218  67.991  1.00  0.00    -0.190 A  
HETATM   18  C   UNL     1     -10.294  12.496  67.457  1.00  0.00    -0.220 A  
HETATM   19  C   UNL     1     -10.802  10.132  67.504  1.00  0.00    -0.349 A  
HETATM   20  C   UNL     1     -11.151  11.439  67.152  1.00  0.00    -0.366 A  
BRANCH  18  21
HETATM   21  O   UNL     1     -10.784  13.757  67.226  1.00  0.00    -0.279 OA 
BRANCH  21  22
HETATM   22  C   UNL     1     -11.104  14.007  65.856  1.00  0.00    -0.301 C  
BRANCH  22  23
HETATM   23  C   UNL     1     -10.148  15.015  65.240  1.00  0.00    -0.378 C  
BRANCH  23  24
HETATM   24  C   UNL     1      -9.116  15.577  66.227  1.00  0.00    -0.369 C  
BRANCH  24  25
HETATM   25  C   UNL     1      -9.081  17.101  66.085  1.00  0.00    -0.214 C  
BRANCH  25  26
HETATM   26  C   UNL     1     -10.401  17.844  66.366  1.00  0.00    -0.365 C  
HETATM   27  C   UNL     1     -10.905  17.466  67.772  1.00  0.00    -0.257 C  
HETATM   28  C   UNL     1     -10.151  18.207  68.876  1.00  0.00    -0.338 C  
HETATM   29  N   UNL     1     -10.302  19.649  68.706  1.00  0.00    -0.565 NA 
HETATM   30  H   UNL     1      -9.911  20.163  69.496  1.00  0.00     0.000 HD 
HETATM   31  C   UNL     1      -9.728  20.092  67.437  1.00  0.00    -0.417 C  
HETATM   32  C   UNL     1     -10.343  19.375  66.232  1.00  0.00    -0.584 C  
ENDBRANCH  25  26
ENDBRANCH  24  25
ENDBRANCH  23  24
ENDBRANCH  22  23
ENDBRANCH  21  22
ENDBRANCH  18  21
ENDBRANCH  14  15
ENDBRANCH  10  14
ENDBRANCH   8  10
ENDBRANCH   5   8
ENDBRANCH   4   5
ENDBRANCH   3   4
ENDBRANCH   2   3
TORSDOF 13
ENDMDL
MODEL       65
REMARK 921   NORMALIZED FREE ENERGY PREDICTED BY IDOCK:   -4.86 KCAL/MOL
REMARK 922        TOTAL FREE ENERGY PREDICTED BY IDOCK:  -11.10 KCAL/MOL
REMARK 923 INTER-LIGAND FREE ENERGY PREDICTED BY IDOCK:   -9.34 KCAL/MOL
REMARK 924 INTRA-LIGAND FREE ENERGY PREDICTED BY IDOCK:   -1.77 KCAL/MOL
REMARK 927      BINDING AFFINITY PREDICTED BY RF-SCORE:    0.00 PKD
ROOT
HETATM    1  C   UNL     1     -12.407  11.765  70.544  1.00  0.00    -0.387 C  
HETATM    2  C   UNL     1     -12.771  10.561  71.410  1.00  0.00    -0.547 C  
ENDROOT
BRANCH   2   3
HETATM    3  C   UNL     1     -11.779   9.446  71.132  1.00  0.00    -0.418 C  
BRANCH   3   4
HETATM    4  C   UNL     1     -11.931   8.167  71.960  1.00  0.00    -0.340 C  
BRANCH   4   5
HETATM    5  S   UNL     1     -10.273   7.799  72.574  1.00  0.00    -0.287 S  
HETATM    6  O   UNL     1      -9.434   8.955  72.356  1.00  0.00    -0.315 OA 
HETATM    7  O   UNL     1     -10.436   7.210  73.882  1.00  0.00    -0.370 OA 
BRANCH   5   8
HETATM    8  N   UNL     1      -9.643   6.599  71.546  1.00  0.00    -0.164 N  
HETATM    9  H   UNL     1      -9.234   5.720  71.863  1.00  0.00     0.000 HD 
BRANCH   8  10
HETATM   10  C   UNL     1      -9.776   7.023  70.064  1.00  0.00    -0.170 C  
HETATM   11  C   UNL     1     -10.417   5.885  69.269  1.00  0.00    -0.274 C  
HETATM   12  O   UNL     1     -11.042   6.034  68.230  1.00  0.00    -0.309 OA 
HETATM   13  O   UNL     1     -10.225   4.669  69.840  1.00  0.00    -0.237 OA 
BRANCH  10  14
HETATM   14  C   UNL     1      -8.464   7.454  69.381  1.00  0.00    -0.133 C  
BRANCH  14  15
HETATM   15  C   UNL     1      -8.656   8.303  68.150  1.00  0.00    -0.132 A  
HETATM   16  C   UNL     1      -9.580   9.352  68.215  1.00  0.00    -0.156 A  
HETATM   17  C   UNL     1      -9.975  10.010  67.054  1.00  0.00    -0.257 A  
HETATM   18  C   UNL     1      -9.469   9.624  65.811  1.00  0.00    -0.246 A  
HETATM   19  C   UNL     1      -8.022   8.040  66.927  1.00  0.00    -0.104 A  
HETATM   20  C   UNL     1      -8.442   8.683  65.759  1.00  0.00    -0.165 A  
BRANCH  18  21
HETATM   21  O   UNL     1      -9.930  10.084  64.603  1.00  0.00    -0.309 OA 
BRANCH  21  22
HETATM   22  C   UNL     1     -10.019  11.509  64.528  1.00  0.00    -0.263 C  
BRANCH  22  23
HETATM   23  C   UNL     1     -10.813  11.949  63.310  1.00  0.00    -0.408 C  
BRANCH  23  24
HETATM   24  C   UNL     1     -12.224  12.456  63.637  1.00  0.00    -0.653 C  
BRANCH  24  25
HETATM   25  C   UNL     1     -12.347  12.618  65.155  1.00  0.00    -0.547 C  
BRANCH  25  26
HETATM   26  C   UNL     1     -12.485  14.059  65.681  1.00  0.00    -0.531 C  
HETATM   27  C   UNL     1     -11.983  14.117  67.137  1.00  0.00    -0.460 C  
HETATM   28  C   UNL     1     -10.457  14.140  67.222  1.00  0.00    -0.272 C  
HETATM   29  N   UNL     1      -9.932  15.299  66.508  1.00  0.00    -0.254 NA 
HETATM   30  H   UNL     1      -8.927  15.404  66.651  1.00  0.00     0.000 HD 
HETATM   31  C   UNL     1     -10.271  15.240  65.087  1.00  0.00    -0.339 C  
HETATM   32  C   UNL     1     -11.779  15.141  64.847  1.00  0.00    -0.290 C  
ENDBRANCH  25  26
ENDBRANCH  24  25
ENDBRANCH  23  24
ENDBRANCH  22  23
ENDBRANCH  21  22
ENDBRANCH  18  21
ENDBRANCH  14  15
ENDBRANCH  10  14
ENDBRANCH   8  10
ENDBRANCH   5   8
ENDBRANCH   4   5
ENDBRANCH   3   4
ENDBRANCH   2   3
TORSDOF 13
ENDMDL
MODEL       66
REMARK 921   NORMALIZED FREE ENERGY PREDICTED BY IDOCK:   -4.86 KCAL/MOL
REMARK 922        TOTAL FREE ENERGY PREDICTED BY IDOCK:  -11.10 KCAL/MOL
REMARK 923 INTER-LIGAND FREE ENERGY PREDICTED BY IDOCK:   -9.23 KCAL/MOL
REMARK 924 INTRA-LIGAND FREE ENERGY PREDICTED BY IDOCK:   -1.86 KCAL/MOL
REMARK 927      BINDING AFFINITY PREDICTED BY RF-SCORE:    0.00 PKD
ROOT
HETATM    1  C   UNL     1     -11.835  13.533  64.872  1.00  0.00    -0.402 C  
HETATM    2  C   UNL     1     -11.673  13.073  66.319  1.00  0.00    -0.440 C  
ENDROOT
BRANCH   2   3
HETATM    3  C   UNL     1     -11.467  14.296  67.196  1.00  0.00    -0.377 C  
BRANCH   3   4
HETATM    4  C   UNL     1     -10.057  14.513  67.754  1.00  0.00    -0.225 C  
BRANCH   4   5
HETATM    5  S   UNL     1     -10.225  15.848  68.959  1.00  0.00    -0.244 S  
HETATM    6  O   UNL     1      -8.920  16.415  69.204  1.00  0.00    -0.250 OA 
HETATM    7  O   UNL     1     -11.341  16.657  68.530  1.00  0.00    -0.317 OA 
BRANCH   5   8
HETATM    8  N   UNL     1     -10.664  15.107  70.427  1.00  0.00    -0.486 N  
HETATM    9  H   UNL     1     -10.028  14.573  71.019  1.00  0.00     0.000 HD 
BRANCH   8  10
HETATM   10  C   UNL     1     -12.159  15.355  70.740  1.00  0.00    -0.366 C  
HETATM   11  C   UNL     1     -12.328  15.577  72.244  1.00  0.00    -0.395 C  
HETATM   12  O   UNL     1     -13.246  16.204  72.751  1.00  0.00    -0.447 OA 
HETATM   13  O   UNL     1     -11.342  15.001  72.976  1.00  0.00    -0.201 OA 
BRANCH  10  14
HETATM   14  C   UNL     1     -13.123  14.251  70.270  1.00  0.00     0.039 C  
BRANCH  14  15
HETATM   15  C   UNL     1     -12.780  12.872  70.775  1.00  0.00    -0.229 A  
HETATM   16  C   UNL     1     -11.922  12.085  69.999  1.00  0.00    -0.400 A  
HETATM   17  C   UNL     1     -11.763  10.732  70.284  1.00  0.00    -0.442 A  
HETATM   18  C   UNL     1     -12.467  10.140  71.334  1.00  0.00    -0.423 A  
HETATM   19  C   UNL     1     -13.344  12.313  71.931  1.00  0.00    -0.431 A  
HETATM   20  C   UNL     1     -13.206  10.948  72.197  1.00  0.00    -0.333 A  
BRANCH  18  21
HETATM   21  O   UNL     1     -12.518   8.790  71.578  1.00  0.00    -0.307 OA 
BRANCH  21  22
HETATM   22  C   UNL     1     -11.366   8.080  71.119  1.00  0.00    -0.266 C  
BRANCH  22  23
HETATM   23  C   UNL     1     -11.725   6.673  70.674  1.00  0.00    -0.452 C  
BRANCH  23  24
HETATM   24  C   UNL     1     -11.039   6.237  69.372  1.00  0.00    -0.477 C  
BRANCH  24  25
HETATM   25  C   UNL     1     -10.271   7.432  68.800  1.00  0.00    -0.199 C  
BRANCH  25  26
HETATM   26  C   UNL     1     -10.435   7.693  67.291  1.00  0.00    -0.396 C  
HETATM   27  C   UNL     1     -10.731   9.189  67.065  1.00  0.00    -0.189 C  
HETATM   28  C   UNL     1      -9.471  10.048  67.164  1.00  0.00    -0.155 C  
HETATM   29  N   UNL     1      -8.490   9.619  66.173  1.00  0.00    -0.119 NA 
HETATM   30  H   UNL     1      -7.691  10.252  66.137  1.00  0.00     0.000 HD 
HETATM   31  C   UNL     1      -8.074   8.237  66.409  1.00  0.00    -0.105 C  
HETATM   32  C   UNL     1      -9.253   7.261  66.409  1.00  0.00    -0.201 C  
ENDBRANCH  25  26
ENDBRANCH  24  25
ENDBRANCH  23  24
ENDBRANCH  22  23
ENDBRANCH  21  22
ENDBRANCH  18  21
ENDBRANCH  14  15
ENDBRANCH  10  14
ENDBRANCH   8  10
ENDBRANCH   5   8
ENDBRANCH   4   5
ENDBRANCH   3   4
ENDBRANCH   2   3
TORSDOF 13
ENDMDL
MODEL       67
REMARK 921   NORMALIZED FREE ENERGY PREDICTED BY IDOCK:   -4.85 KCAL/MOL
REMARK 922        TOTAL FREE ENERGY PREDICTED BY IDOCK:  -11.08 KCAL/MOL
REMARK 923 INTER-LIGAND FREE ENERGY PREDICTED BY IDOCK:   -8.96 KCAL/MOL
REMARK 924 INTRA-LIGAND FREE ENERGY PREDICTED BY IDOCK:   -2.12 KCAL/MOL
REMARK 927      BINDING AFFINITY PREDICTED BY RF-SCORE:    0.00 PKD
ROOT
HETATM    1  C   UNL     1     -10.981  10.139  66.997  1.00  0.00    -0.162 C  
HETATM    2  C   UNL     1     -10.298  10.953  65.900  1.00  0.00    -0.310 C  
ENDROOT
BRANCH   2   3
HETATM    3  C   UNL     1     -11.326  11.874  65.270  1.00  0.00    -0.333 C  
BRANCH   3   4
HETATM    4  C   UNL     1     -10.790  12.983  64.358  1.00  0.00    -0.388 C  
BRANCH   4   5
HETATM    5  S   UNL     1     -11.830  14.420  64.697  1.00  0.00    -0.455 S  
HETATM    6  O   UNL     1     -12.735  14.606  63.587  1.00  0.00    -0.735 OA 
HETATM    7  O   UNL     1     -12.303  14.279  66.053  1.00  0.00    -0.432 OA 
BRANCH   5   8
HETATM    8  N   UNL     1     -10.797  15.772  64.652  1.00  0.00    -0.623 N  
HETATM    9  H   UNL     1     -10.557  16.289  63.806  1.00  0.00     0.000 HD 
BRANCH   8  10
HETATM   10  C   UNL     1     -10.272  16.107  66.068  1.00  0.00    -0.356 C  
HETATM   11  C   UNL     1     -10.645  17.549  66.414  1.00  0.00    -0.195 C  
HETATM   12  O   UNL     1     -10.775  17.976  67.552  1.00  0.00    -0.404 OA 
HETATM   13  O   UNL     1     -10.824  18.326  65.316  1.00  0.00    -0.629 OA 
BRANCH  10  14
HETATM   14  C   UNL     1      -8.761  15.901  66.277  1.00  0.00    -0.372 C  
BRANCH  14  15
HETATM   15  C   UNL     1      -8.414  14.829  67.279  1.00  0.00    -0.234 A  
HETATM   16  C   UNL     1      -7.061  14.597  67.548  1.00  0.00    -0.203 A  
HETATM   17  C   UNL     1      -6.673  13.472  68.270  1.00  0.00    -0.107 A  
HETATM   18  C   UNL     1      -7.625  12.554  68.720  1.00  0.00    -0.024 A  
HETATM   19  C   UNL     1      -9.372  14.002  67.884  1.00  0.00    -0.206 A  
HETATM   20  C   UNL     1      -8.978  12.858  68.583  1.00  0.00     0.048 A  
BRANCH  18  21
HETATM   21  O   UNL     1      -7.331  11.334  69.276  1.00  0.00    -0.115 OA 
BRANCH  21  22
HETATM   22  C   UNL     1      -8.158  10.272  68.797  1.00  0.00    -0.120 C  
BRANCH  22  23
HETATM   23  C   UNL     1      -7.821   8.958  69.481  1.00  0.00    -0.094 C  
BRANCH  23  24
HETATM   24  C   UNL     1      -9.041   8.220  70.049  1.00  0.00    -0.150 C  
BRANCH  24  25
HETATM   25  C   UNL     1     -10.035   9.257  70.583  1.00  0.00    -0.336 C  
BRANCH  25  26
HETATM   26  C   UNL     1     -11.528   8.947  70.368  1.00  0.00    -0.182 C  
HETATM   27  C   UNL     1     -11.933   7.760  71.263  1.00  0.00    -0.324 C  
HETATM   28  C   UNL     1     -12.140   8.177  72.718  1.00  0.00    -0.148 C  
HETATM   29  N   UNL     1     -13.182   9.194  72.806  1.00  0.00    -0.656 NA 
HETATM   30  H   UNL     1     -13.423   9.402  73.775  1.00  0.00     0.000 HD 
HETATM   31  C   UNL     1     -12.801  10.402  72.074  1.00  0.00    -0.346 C  
HETATM   32  C   UNL     1     -12.491  10.123  70.602  1.00  0.00    -0.372 C  
ENDBRANCH  25  26
ENDBRANCH  24  25
ENDBRANCH  23  24
ENDBRANCH  22  23
ENDBRANCH  21  22
ENDBRANCH  18  21
ENDBRANCH  14  15
ENDBRANCH  10  14
ENDBRANCH   8  10
ENDBRANCH   5   8
ENDBRANCH   4   5
ENDBRANCH   3   4
ENDBRANCH   2   3
TORSDOF 13
ENDMDL
MODEL       68
REMARK 921   NORMALIZED FREE ENERGY PREDICTED BY IDOCK:   -4.84 KCAL/MOL
REMARK 922        TOTAL FREE ENERGY PREDICTED BY IDOCK:  -11.07 KCAL/MOL
REMARK 923 INTER-LIGAND FREE ENERGY PREDICTED BY IDOCK:   -8.60 KCAL/MOL
REMARK 924 INTRA-LIGAND FREE ENERGY PREDICTED BY IDOCK:   -2.47 KCAL/MOL
REMARK 927      BINDING AFFINITY PREDICTED BY RF-SCORE:    0.00 PKD
ROOT
HETATM    1  C   UNL     1     -12.407  12.089  70.611  1.00  0.00    -0.394 C  
HETATM    2  C   UNL     1     -12.026  10.630  70.373  1.00  0.00    -0.436 C  
ENDROOT
BRANCH   2   3
HETATM    3  C   UNL     1     -12.338   9.836  71.629  1.00  0.00    -0.495 C  
BRANCH   3   4
HETATM    4  C   UNL     1     -13.614   8.990  71.609  1.00  0.00    -0.390 C  
BRANCH   4   5
HETATM    5  S   UNL     1     -13.047   7.276  71.658  1.00  0.00    -0.329 S  
HETATM    6  O   UNL     1     -14.062   6.472  72.298  1.00  0.00    -0.018 OA 
HETATM    7  O   UNL     1     -12.548   6.967  70.339  1.00  0.00    -0.136 OA 
BRANCH   5   8
HETATM    8  N   UNL     1     -11.724   7.246  72.727  1.00  0.00    -0.547 N  
HETATM    9  H   UNL     1     -11.673   7.770  73.601  1.00  0.00     0.000 HD 
BRANCH   8  10
HETATM   10  C   UNL     1     -10.609   6.316  72.193  1.00  0.00    -0.223 C  
HETATM   11  C   UNL     1     -10.444   5.129  73.143  1.00  0.00    -0.211 C  
HETATM   12  O   UNL     1      -9.995   4.040  72.817  1.00  0.00    -0.137 OA 
HETATM   13  O   UNL     1     -10.853   5.405  74.407  1.00  0.00    -0.255 OA 
BRANCH  10  14
HETATM   14  C   UNL     1      -9.242   6.989  71.966  1.00  0.00    -0.148 C  
BRANCH  14  15
HETATM   15  C   UNL     1      -9.159   7.817  70.709  1.00  0.00    -0.149 A  
HETATM   16  C   UNL     1      -9.454   7.192  69.492  1.00  0.00    -0.151 A  
HETATM   17  C   UNL     1      -9.163   7.829  68.289  1.00  0.00    -0.139 A  
HETATM   18  C   UNL     1      -8.561   9.089  68.280  1.00  0.00    -0.130 A  
HETATM   19  C   UNL     1      -8.720   9.149  70.692  1.00  0.00    -0.272 A  
HETATM   20  C   UNL     1      -8.402   9.775  69.483  1.00  0.00    -0.165 A  
BRANCH  18  21
HETATM   21  O   UNL     1      -8.073   9.713  67.159  1.00  0.00    -0.109 OA 
BRANCH  21  22
HETATM   22  C   UNL     1      -8.756  10.927  66.835  1.00  0.00    -0.144 C  
BRANCH  22  23
HETATM   23  C   UNL     1     -10.051  10.650  66.092  1.00  0.00    -0.306 C  
BRANCH  23  24
HETATM   24  C   UNL     1     -11.282  11.325  66.714  1.00  0.00    -0.265 C  
BRANCH  24  25
HETATM   25  C   UNL     1     -10.869  12.700  67.247  1.00  0.00    -0.277 C  
BRANCH  25  26
HETATM   26  C   UNL     1     -11.805  13.874  66.907  1.00  0.00    -0.453 C  
HETATM   27  C   UNL     1     -10.969  15.160  66.755  1.00  0.00    -0.321 C  
HETATM   28  C   UNL     1     -10.252  15.228  65.407  1.00  0.00    -0.383 C  
HETATM   29  N   UNL     1     -11.223  15.180  64.319  1.00  0.00    -0.664 NA 
HETATM   30  H   UNL     1     -10.781  15.344  63.414  1.00  0.00     0.000 HD 
HETATM   31  C   UNL     1     -11.969  13.922  64.334  1.00  0.00    -0.450 C  
HETATM   32  C   UNL     1     -12.688  13.682  65.663  1.00  0.00    -0.505 C  
ENDBRANCH  25  26
ENDBRANCH  24  25
ENDBRANCH  23  24
ENDBRANCH  22  23
ENDBRANCH  21  22
ENDBRANCH  18  21
ENDBRANCH  14  15
ENDBRANCH  10  14
ENDBRANCH   8  10
ENDBRANCH   5   8
ENDBRANCH   4   5
ENDBRANCH   3   4
ENDBRANCH   2   3
TORSDOF 13
ENDMDL
MODEL       69
REMARK 921   NORMALIZED FREE ENERGY PREDICTED BY IDOCK:   -4.84 KCAL/MOL
REMARK 922        TOTAL FREE ENERGY PREDICTED BY IDOCK:  -11.07 KCAL/MOL
REMARK 923 INTER-LIGAND FREE ENERGY PREDICTED BY IDOCK:  -10.03 KCAL/MOL
REMARK 924 INTRA-LIGAND FREE ENERGY PREDICTED BY IDOCK:   -1.03 KCAL/MOL
REMARK 927      BINDING AFFINITY PREDICTED BY RF-SCORE:    0.00 PKD
ROOT
HETATM    1  C   UNL     1      -9.729   9.854  65.313  1.00  0.00    -0.383 C  
HETATM    2  C   UNL     1      -9.300   9.074  66.553  1.00  0.00    -0.246 C  
ENDROOT
BRANCH   2   3
HETATM    3  C   UNL     1     -10.531   8.790  67.396  1.00  0.00    -0.349 C  
BRANCH   3   4
HETATM    4  C   UNL     1     -10.951   7.323  67.530  1.00  0.00    -0.151 C  
BRANCH   4   5
HETATM    5  S   UNL     1     -10.598   6.884  69.246  1.00  0.00    -0.236 S  
HETATM    6  O   UNL     1     -10.544   5.444  69.351  1.00  0.00    -0.276 OA 
HETATM    7  O   UNL     1      -9.504   7.722  69.673  1.00  0.00    -0.157 OA 
BRANCH   5   8
HETATM    8  N   UNL     1     -11.972   7.338  70.142  1.00  0.00    -0.543 N  
HETATM    9  H   UNL     1     -12.923   7.029  69.941  1.00  0.00     0.000 HD 
BRANCH   8  10
HETATM   10  C   UNL     1     -11.580   8.284  71.302  1.00  0.00    -0.281 C  
HETATM   11  C   UNL     1     -11.109   7.450  72.494  1.00  0.00    -0.304 C  
HETATM   12  O   UNL     1     -10.350   7.853  73.363  1.00  0.00    -0.311 OA 
HETATM   13  O   UNL     1     -11.621   6.193  72.495  1.00  0.00    -0.286 OA 
BRANCH  10  14
HETATM   14  C   UNL     1     -12.682   9.259  71.759  1.00  0.00    -0.462 C  
BRANCH  14  15
HETATM   15  C   UNL     1     -12.605  10.623  71.121  1.00  0.00    -0.526 A  
HETATM   16  C   UNL     1     -12.006  10.724  69.861  1.00  0.00    -0.418 A  
HETATM   17  C   UNL     1     -11.691  11.973  69.334  1.00  0.00    -0.402 A  
HETATM   18  C   UNL     1     -11.952  13.137  70.060  1.00  0.00    -0.321 A  
HETATM   19  C   UNL     1     -13.024  11.797  71.764  1.00  0.00    -0.466 A  
HETATM   20  C   UNL     1     -12.680  13.049  71.246  1.00  0.00    -0.385 A  
BRANCH  18  21
HETATM   21  O   UNL     1     -11.516  14.390  69.710  1.00  0.00    -0.262 OA 
BRANCH  21  22
HETATM   22  C   UNL     1     -11.223  14.528  68.318  1.00  0.00    -0.277 C  
BRANCH  22  23
HETATM   23  C   UNL     1      -9.953  15.332  68.098  1.00  0.00    -0.221 C  
BRANCH  23  24
HETATM   24  C   UNL     1     -10.202  16.805  67.744  1.00  0.00    -0.303 C  
BRANCH  24  25
HETATM   25  C   UNL     1      -8.850  17.516  67.630  1.00  0.00    -0.228 C  
BRANCH  25  26
HETATM   26  C   UNL     1      -8.668  18.448  66.417  1.00  0.00    -0.263 C  
HETATM   27  C   UNL     1      -9.699  19.590  66.496  1.00  0.00    -0.478 C  
HETATM   28  C   UNL     1      -9.291  20.670  67.497  1.00  0.00    -0.301 C  
HETATM   29  N   UNL     1      -8.002  21.241  67.122  1.00  0.00    -0.667 NA 
HETATM   30  H   UNL     1      -7.763  22.045  67.703  1.00  0.00     0.000 HD 
HETATM   31  C   UNL     1      -6.949  20.226  67.148  1.00  0.00    -0.260 C  
HETATM   32  C   UNL     1      -7.258  19.036  66.237  1.00  0.00    -0.269 C  
ENDBRANCH  25  26
ENDBRANCH  24  25
ENDBRANCH  23  24
ENDBRANCH  22  23
ENDBRANCH  21  22
ENDBRANCH  18  21
ENDBRANCH  14  15
ENDBRANCH  10  14
ENDBRANCH   8  10
ENDBRANCH   5   8
ENDBRANCH   4   5
ENDBRANCH   3   4
ENDBRANCH   2   3
TORSDOF 13
ENDMDL
MODEL       70
REMARK 921   NORMALIZED FREE ENERGY PREDICTED BY IDOCK:   -4.83 KCAL/MOL
REMARK 922        TOTAL FREE ENERGY PREDICTED BY IDOCK:  -11.05 KCAL/MOL
REMARK 923 INTER-LIGAND FREE ENERGY PREDICTED BY IDOCK:   -9.92 KCAL/MOL
REMARK 924 INTRA-LIGAND FREE ENERGY PREDICTED BY IDOCK:   -1.13 KCAL/MOL
REMARK 927      BINDING AFFINITY PREDICTED BY RF-SCORE:    0.00 PKD
ROOT
HETATM    1  C   UNL     1      -6.920  14.156  67.660  1.00  0.00    -0.200 C  
HETATM    2  C   UNL     1      -6.870  15.660  67.402  1.00  0.00    -0.231 C  
ENDROOT
BRANCH   2   3
HETATM    3  C   UNL     1      -8.292  16.181  67.293  1.00  0.00    -0.204 C  
BRANCH   3   4
HETATM    4  C   UNL     1      -8.683  16.845  65.970  1.00  0.00    -0.158 C  
BRANCH   4   5
HETATM    5  S   UNL     1     -10.460  17.139  66.092  1.00  0.00    -0.209 S  
HETATM    6  O   UNL     1     -10.728  17.834  67.330  1.00  0.00    -0.357 OA 
HETATM    7  O   UNL     1     -10.883  17.662  64.816  1.00  0.00    -0.762 OA 
BRANCH   5   8
HETATM    8  N   UNL     1     -11.180  15.609  66.284  1.00  0.00    -0.122 N  
HETATM    9  H   UNL     1     -11.731  15.325  67.094  1.00  0.00     0.000 HD 
BRANCH   8  10
HETATM   10  C   UNL     1     -10.883  14.708  65.061  1.00  0.00    -0.417 C  
HETATM   11  C   UNL     1     -12.202  14.192  64.484  1.00  0.00    -0.445 C  
HETATM   12  O   UNL     1     -12.359  13.843  63.324  1.00  0.00    -0.749 OA 
HETATM   13  O   UNL     1     -13.202  14.160  65.400  1.00  0.00    -0.741 OA 
BRANCH  10  14
HETATM   14  C   UNL     1      -9.939  13.522  65.330  1.00  0.00    -0.206 C  
BRANCH  14  15
HETATM   15  C   UNL     1     -10.305  12.698  66.538  1.00  0.00    -0.256 A  
HETATM   16  C   UNL     1     -10.612  11.348  66.342  1.00  0.00    -0.311 A  
HETATM   17  C   UNL     1     -11.187  10.603  67.368  1.00  0.00    -0.280 A  
HETATM   18  C   UNL     1     -11.479  11.197  68.598  1.00  0.00    -0.298 A  
HETATM   19  C   UNL     1     -10.438  13.238  67.826  1.00  0.00    -0.242 A  
HETATM   20  C   UNL     1     -11.042  12.497  68.846  1.00  0.00    -0.309 A  
BRANCH  18  21
HETATM   21  O   UNL     1     -12.205  10.602  69.599  1.00  0.00    -0.290 OA 
BRANCH  21  22
HETATM   22  C   UNL     1     -12.336  11.409  70.771  1.00  0.00    -0.386 C  
BRANCH  22  23
HETATM   23  C   UNL     1     -12.880  10.604  71.939  1.00  0.00    -0.487 C  
BRANCH  23  24
HETATM   24  C   UNL     1     -12.578   9.101  71.852  1.00  0.00    -0.463 C  
BRANCH  24  25
HETATM   25  C   UNL     1     -11.060   8.904  71.891  1.00  0.00    -0.442 C  
BRANCH  25  26
HETATM   26  C   UNL     1     -10.512   8.037  73.039  1.00  0.00    -0.341 C  
HETATM   27  C   UNL     1     -11.139   6.632  72.957  1.00  0.00    -0.238 C  
HETATM   28  C   UNL     1     -10.485   5.769  71.878  1.00  0.00    -0.221 C  
HETATM   29  N   UNL     1      -9.059   5.620  72.150  1.00  0.00    -0.140 NA 
HETATM   30  H   UNL     1      -8.624   4.952  71.513  1.00  0.00     0.000 HD 
HETATM   31  C   UNL     1      -8.380   6.915  72.119  1.00  0.00    -0.105 C  
HETATM   32  C   UNL     1      -8.980   7.916  73.109  1.00  0.00    -0.304 C  
ENDBRANCH  25  26
ENDBRANCH  24  25
ENDBRANCH  23  24
ENDBRANCH  22  23
ENDBRANCH  21  22
ENDBRANCH  18  21
ENDBRANCH  14  15
ENDBRANCH  10  14
ENDBRANCH   8  10
ENDBRANCH   5   8
ENDBRANCH   4   5
ENDBRANCH   3   4
ENDBRANCH   2   3
TORSDOF 13
ENDMDL
MODEL       71
REMARK 921   NORMALIZED FREE ENERGY PREDICTED BY IDOCK:   -4.83 KCAL/MOL
REMARK 922        TOTAL FREE ENERGY PREDICTED BY IDOCK:  -11.05 KCAL/MOL
REMARK 923 INTER-LIGAND FREE ENERGY PREDICTED BY IDOCK:   -8.25 KCAL/MOL
REMARK 924 INTRA-LIGAND FREE ENERGY PREDICTED BY IDOCK:   -2.79 KCAL/MOL
REMARK 927      BINDING AFFINITY PREDICTED BY RF-SCORE:    0.00 PKD
ROOT
HETATM    1  C   UNL     1     -12.556  11.831  63.805  1.00  0.00    -0.413 C  
HETATM    2  C   UNL     1     -11.986  13.137  63.255  1.00  0.00    -0.445 C  
ENDROOT
BRANCH   2   3
HETATM    3  C   UNL     1     -11.803  14.109  64.408  1.00  0.00    -0.447 C  
BRANCH   3   4
HETATM    4  C   UNL     1     -12.754  13.951  65.598  1.00  0.00    -0.495 C  
BRANCH   4   5
HETATM    5  S   UNL     1     -11.691  13.575  67.009  1.00  0.00    -0.401 S  
HETATM    6  O   UNL     1     -11.570  14.761  67.824  1.00  0.00    -0.335 OA 
HETATM    7  O   UNL     1     -12.150  12.319  67.551  1.00  0.00    -0.514 OA 
BRANCH   5   8
HETATM    8  N   UNL     1     -10.134  13.321  66.371  1.00  0.00    -0.283 N  
HETATM    9  H   UNL     1      -9.706  13.891  65.642  1.00  0.00     0.000 HD 
BRANCH   8  10
HETATM   10  C   UNL     1      -9.457  12.106  67.050  1.00  0.00    -0.201 C  
HETATM   11  C   UNL     1      -8.191  12.572  67.770  1.00  0.00    -0.166 C  
HETATM   12  O   UNL     1      -7.686  11.997  68.722  1.00  0.00    -0.118 OA 
HETATM   13  O   UNL     1      -7.672  13.709  67.241  1.00  0.00    -0.154 OA 
BRANCH  10  14
HETATM   14  C   UNL     1      -9.115  10.933  66.113  1.00  0.00    -0.201 C  
BRANCH  14  15
HETATM   15  C   UNL     1      -9.284   9.571  66.737  1.00  0.00    -0.184 A  
HETATM   16  C   UNL     1      -8.132   8.893  67.151  1.00  0.00    -0.103 A  
HETATM   17  C   UNL     1      -8.200   7.549  67.506  1.00  0.00    -0.113 A  
HETATM   18  C   UNL     1      -9.412   6.857  67.439  1.00  0.00    -0.132 A  
HETATM   19  C   UNL     1     -10.522   8.920  66.841  1.00  0.00    -0.304 A  
HETATM   20  C   UNL     1     -10.583   7.564  67.171  1.00  0.00    -0.415 A  
BRANCH  18  21
HETATM   21  O   UNL     1      -9.545   5.500  67.592  1.00  0.00    -0.115 OA 
BRANCH  21  22
HETATM   22  C   UNL     1     -10.358   5.124  68.706  1.00  0.00    -0.092 C  
BRANCH  22  23
HETATM   23  C   UNL     1      -9.540   5.048  69.984  1.00  0.00    -0.258 C  
BRANCH  23  24
HETATM   24  C   UNL     1     -10.277   5.569  71.226  1.00  0.00    -0.283 C  
BRANCH  24  25
HETATM   25  C   UNL     1     -11.083   6.810  70.832  1.00  0.00    -0.322 C  
BRANCH  25  26
HETATM   26  C   UNL     1     -10.895   8.057  71.716  1.00  0.00    -0.297 C  
HETATM   27  C   UNL     1      -9.396   8.238  72.024  1.00  0.00    -0.298 C  
HETATM   28  C   UNL     1      -8.633   8.849  70.849  1.00  0.00    -0.199 C  
HETATM   29  N   UNL     1      -9.193  10.153  70.511  1.00  0.00    -0.249 NA 
HETATM   30  H   UNL     1      -8.628  10.635  69.811  1.00  0.00     0.000 HD 
HETATM   31  C   UNL     1     -10.588  10.034  70.089  1.00  0.00    -0.296 C  
HETATM   32  C   UNL     1     -11.467   9.367  71.149  1.00  0.00    -0.422 C  
ENDBRANCH  25  26
ENDBRANCH  24  25
ENDBRANCH  23  24
ENDBRANCH  22  23
ENDBRANCH  21  22
ENDBRANCH  18  21
ENDBRANCH  14  15
ENDBRANCH  10  14
ENDBRANCH   8  10
ENDBRANCH   5   8
ENDBRANCH   4   5
ENDBRANCH   3   4
ENDBRANCH   2   3
TORSDOF 13
ENDMDL
MODEL       72
REMARK 921   NORMALIZED FREE ENERGY PREDICTED BY IDOCK:   -4.82 KCAL/MOL
REMARK 922        TOTAL FREE ENERGY PREDICTED BY IDOCK:  -11.02 KCAL/MOL
REMARK 923 INTER-LIGAND FREE ENERGY PREDICTED BY IDOCK:   -9.13 KCAL/MOL
REMARK 924 INTRA-LIGAND FREE ENERGY PREDICTED BY IDOCK:   -1.89 KCAL/MOL
REMARK 927      BINDING AFFINITY PREDICTED BY RF-SCORE:    0.00 PKD
ROOT
HETATM    1  C   UNL     1     -13.286  15.431  71.472  1.00  0.00    -0.572 C  
HETATM    2  C   UNL     1     -11.813  15.792  71.297  1.00  0.00    -0.491 C  
ENDROOT
BRANCH   2   3
HETATM    3  C   UNL     1     -11.358  15.319  69.927  1.00  0.00    -0.308 C  
BRANCH   3   4
HETATM    4  C   UNL     1     -11.197  16.393  68.847  1.00  0.00    -0.304 C  
BRANCH   4   5
HETATM    5  S   UNL     1     -10.552  15.521  67.403  1.00  0.00    -0.295 S  
HETATM    6  O   UNL     1     -10.363  16.475  66.335  1.00  0.00    -0.302 OA 
HETATM    7  O   UNL     1      -9.479  14.678  67.873  1.00  0.00    -0.203 OA 
BRANCH   5   8
HETATM    8  N   UNL     1     -11.806  14.504  66.867  1.00  0.00    -0.395 N  
HETATM    9  H   UNL     1     -12.800  14.683  67.012  1.00  0.00     0.000 HD 
BRANCH   8  10
HETATM   10  C   UNL     1     -11.232  13.271  66.128  1.00  0.00    -0.296 C  
HETATM   11  C   UNL     1     -11.381  13.473  64.620  1.00  0.00    -0.356 C  
HETATM   12  O   UNL     1     -10.676  12.937  63.778  1.00  0.00    -0.397 OA 
HETATM   13  O   UNL     1     -12.389  14.323  64.298  1.00  0.00    -0.608 OA 
BRANCH  10  14
HETATM   14  C   UNL     1     -11.847  11.917  66.530  1.00  0.00    -0.132 C  
BRANCH  14  15
HETATM   15  C   UNL     1     -11.476  11.455  67.917  1.00  0.00    -0.361 A  
HETATM   16  C   UNL     1     -10.570  10.396  68.033  1.00  0.00    -0.259 A  
HETATM   17  C   UNL     1     -10.377   9.771  69.262  1.00  0.00    -0.230 A  
HETATM   18  C   UNL     1     -11.095  10.181  70.388  1.00  0.00    -0.324 A  
HETATM   19  C   UNL     1     -12.059  11.974  69.082  1.00  0.00    -0.241 A  
HETATM   20  C   UNL     1     -11.886  11.327  70.309  1.00  0.00    -0.446 A  
BRANCH  18  21
HETATM   21  O   UNL     1     -11.111   9.517  71.589  1.00  0.00    -0.371 OA 
BRANCH  21  22
HETATM   22  C   UNL     1     -12.422   9.153  72.027  1.00  0.00    -0.382 C  
BRANCH  22  23
HETATM   23  C   UNL     1     -12.892   7.874  71.357  1.00  0.00    -0.305 C  
BRANCH  23  24
HETATM   24  C   UNL     1     -12.146   6.616  71.823  1.00  0.00    -0.400 C  
BRANCH  24  25
HETATM   25  C   UNL     1     -11.246   6.130  70.683  1.00  0.00    -0.387 C  
BRANCH  25  26
HETATM   26  C   UNL     1      -9.747   6.458  70.807  1.00  0.00    -0.197 C  
HETATM   27  C   UNL     1      -9.313   6.297  72.278  1.00  0.00    -0.146 C  
HETATM   28  C   UNL     1      -9.114   4.833  72.665  1.00  0.00    -0.127 C  
HETATM   29  N   UNL     1      -8.095   4.223  71.816  1.00  0.00    -0.090 NA 
HETATM   30  H   UNL     1      -7.857   3.283  72.132  1.00  0.00     0.000 HD 
HETATM   31  C   UNL     1      -8.504   4.234  70.413  1.00  0.00    -0.073 C  
HETATM   32  C   UNL     1      -8.810   5.643  69.901  1.00  0.00    -0.135 C  
ENDBRANCH  25  26
ENDBRANCH  24  25
ENDBRANCH  23  24
ENDBRANCH  22  23
ENDBRANCH  21  22
ENDBRANCH  18  21
ENDBRANCH  14  15
ENDBRANCH  10  14
ENDBRANCH   8  10
ENDBRANCH   5   8
ENDBRANCH   4   5
ENDBRANCH   3   4
ENDBRANCH   2   3
TORSDOF 13
ENDMDL
MODEL       73
REMARK 921   NORMALIZED FREE ENERGY PREDICTED BY IDOCK:   -4.81 KCAL/MOL
REMARK 922        TOTAL FREE ENERGY PREDICTED BY IDOCK:  -11.01 KCAL/MOL
REMARK 923 INTER-LIGAND FREE ENERGY PREDICTED BY IDOCK:   -9.72 KCAL/MOL
REMARK 924 INTRA-LIGAND FREE ENERGY PREDICTED BY IDOCK:   -1.29 KCAL/MOL
REMARK 927      BINDING AFFINITY PREDICTED BY RF-SCORE:    0.00 PKD
ROOT
HETATM    1  C   UNL     1     -12.490  13.222  70.888  1.00  0.00    -0.424 C  
HETATM    2  C   UNL     1     -12.897  11.912  71.558  1.00  0.00    -0.421 C  
ENDROOT
BRANCH   2   3
HETATM    3  C   UNL     1     -12.067  10.786  70.964  1.00  0.00    -0.452 C  
BRANCH   3   4
HETATM    4  C   UNL     1     -11.967   9.498  71.785  1.00  0.00    -0.371 C  
BRANCH   4   5
HETATM    5  S   UNL     1     -10.370   8.778  71.346  1.00  0.00    -0.307 S  
HETATM    6  O   UNL     1      -9.461   8.966  72.452  1.00  0.00    -0.315 OA 
HETATM    7  O   UNL     1     -10.641   7.473  70.793  1.00  0.00    -0.216 OA 
BRANCH   5   8
HETATM    8  N   UNL     1      -9.744   9.746  70.094  1.00  0.00    -0.271 N  
HETATM    9  H   UNL     1      -9.658  10.762  70.135  1.00  0.00     0.000 HD 
BRANCH   8  10
HETATM   10  C   UNL     1      -9.324   8.875  68.887  1.00  0.00    -0.140 C  
HETATM   11  C   UNL     1      -8.004   9.402  68.321  1.00  0.00    -0.094 C  
HETATM   12  O   UNL     1      -7.205   8.728  67.689  1.00  0.00    -0.079 OA 
HETATM   13  O   UNL     1      -7.801  10.715  68.593  1.00  0.00    -0.105 OA 
BRANCH  10  14
HETATM   14  C   UNL     1     -10.364   8.768  67.756  1.00  0.00    -0.297 C  
BRANCH  14  15
HETATM   15  C   UNL     1     -10.552  10.038  66.965  1.00  0.00    -0.279 A  
HETATM   16  C   UNL     1      -9.909  10.139  65.727  1.00  0.00    -0.331 A  
HETATM   17  C   UNL     1      -9.846  11.365  65.069  1.00  0.00    -0.304 A  
HETATM   18  C   UNL     1     -10.409  12.508  65.641  1.00  0.00    -0.271 A  
HETATM   19  C   UNL     1     -11.265  11.146  67.447  1.00  0.00    -0.363 A  
HETATM   20  C   UNL     1     -11.176  12.381  66.799  1.00  0.00    -0.363 A  
BRANCH  18  21
HETATM   21  O   UNL     1     -10.242  13.783  65.163  1.00  0.00    -0.351 OA 
BRANCH  21  22
HETATM   22  C   UNL     1     -11.117  14.741  65.764  1.00  0.00    -0.338 C  
BRANCH  22  23
HETATM   23  C   UNL     1     -10.369  16.003  66.155  1.00  0.00    -0.340 C  
BRANCH  23  24
HETATM   24  C   UNL     1     -10.680  16.496  67.575  1.00  0.00    -0.283 C  
BRANCH  24  25
HETATM   25  C   UNL     1      -9.462  17.256  68.108  1.00  0.00    -0.278 C  
BRANCH  25  26
HETATM   26  C   UNL     1      -9.657  18.760  68.376  1.00  0.00    -0.409 C  
HETATM   27  C   UNL     1      -8.306  19.483  68.211  1.00  0.00    -0.375 C  
HETATM   28  C   UNL     1      -7.944  19.703  66.743  1.00  0.00    -0.292 C  
HETATM   29  N   UNL     1      -8.975  20.500  66.085  1.00  0.00    -0.561 NA 
HETATM   30  H   UNL     1      -8.699  20.763  65.138  1.00  0.00     0.000 HD 
HETATM   31  C   UNL     1     -10.263  19.808  66.099  1.00  0.00    -0.516 C  
HETATM   32  C   UNL     1     -10.725  19.456  67.515  1.00  0.00    -0.570 C  
ENDBRANCH  25  26
ENDBRANCH  24  25
ENDBRANCH  23  24
ENDBRANCH  22  23
ENDBRANCH  21  22
ENDBRANCH  18  21
ENDBRANCH  14  15
ENDBRANCH  10  14
ENDBRANCH   8  10
ENDBRANCH   5   8
ENDBRANCH   4   5
ENDBRANCH   3   4
ENDBRANCH   2   3
TORSDOF 13
ENDMDL
MODEL       74
REMARK 921   NORMALIZED FREE ENERGY PREDICTED BY IDOCK:   -4.81 KCAL/MOL
REMARK 922        TOTAL FREE ENERGY PREDICTED BY IDOCK:  -11.01 KCAL/MOL
REMARK 923 INTER-LIGAND FREE ENERGY PREDICTED BY IDOCK:   -8.75 KCAL/MOL
REMARK 924 INTRA-LIGAND FREE ENERGY PREDICTED BY IDOCK:   -2.26 KCAL/MOL
REMARK 927      BINDING AFFINITY PREDICTED BY RF-SCORE:    0.00 PKD
ROOT
HETATM    1  C   UNL     1     -10.199  15.397  65.131  1.00  0.00    -0.360 C  
HETATM    2  C   UNL     1     -10.950  15.442  66.460  1.00  0.00    -0.271 C  
ENDROOT
BRANCH   2   3
HETATM    3  C   UNL     1     -10.671  16.776  67.130  1.00  0.00    -0.189 C  
BRANCH   3   4
HETATM    4  C   UNL     1     -10.217  17.921  66.220  1.00  0.00    -0.363 C  
BRANCH   4   5
HETATM    5  S   UNL     1      -9.684  19.234  67.339  1.00  0.00    -0.338 S  
HETATM    6  O   UNL     1     -10.021  20.508  66.749  1.00  0.00    -0.433 OA 
HETATM    7  O   UNL     1     -10.133  18.861  68.659  1.00  0.00    -0.388 OA 
BRANCH   5   8
HETATM    8  N   UNL     1      -7.983  19.189  67.344  1.00  0.00    -0.257 N  
HETATM    9  H   UNL     1      -7.396  19.353  66.526  1.00  0.00     0.000 HD 
BRANCH   8  10
HETATM   10  C   UNL     1      -7.448  18.866  68.759  1.00  0.00    -0.325 C  
HETATM   11  C   UNL     1      -6.677  20.074  69.294  1.00  0.00    -0.289 C  
HETATM   12  O   UNL     1      -6.513  20.319  70.480  1.00  0.00    -0.427 OA 
HETATM   13  O   UNL     1      -6.183  20.864  68.307  1.00  0.00    -0.326 OA 
BRANCH  10  14
HETATM   14  C   UNL     1      -6.568  17.607  68.860  1.00  0.00    -0.228 C  
BRANCH  14  15
HETATM   15  C   UNL     1      -7.282  16.322  68.521  1.00  0.00    -0.159 A  
HETATM   16  C   UNL     1      -8.211  15.827  69.442  1.00  0.00    -0.211 A  
HETATM   17  C   UNL     1      -8.717  14.538  69.301  1.00  0.00     0.112 A  
HETATM   18  C   UNL     1      -8.294  13.719  68.252  1.00  0.00    -0.161 A  
HETATM   19  C   UNL     1      -6.997  15.562  67.377  1.00  0.00    -0.232 A  
HETATM   20  C   UNL     1      -7.484  14.258  67.254  1.00  0.00    -0.082 A  
BRANCH  18  21
HETATM   21  O   UNL     1      -8.592  12.384  68.134  1.00  0.00    -0.173 OA 
BRANCH  21  22
HETATM   22  C   UNL     1      -9.598  12.105  67.159  1.00  0.00    -0.194 C  
BRANCH  22  23
HETATM   23  C   UNL     1     -10.715  11.258  67.744  1.00  0.00    -0.265 C  
BRANCH  23  24
HETATM   24  C   UNL     1     -11.246  11.772  69.090  1.00  0.00    -0.324 C  
BRANCH  24  25
HETATM   25  C   UNL     1     -12.137  10.692  69.709  1.00  0.00    -0.343 C  
BRANCH  25  26
HETATM   26  C   UNL     1     -11.876  10.356  71.189  1.00  0.00    -0.432 C  
HETATM   27  C   UNL     1     -13.220  10.304  71.941  1.00  0.00    -0.550 C  
HETATM   28  C   UNL     1     -13.974   8.999  71.688  1.00  0.00    -0.332 C  
HETATM   29  N   UNL     1     -13.166   7.861  72.113  1.00  0.00    -0.506 NA 
HETATM   30  H   UNL     1     -13.692   6.988  72.067  1.00  0.00     0.000 HD 
HETATM   31  C   UNL     1     -11.923   7.782  71.346  1.00  0.00    -0.306 C  
HETATM   32  C   UNL     1     -11.088   9.061  71.448  1.00  0.00    -0.399 C  
ENDBRANCH  25  26
ENDBRANCH  24  25
ENDBRANCH  23  24
ENDBRANCH  22  23
ENDBRANCH  21  22
ENDBRANCH  18  21
ENDBRANCH  14  15
ENDBRANCH  10  14
ENDBRANCH   8  10
ENDBRANCH   5   8
ENDBRANCH   4   5
ENDBRANCH   3   4
ENDBRANCH   2   3
TORSDOF 13
ENDMDL
MODEL       75
REMARK 921   NORMALIZED FREE ENERGY PREDICTED BY IDOCK:   -4.81 KCAL/MOL
REMARK 922        TOTAL FREE ENERGY PREDICTED BY IDOCK:  -11.00 KCAL/MOL
REMARK 923 INTER-LIGAND FREE ENERGY PREDICTED BY IDOCK:   -8.55 KCAL/MOL
REMARK 924 INTRA-LIGAND FREE ENERGY PREDICTED BY IDOCK:   -2.46 KCAL/MOL
REMARK 927      BINDING AFFINITY PREDICTED BY RF-SCORE:    0.00 PKD
ROOT
HETATM    1  C   UNL     1     -11.833  12.561  64.004  1.00  0.00    -0.510 C  
HETATM    2  C   UNL     1     -12.520  13.140  65.239  1.00  0.00    -0.550 C  
ENDROOT
BRANCH   2   3
HETATM    3  C   UNL     1     -11.463  13.423  66.293  1.00  0.00    -0.354 C  
BRANCH   3   4
HETATM    4  C   UNL     1     -11.923  13.395  67.754  1.00  0.00    -0.324 C  
BRANCH   4   5
HETATM    5  S   UNL     1     -11.263  11.856  68.430  1.00  0.00    -0.285 S  
HETATM    6  O   UNL     1     -12.034  10.754  67.903  1.00  0.00    -0.518 OA 
HETATM    7  O   UNL     1      -9.829  11.922  68.288  1.00  0.00    -0.190 OA 
BRANCH   5   8
HETATM    8  N   UNL     1     -11.617  11.882  70.094  1.00  0.00    -0.520 N  
HETATM    9  H   UNL     1     -11.643  12.725  70.668  1.00  0.00     0.000 HD 
BRANCH   8  10
HETATM   10  C   UNL     1     -11.891  10.452  70.618  1.00  0.00    -0.350 C  
HETATM   11  C   UNL     1     -13.056  10.493  71.607  1.00  0.00    -0.446 C  
HETATM   12  O   UNL     1     -13.785   9.545  71.857  1.00  0.00    -0.377 OA 
HETATM   13  O   UNL     1     -13.208  11.708  72.193  1.00  0.00    -0.504 OA 
BRANCH  10  14
HETATM   14  C   UNL     1     -10.687   9.746  71.268  1.00  0.00    -0.204 C  
BRANCH  14  15
HETATM   15  C   UNL     1     -10.685   8.247  71.104  1.00  0.00    -0.270 A  
HETATM   16  C   UNL     1      -9.843   7.498  71.933  1.00  0.00    -0.196 A  
HETATM   17  C   UNL     1      -9.617   6.150  71.669  1.00  0.00    -0.166 A  
HETATM   18  C   UNL     1     -10.213   5.533  70.567  1.00  0.00    -0.242 A  
HETATM   19  C   UNL     1     -11.415   7.581  70.108  1.00  0.00    -0.116 A  
HETATM   20  C   UNL     1     -11.164   6.235  69.827  1.00  0.00    -0.499 A  
BRANCH  18  21
HETATM   21  O   UNL     1      -9.911   4.270  70.122  1.00  0.00    -0.220 OA 
BRANCH  21  22
HETATM   22  C   UNL     1      -8.540   4.102  69.757  1.00  0.00    -0.064 C  
BRANCH  22  23
HETATM   23  C   UNL     1      -8.247   4.729  68.404  1.00  0.00    -0.084 C  
BRANCH  23  24
HETATM   24  C   UNL     1      -7.400   6.007  68.481  1.00  0.00    -0.085 C  
BRANCH  24  25
HETATM   25  C   UNL     1      -8.232   7.178  67.951  1.00  0.00    -0.119 C  
BRANCH  25  26
HETATM   26  C   UNL     1      -9.208   6.860  66.803  1.00  0.00    -0.177 C  
HETATM   27  C   UNL     1     -10.187   8.037  66.630  1.00  0.00    -0.315 C  
HETATM   28  C   UNL     1      -9.555   9.211  65.884  1.00  0.00    -0.273 C  
HETATM   29  N   UNL     1      -9.112   8.785  64.560  1.00  0.00    -0.392 NA 
HETATM   30  H   UNL     1      -8.797   9.575  63.997  1.00  0.00     0.000 HD 
HETATM   31  C   UNL     1      -8.085   7.748  64.658  1.00  0.00    -0.123 C  
HETATM   32  C   UNL     1      -8.557   6.527  65.450  1.00  0.00    -0.076 C  
ENDBRANCH  25  26
ENDBRANCH  24  25
ENDBRANCH  23  24
ENDBRANCH  22  23
ENDBRANCH  21  22
ENDBRANCH  18  21
ENDBRANCH  14  15
ENDBRANCH  10  14
ENDBRANCH   8  10
ENDBRANCH   5   8
ENDBRANCH   4   5
ENDBRANCH   3   4
ENDBRANCH   2   3
TORSDOF 13
ENDMDL
MODEL       76
REMARK 921   NORMALIZED FREE ENERGY PREDICTED BY IDOCK:   -4.80 KCAL/MOL
REMARK 922        TOTAL FREE ENERGY PREDICTED BY IDOCK:  -10.99 KCAL/MOL
REMARK 923 INTER-LIGAND FREE ENERGY PREDICTED BY IDOCK:   -8.33 KCAL/MOL
REMARK 924 INTRA-LIGAND FREE ENERGY PREDICTED BY IDOCK:   -2.66 KCAL/MOL
REMARK 927      BINDING AFFINITY PREDICTED BY RF-SCORE:    0.00 PKD
ROOT
HETATM    1  C   UNL     1      -9.126   4.586  67.928  1.00  0.00    -0.147 C  
HETATM    2  C   UNL     1     -10.040   5.790  67.717  1.00  0.00    -0.196 C  
ENDROOT
BRANCH   2   3
HETATM    3  C   UNL     1     -10.998   5.883  68.892  1.00  0.00    -0.337 C  
BRANCH   3   4
HETATM    4  C   UNL     1     -10.385   5.760  70.291  1.00  0.00    -0.252 C  
BRANCH   4   5
HETATM    5  S   UNL     1     -11.541   6.607  71.391  1.00  0.00    -0.329 S  
HETATM    6  O   UNL     1     -12.657   7.083  70.608  1.00  0.00    -0.260 OA 
HETATM    7  O   UNL     1     -11.722   5.752  72.539  1.00  0.00    -0.309 OA 
BRANCH   5   8
HETATM    8  N   UNL     1     -10.744   8.014  71.920  1.00  0.00    -0.237 N  
HETATM    9  H   UNL     1     -10.877   8.447  72.834  1.00  0.00     0.000 HD 
BRANCH   8  10
HETATM   10  C   UNL     1      -9.792   8.549  70.824  1.00  0.00    -0.182 C  
HETATM   11  C   UNL     1      -8.379   8.666  71.397  1.00  0.00    -0.168 C  
HETATM   12  O   UNL     1      -7.357   8.630  70.729  1.00  0.00    -0.055 OA 
HETATM   13  O   UNL     1      -8.368   8.815  72.746  1.00  0.00    -0.412 OA 
BRANCH  10  14
HETATM   14  C   UNL     1     -10.203   9.891  70.190  1.00  0.00    -0.326 C  
BRANCH  14  15
HETATM   15  C   UNL     1      -9.855  10.019  68.728  1.00  0.00    -0.173 A  
HETATM   16  C   UNL     1      -8.792  10.860  68.380  1.00  0.00    -0.147 A  
HETATM   17  C   UNL     1      -8.580  11.205  67.048  1.00  0.00    -0.147 A  
HETATM   18  C   UNL     1      -9.431  10.732  66.048  1.00  0.00    -0.194 A  
HETATM   19  C   UNL     1     -10.594   9.408  67.704  1.00  0.00    -0.333 A  
HETATM   20  C   UNL     1     -10.397   9.779  66.372  1.00  0.00    -0.247 A  
BRANCH  18  21
HETATM   21  O   UNL     1      -9.416  11.157  64.743  1.00  0.00    -0.220 OA 
BRANCH  21  22
HETATM   22  C   UNL     1     -10.715  11.254  64.155  1.00  0.00    -0.369 C  
BRANCH  22  23
HETATM   23  C   UNL     1     -11.216  12.688  64.155  1.00  0.00    -0.437 C  
BRANCH  23  24
HETATM   24  C   UNL     1     -12.516  12.893  64.944  1.00  0.00    -0.540 C  
BRANCH  24  25
HETATM   25  C   UNL     1     -12.284  13.979  65.998  1.00  0.00    -0.484 C  
BRANCH  25  26
HETATM   26  C   UNL     1     -11.213  13.681  67.064  1.00  0.00    -0.328 C  
HETATM   27  C   UNL     1     -10.301  14.913  67.225  1.00  0.00    -0.251 C  
HETATM   28  C   UNL     1     -10.954  16.010  68.063  1.00  0.00    -0.341 C  
HETATM   29  N   UNL     1     -11.277  15.502  69.392  1.00  0.00    -0.277 NA 
HETATM   30  H   UNL     1     -11.603  16.246  70.010  1.00  0.00     0.000 HD 
HETATM   31  C   UNL     1     -12.240  14.404  69.316  1.00  0.00    -0.239 C  
HETATM   32  C   UNL     1     -11.747  13.250  68.440  1.00  0.00    -0.389 C  
ENDBRANCH  25  26
ENDBRANCH  24  25
ENDBRANCH  23  24
ENDBRANCH  22  23
ENDBRANCH  21  22
ENDBRANCH  18  21
ENDBRANCH  14  15
ENDBRANCH  10  14
ENDBRANCH   8  10
ENDBRANCH   5   8
ENDBRANCH   4   5
ENDBRANCH   3   4
ENDBRANCH   2   3
TORSDOF 13
ENDMDL
MODEL       77
REMARK 921   NORMALIZED FREE ENERGY PREDICTED BY IDOCK:   -4.79 KCAL/MOL
REMARK 922        TOTAL FREE ENERGY PREDICTED BY IDOCK:  -10.97 KCAL/MOL
REMARK 923 INTER-LIGAND FREE ENERGY PREDICTED BY IDOCK:   -8.57 KCAL/MOL
REMARK 924 INTRA-LIGAND FREE ENERGY PREDICTED BY IDOCK:   -2.40 KCAL/MOL
REMARK 927      BINDING AFFINITY PREDICTED BY RF-SCORE:    0.00 PKD
ROOT
HETATM    1  C   UNL     1     -11.231  16.098  64.642  1.00  0.00    -0.307 C  
HETATM    2  C   UNL     1     -10.382  15.086  65.409  1.00  0.00    -0.410 C  
ENDROOT
BRANCH   2   3
HETATM    3  C   UNL     1      -9.935  15.721  66.714  1.00  0.00    -0.260 C  
BRANCH   3   4
HETATM    4  C   UNL     1     -11.027  16.009  67.749  1.00  0.00    -0.307 C  
BRANCH   4   5
HETATM    5  S   UNL     1     -10.991  14.601  68.881  1.00  0.00    -0.264 S  
HETATM    6  O   UNL     1      -9.686  13.986  68.809  1.00  0.00    -0.205 OA 
HETATM    7  O   UNL     1     -11.552  15.058  70.129  1.00  0.00    -0.254 OA 
BRANCH   5   8
HETATM    8  N   UNL     1     -12.058  13.446  68.231  1.00  0.00    -0.307 N  
HETATM    9  H   UNL     1     -13.029  13.631  67.978  1.00  0.00     0.000 HD 
BRANCH   8  10
HETATM   10  C   UNL     1     -11.354  12.077  68.077  1.00  0.00    -0.296 C  
HETATM   11  C   UNL     1     -11.242  11.733  66.591  1.00  0.00    -0.323 C  
HETATM   12  O   UNL     1     -10.397  10.989  66.116  1.00  0.00    -0.239 OA 
HETATM   13  O   UNL     1     -12.187  12.346  65.835  1.00  0.00    -0.629 OA 
BRANCH  10  14
HETATM   14  C   UNL     1     -12.015  10.907  68.829  1.00  0.00    -0.230 C  
BRANCH  14  15
HETATM   15  C   UNL     1     -11.160  10.305  69.915  1.00  0.00    -0.362 A  
HETATM   16  C   UNL     1      -9.781  10.223  69.693  1.00  0.00    -0.216 A  
HETATM   17  C   UNL     1      -8.979   9.466  70.542  1.00  0.00    -0.303 A  
HETATM   18  C   UNL     1      -9.539   8.768  71.614  1.00  0.00    -0.293 A  
HETATM   19  C   UNL     1     -11.687   9.748  71.090  1.00  0.00    -0.465 A  
HETATM   20  C   UNL     1     -10.884   8.966  71.924  1.00  0.00    -0.433 A  
BRANCH  18  21
HETATM   21  O   UNL     1      -8.867   7.858  72.390  1.00  0.00    -0.126 OA 
BRANCH  21  22
HETATM   22  C   UNL     1      -9.573   6.630  72.577  1.00  0.00    -0.153 C  
BRANCH  22  23
HETATM   23  C   UNL     1      -9.143   5.586  71.560  1.00  0.00    -0.153 C  
BRANCH  23  24
HETATM   24  C   UNL     1     -10.294   5.044  70.701  1.00  0.00    -0.278 C  
BRANCH  24  25
HETATM   25  C   UNL     1     -10.592   6.053  69.588  1.00  0.00    -0.367 C  
BRANCH  25  26
HETATM   26  C   UNL     1     -10.105   5.678  68.176  1.00  0.00    -0.212 C  
HETATM   27  C   UNL     1     -10.973   6.405  67.131  1.00  0.00    -0.476 C  
HETATM   28  C   UNL     1     -10.578   7.872  66.971  1.00  0.00    -0.311 C  
HETATM   29  N   UNL     1      -9.182   7.975  66.559  1.00  0.00    -0.177 NA 
HETATM   30  H   UNL     1      -8.928   8.936  66.329  1.00  0.00     0.000 HD 
HETATM   31  C   UNL     1      -8.292   7.409  67.573  1.00  0.00    -0.113 C  
HETATM   32  C   UNL     1      -8.618   5.949  67.891  1.00  0.00    -0.105 C  
ENDBRANCH  25  26
ENDBRANCH  24  25
ENDBRANCH  23  24
ENDBRANCH  22  23
ENDBRANCH  21  22
ENDBRANCH  18  21
ENDBRANCH  14  15
ENDBRANCH  10  14
ENDBRANCH   8  10
ENDBRANCH   5   8
ENDBRANCH   4   5
ENDBRANCH   3   4
ENDBRANCH   2   3
TORSDOF 13
ENDMDL
MODEL       78
REMARK 921   NORMALIZED FREE ENERGY PREDICTED BY IDOCK:   -4.78 KCAL/MOL
REMARK 922        TOTAL FREE ENERGY PREDICTED BY IDOCK:  -10.96 KCAL/MOL
REMARK 923 INTER-LIGAND FREE ENERGY PREDICTED BY IDOCK:   -9.68 KCAL/MOL
REMARK 924 INTRA-LIGAND FREE ENERGY PREDICTED BY IDOCK:   -1.28 KCAL/MOL
REMARK 927      BINDING AFFINITY PREDICTED BY RF-SCORE:    0.00 PKD
ROOT
HETATM    1  C   UNL     1     -11.995  14.917  70.126  1.00  0.00    -0.368 C  
HETATM    2  C   UNL     1     -10.505  15.205  69.950  1.00  0.00    -0.234 C  
ENDROOT
BRANCH   2   3
HETATM    3  C   UNL     1     -10.155  15.060  68.480  1.00  0.00    -0.225 C  
BRANCH   3   4
HETATM    4  C   UNL     1     -10.950  15.922  67.495  1.00  0.00    -0.280 C  
BRANCH   4   5
HETATM    5  S   UNL     1     -10.113  15.722  65.907  1.00  0.00    -0.383 S  
HETATM    6  O   UNL     1      -9.798  17.031  65.384  1.00  0.00    -0.531 OA 
HETATM    7  O   UNL     1      -9.102  14.711  66.095  1.00  0.00    -0.226 OA 
BRANCH   5   8
HETATM    8  N   UNL     1     -11.276  15.092  64.836  1.00  0.00    -0.432 N  
HETATM    9  H   UNL     1     -11.856  15.654  64.214  1.00  0.00     0.000 HD 
BRANCH   8  10
HETATM   10  C   UNL     1     -11.334  13.549  64.937  1.00  0.00    -0.334 C  
HETATM   11  C   UNL     1     -11.951  12.983  63.658  1.00  0.00    -0.539 C  
HETATM   12  O   UNL     1     -11.751  11.855  63.234  1.00  0.00    -0.400 OA 
HETATM   13  O   UNL     1     -12.758  13.871  63.024  1.00  0.00    -0.634 OA 
BRANCH  10  14
HETATM   14  C   UNL     1     -12.087  12.996  66.161  1.00  0.00    -0.473 C  
BRANCH  14  15
HETATM   15  C   UNL     1     -11.417  11.816  66.820  1.00  0.00    -0.352 A  
HETATM   16  C   UNL     1     -11.726  11.551  68.158  1.00  0.00    -0.357 A  
HETATM   17  C   UNL     1     -10.968  10.636  68.884  1.00  0.00    -0.296 A  
HETATM   18  C   UNL     1      -9.883   9.986  68.294  1.00  0.00    -0.146 A  
HETATM   19  C   UNL     1     -10.442  11.032  66.186  1.00  0.00    -0.301 A  
HETATM   20  C   UNL     1      -9.664  10.136  66.925  1.00  0.00    -0.233 A  
BRANCH  18  21
HETATM   21  O   UNL     1      -8.972   9.214  68.971  1.00  0.00    -0.139 OA 
BRANCH  21  22
HETATM   22  C   UNL     1      -8.016   9.972  69.714  1.00  0.00    -0.180 C  
BRANCH  22  23
HETATM   23  C   UNL     1      -7.667   9.288  71.025  1.00  0.00    -0.100 C  
BRANCH  23  24
HETATM   24  C   UNL     1      -8.870   8.651  71.734  1.00  0.00    -0.281 C  
BRANCH  24  25
HETATM   25  C   UNL     1      -8.672   7.132  71.766  1.00  0.00    -0.121 C  
BRANCH  25  26
HETATM   26  C   UNL     1      -9.923   6.285  72.061  1.00  0.00    -0.187 C  
HETATM   27  C   UNL     1     -11.090   7.220  72.437  1.00  0.00    -0.315 C  
HETATM   28  C   UNL     1     -11.720   7.879  71.211  1.00  0.00    -0.287 C  
HETATM   29  N   UNL     1     -12.224   6.861  70.295  1.00  0.00    -0.624 NA 
HETATM   30  H   UNL     1     -12.755   7.274  69.529  1.00  0.00     0.000 HD 
HETATM   31  C   UNL     1     -11.139   6.012  69.804  1.00  0.00    -0.406 C  
HETATM   32  C   UNL     1     -10.364   5.335  70.936  1.00  0.00    -0.303 C  
ENDBRANCH  25  26
ENDBRANCH  24  25
ENDBRANCH  23  24
ENDBRANCH  22  23
ENDBRANCH  21  22
ENDBRANCH  18  21
ENDBRANCH  14  15
ENDBRANCH  10  14
ENDBRANCH   8  10
ENDBRANCH   5   8
ENDBRANCH   4   5
ENDBRANCH   3   4
ENDBRANCH   2   3
TORSDOF 13
ENDMDL
MODEL       79
REMARK 921   NORMALIZED FREE ENERGY PREDICTED BY IDOCK:   -4.77 KCAL/MOL
REMARK 922        TOTAL FREE ENERGY PREDICTED BY IDOCK:  -10.94 KCAL/MOL
REMARK 923 INTER-LIGAND FREE ENERGY PREDICTED BY IDOCK:   -8.73 KCAL/MOL
REMARK 924 INTRA-LIGAND FREE ENERGY PREDICTED BY IDOCK:   -2.21 KCAL/MOL
REMARK 927      BINDING AFFINITY PREDICTED BY RF-SCORE:    0.00 PKD
ROOT
HETATM    1  C   UNL     1     -12.430  11.574  70.840  1.00  0.00    -0.464 C  
HETATM    2  C   UNL     1     -12.672  10.096  71.140  1.00  0.00    -0.494 C  
ENDROOT
BRANCH   2   3
HETATM    3  C   UNL     1     -11.351   9.356  71.027  1.00  0.00    -0.407 C  
BRANCH   3   4
HETATM    4  C   UNL     1     -11.030   8.348  72.135  1.00  0.00    -0.341 C  
BRANCH   4   5
HETATM    5  S   UNL     1      -9.240   8.115  72.059  1.00  0.00    -0.214 S  
HETATM    6  O   UNL     1      -8.783   8.482  70.740  1.00  0.00    -0.137 OA 
HETATM    7  O   UNL     1      -8.693   8.716  73.252  1.00  0.00    -0.352 OA 
BRANCH   5   8
HETATM    8  N   UNL     1      -8.978   6.437  72.164  1.00  0.00    -0.137 N  
HETATM    9  H   UNL     1      -8.088   6.003  72.410  1.00  0.00     0.000 HD 
BRANCH   8  10
HETATM   10  C   UNL     1     -10.274   5.659  71.834  1.00  0.00    -0.195 C  
HETATM   11  C   UNL     1     -10.666   4.800  73.037  1.00  0.00    -0.237 C  
HETATM   12  O   UNL     1     -11.804   4.426  73.278  1.00  0.00    -0.175 OA 
HETATM   13  O   UNL     1      -9.609   4.488  73.829  1.00  0.00    -0.122 OA 
BRANCH  10  14
HETATM   14  C   UNL     1     -10.212   4.779  70.571  1.00  0.00    -0.252 C  
BRANCH  14  15
HETATM   15  C   UNL     1     -10.093   5.552  69.282  1.00  0.00    -0.293 A  
HETATM   16  C   UNL     1      -8.834   5.627  68.677  1.00  0.00    -0.109 A  
HETATM   17  C   UNL     1      -8.612   6.517  67.630  1.00  0.00    -0.116 A  
HETATM   18  C   UNL     1      -9.635   7.355  67.182  1.00  0.00    -0.159 A  
HETATM   19  C   UNL     1     -11.157   6.267  68.712  1.00  0.00    -0.424 A  
HETATM   20  C   UNL     1     -10.925   7.180  67.681  1.00  0.00    -0.226 A  
BRANCH  18  21
HETATM   21  O   UNL     1      -9.466   8.384  66.288  1.00  0.00    -0.211 OA 
BRANCH  21  22
HETATM   22  C   UNL     1     -10.167   9.577  66.647  1.00  0.00    -0.240 C  
BRANCH  22  23
HETATM   23  C   UNL     1      -9.238  10.588  67.298  1.00  0.00    -0.156 C  
BRANCH  23  24
HETATM   24  C   UNL     1      -9.886  11.956  67.548  1.00  0.00    -0.194 C  
BRANCH  24  25
HETATM   25  C   UNL     1     -11.296  11.947  66.950  1.00  0.00    -0.392 C  
BRANCH  25  26
HETATM   26  C   UNL     1     -11.642  13.105  65.996  1.00  0.00    -0.393 C  
HETATM   27  C   UNL     1     -10.373  13.528  65.231  1.00  0.00    -0.344 C  
HETATM   28  C   UNL     1     -10.040  12.570  64.088  1.00  0.00    -0.284 C  
HETATM   29  N   UNL     1     -11.149  12.513  63.141  1.00  0.00    -0.715 NA 
HETATM   30  H   UNL     1     -10.905  11.976  62.309  1.00  0.00     0.000 HD 
HETATM   31  C   UNL     1     -12.360  12.000  63.779  1.00  0.00    -0.496 C  
HETATM   32  C   UNL     1     -12.778  12.827  64.997  1.00  0.00    -0.455 C  
ENDBRANCH  25  26
ENDBRANCH  24  25
ENDBRANCH  23  24
ENDBRANCH  22  23
ENDBRANCH  21  22
ENDBRANCH  18  21
ENDBRANCH  14  15
ENDBRANCH  10  14
ENDBRANCH   8  10
ENDBRANCH   5   8
ENDBRANCH   4   5
ENDBRANCH   3   4
ENDBRANCH   2   3
TORSDOF 13
ENDMDL
MODEL       80
REMARK 921   NORMALIZED FREE ENERGY PREDICTED BY IDOCK:   -4.75 KCAL/MOL
REMARK 922        TOTAL FREE ENERGY PREDICTED BY IDOCK:  -10.90 KCAL/MOL
REMARK 923 INTER-LIGAND FREE ENERGY PREDICTED BY IDOCK:   -9.01 KCAL/MOL
REMARK 924 INTRA-LIGAND FREE ENERGY PREDICTED BY IDOCK:   -1.89 KCAL/MOL
REMARK 927      BINDING AFFINITY PREDICTED BY RF-SCORE:    0.00 PKD
ROOT
HETATM    1  C   UNL     1     -12.989  10.635  70.474  1.00  0.00    -0.277 C  
HETATM    2  C   UNL     1     -11.496  10.476  70.195  1.00  0.00    -0.405 C  
ENDROOT
BRANCH   2   3
HETATM    3  C   UNL     1     -11.110  11.427  69.076  1.00  0.00    -0.300 C  
BRANCH   3   4
HETATM    4  C   UNL     1     -11.669  12.851  69.157  1.00  0.00    -0.324 C  
BRANCH   4   5
HETATM    5  S   UNL     1     -11.323  13.589  67.546  1.00  0.00    -0.325 S  
HETATM    6  O   UNL     1     -12.317  14.603  67.281  1.00  0.00    -0.203 OA 
HETATM    7  O   UNL     1      -9.910  13.879  67.517  1.00  0.00    -0.229 OA 
BRANCH   5   8
HETATM    8  N   UNL     1     -11.621  12.372  66.395  1.00  0.00    -0.373 N  
HETATM    9  H   UNL     1     -12.062  11.476  66.600  1.00  0.00     0.000 HD 
BRANCH   8  10
HETATM   10  C   UNL     1     -11.130  12.811  64.995  1.00  0.00    -0.285 C  
HETATM   11  C   UNL     1     -12.328  12.917  64.051  1.00  0.00    -0.380 C  
HETATM   12  O   UNL     1     -12.364  13.625  63.056  1.00  0.00    -0.672 OA 
HETATM   13  O   UNL     1     -13.370  12.135  64.432  1.00  0.00    -0.740 OA 
BRANCH  10  14
HETATM   14  C   UNL     1     -10.053  11.911  64.361  1.00  0.00    -0.310 C  
BRANCH  14  15
HETATM   15  C   UNL     1      -9.387  10.966  65.329  1.00  0.00    -0.246 A  
HETATM   16  C   UNL     1      -9.930   9.684  65.470  1.00  0.00    -0.279 A  
HETATM   17  C   UNL     1      -9.515   8.858  66.511  1.00  0.00    -0.272 A  
HETATM   18  C   UNL     1      -8.567   9.303  67.435  1.00  0.00    -0.122 A  
HETATM   19  C   UNL     1      -8.312  11.336  66.151  1.00  0.00    -0.111 A  
HETATM   20  C   UNL     1      -7.918  10.517  67.212  1.00  0.00    -0.114 A  
BRANCH  18  21
HETATM   21  O   UNL     1      -8.231   8.640  68.589  1.00  0.00    -0.118 OA 
BRANCH  21  22
HETATM   22  C   UNL     1      -7.329   9.367  69.427  1.00  0.00    -0.078 C  
BRANCH  22  23
HETATM   23  C   UNL     1      -7.484   8.967  70.884  1.00  0.00    -0.128 C  
BRANCH  23  24
HETATM   24  C   UNL     1      -8.942   8.769  71.322  1.00  0.00    -0.295 C  
BRANCH  24  25
HETATM   25  C   UNL     1      -9.023   7.514  72.197  1.00  0.00    -0.159 C  
BRANCH  25  26
HETATM   26  C   UNL     1     -10.099   7.516  73.298  1.00  0.00    -0.386 C  
HETATM   27  C   UNL     1     -11.485   7.714  72.653  1.00  0.00    -0.403 C  
HETATM   28  C   UNL     1     -12.015   6.430  72.017  1.00  0.00    -0.326 C  
HETATM   29  N   UNL     1     -12.123   5.379  73.023  1.00  0.00    -0.491 NA 
HETATM   30  H   UNL     1     -12.587   4.549  72.651  1.00  0.00     0.000 HD 
HETATM   31  C   UNL     1     -10.814   5.056  73.590  1.00  0.00    -0.307 C  
HETATM   32  C   UNL     1     -10.125   6.275  74.206  1.00  0.00    -0.349 C  
ENDBRANCH  25  26
ENDBRANCH  24  25
ENDBRANCH  23  24
ENDBRANCH  22  23
ENDBRANCH  21  22
ENDBRANCH  18  21
ENDBRANCH  14  15
ENDBRANCH  10  14
ENDBRANCH   8  10
ENDBRANCH   5   8
ENDBRANCH   4   5
ENDBRANCH   3   4
ENDBRANCH   2   3
TORSDOF 13
ENDMDL
MODEL       81
REMARK 921   NORMALIZED FREE ENERGY PREDICTED BY IDOCK:   -4.74 KCAL/MOL
REMARK 922        TOTAL FREE ENERGY PREDICTED BY IDOCK:  -10.89 KCAL/MOL
REMARK 923 INTER-LIGAND FREE ENERGY PREDICTED BY IDOCK:   -8.81 KCAL/MOL
REMARK 924 INTRA-LIGAND FREE ENERGY PREDICTED BY IDOCK:   -2.08 KCAL/MOL
REMARK 927      BINDING AFFINITY PREDICTED BY RF-SCORE:    0.00 PKD
ROOT
HETATM    1  C   UNL     1      -7.399  10.746  69.671  1.00  0.00    -0.107 C  
HETATM    2  C   UNL     1      -7.991  11.256  68.359  1.00  0.00    -0.140 C  
ENDROOT
BRANCH   2   3
HETATM    3  C   UNL     1      -7.924  12.773  68.355  1.00  0.00    -0.137 C  
BRANCH   3   4
HETATM    4  C   UNL     1      -8.294  13.474  67.044  1.00  0.00    -0.080 C  
BRANCH   4   5
HETATM    5  S   UNL     1      -8.133  15.240  67.389  1.00  0.00    -0.197 S  
HETATM    6  O   UNL     1      -8.529  15.480  68.757  1.00  0.00    -0.163 OA 
HETATM    7  O   UNL     1      -6.843  15.645  66.885  1.00  0.00    -0.245 OA 
BRANCH   5   8
HETATM    8  N   UNL     1      -9.319  16.015  66.447  1.00  0.00    -0.271 N  
HETATM    9  H   UNL     1      -9.207  16.932  66.014  1.00  0.00     0.000 HD 
BRANCH   8  10
HETATM   10  C   UNL     1     -10.589  15.139  66.336  1.00  0.00    -0.305 C  
HETATM   11  C   UNL     1     -11.273  15.410  64.995  1.00  0.00    -0.387 C  
HETATM   12  O   UNL     1     -12.004  14.619  64.419  1.00  0.00    -0.457 OA 
HETATM   13  O   UNL     1     -10.982  16.637  64.494  1.00  0.00    -0.885 OA 
BRANCH  10  14
HETATM   14  C   UNL     1     -11.609  15.308  67.477  1.00  0.00    -0.223 C  
BRANCH  14  15
HETATM   15  C   UNL     1     -11.895  14.043  68.246  1.00  0.00    -0.406 A  
HETATM   16  C   UNL     1     -12.217  14.159  69.602  1.00  0.00    -0.376 A  
HETATM   17  C   UNL     1     -12.252  13.029  70.413  1.00  0.00    -0.386 A  
HETATM   18  C   UNL     1     -11.952  11.769  69.890  1.00  0.00    -0.332 A  
HETATM   19  C   UNL     1     -11.769  12.760  67.692  1.00  0.00    -0.422 A  
HETATM   20  C   UNL     1     -11.776  11.630  68.514  1.00  0.00    -0.378 A  
BRANCH  18  21
HETATM   21  O   UNL     1     -11.783  10.632  70.639  1.00  0.00    -0.320 OA 
BRANCH  21  22
HETATM   22  C   UNL     1     -13.010  10.035  71.061  1.00  0.00    -0.360 C  
BRANCH  22  23
HETATM   23  C   UNL     1     -12.784   8.637  71.611  1.00  0.00    -0.379 C  
BRANCH  23  24
HETATM   24  C   UNL     1     -11.421   8.449  72.291  1.00  0.00    -0.454 C  
BRANCH  24  25
HETATM   25  C   UNL     1     -10.706   7.263  71.636  1.00  0.00    -0.239 C  
BRANCH  25  26
HETATM   26  C   UNL     1     -10.697   7.236  70.097  1.00  0.00    -0.260 C  
HETATM   27  C   UNL     1      -9.285   7.593  69.592  1.00  0.00    -0.146 C  
HETATM   28  C   UNL     1      -8.316   6.417  69.705  1.00  0.00    -0.127 C  
HETATM   29  N   UNL     1      -8.808   5.284  68.929  1.00  0.00    -0.092 NA 
HETATM   30  H   UNL     1      -8.122   4.529  68.889  1.00  0.00     0.000 HD 
HETATM   31  C   UNL     1     -10.096   4.816  69.439  1.00  0.00    -0.171 C  
HETATM   32  C   UNL     1     -11.158   5.918  69.452  1.00  0.00    -0.369 C  
ENDBRANCH  25  26
ENDBRANCH  24  25
ENDBRANCH  23  24
ENDBRANCH  22  23
ENDBRANCH  21  22
ENDBRANCH  18  21
ENDBRANCH  14  15
ENDBRANCH  10  14
ENDBRANCH   8  10
ENDBRANCH   5   8
ENDBRANCH   4   5
ENDBRANCH   3   4
ENDBRANCH   2   3
TORSDOF 13
ENDMDL
MODEL       82
REMARK 921   NORMALIZED FREE ENERGY PREDICTED BY IDOCK:   -4.73 KCAL/MOL
REMARK 922        TOTAL FREE ENERGY PREDICTED BY IDOCK:  -10.87 KCAL/MOL
REMARK 923 INTER-LIGAND FREE ENERGY PREDICTED BY IDOCK:   -9.17 KCAL/MOL
REMARK 924 INTRA-LIGAND FREE ENERGY PREDICTED BY IDOCK:   -1.70 KCAL/MOL
REMARK 927      BINDING AFFINITY PREDICTED BY RF-SCORE:    0.00 PKD
ROOT
HETATM    1  C   UNL     1     -13.346  10.109  71.951  1.00  0.00    -0.505 C  
HETATM    2  C   UNL     1     -12.969   8.629  71.934  1.00  0.00    -0.409 C  
ENDROOT
BRANCH   2   3
HETATM    3  C   UNL     1     -11.476   8.513  71.681  1.00  0.00    -0.365 C  
BRANCH   3   4
HETATM    4  C   UNL     1     -11.048   7.725  70.439  1.00  0.00    -0.251 C  
BRANCH   4   5
HETATM    5  S   UNL     1      -9.273   8.016  70.281  1.00  0.00    -0.155 S  
HETATM    6  O   UNL     1      -8.951   9.263  70.935  1.00  0.00    -0.235 OA 
HETATM    7  O   UNL     1      -8.617   6.779  70.630  1.00  0.00    -0.139 OA 
BRANCH   5   8
HETATM    8  N   UNL     1      -8.986   8.300  68.628  1.00  0.00    -0.137 N  
HETATM    9  H   UNL     1      -8.081   8.556  68.232  1.00  0.00     0.000 HD 
BRANCH   8  10
HETATM   10  C   UNL     1     -10.285   8.118  67.808  1.00  0.00    -0.228 C  
HETATM   11  C   UNL     1     -10.254   6.757  67.111  1.00  0.00    -0.225 C  
HETATM   12  O   UNL     1     -11.247   6.134  66.766  1.00  0.00    -0.279 OA 
HETATM   13  O   UNL     1      -8.994   6.297  66.909  1.00  0.00    -0.115 OA 
BRANCH  10  14
HETATM   14  C   UNL     1     -10.572   9.221  66.773  1.00  0.00    -0.207 C  
BRANCH  14  15
HETATM   15  C   UNL     1     -10.782  10.590  67.368  1.00  0.00    -0.334 A  
HETATM   16  C   UNL     1     -11.475  10.678  68.580  1.00  0.00    -0.333 A  
HETATM   17  C   UNL     1     -11.909  11.914  69.051  1.00  0.00    -0.368 A  
HETATM   18  C   UNL     1     -11.672  13.078  68.315  1.00  0.00    -0.353 A  
HETATM   19  C   UNL     1     -10.396  11.776  66.726  1.00  0.00    -0.251 A  
HETATM   20  C   UNL     1     -10.856  13.013  67.186  1.00  0.00    -0.278 A  
BRANCH  18  21
HETATM   21  O   UNL     1     -12.212  14.306  68.602  1.00  0.00    -0.291 OA 
BRANCH  21  22
HETATM   22  C   UNL     1     -11.820  14.824  69.875  1.00  0.00    -0.316 C  
BRANCH  22  23
HETATM   23  C   UNL     1     -11.105  16.157  69.733  1.00  0.00    -0.350 C  
BRANCH  23  24
HETATM   24  C   UNL     1      -9.685  16.043  69.162  1.00  0.00    -0.251 C  
BRANCH  24  25
HETATM   25  C   UNL     1      -9.579  16.944  67.928  1.00  0.00    -0.244 C  
BRANCH  25  26
HETATM   26  C   UNL     1      -9.701  18.459  68.175  1.00  0.00    -0.352 C  
HETATM   27  C   UNL     1      -8.334  19.125  67.922  1.00  0.00    -0.333 C  
HETATM   28  C   UNL     1      -8.044  19.302  66.432  1.00  0.00    -0.316 C  
HETATM   29  N   UNL     1      -9.077  20.127  65.814  1.00  0.00    -0.502 NA 
HETATM   30  H   UNL     1      -8.843  20.361  64.849  1.00  0.00     0.000 HD 
HETATM   31  C   UNL     1     -10.388  19.488  65.912  1.00  0.00    -0.470 C  
HETATM   32  C   UNL     1     -10.785  19.181  67.358  1.00  0.00    -0.578 C  
ENDBRANCH  25  26
ENDBRANCH  24  25
ENDBRANCH  23  24
ENDBRANCH  22  23
ENDBRANCH  21  22
ENDBRANCH  18  21
ENDBRANCH  14  15
ENDBRANCH  10  14
ENDBRANCH   8  10
ENDBRANCH   5   8
ENDBRANCH   4   5
ENDBRANCH   3   4
ENDBRANCH   2   3
TORSDOF 13
ENDMDL
MODEL       83
REMARK 921   NORMALIZED FREE ENERGY PREDICTED BY IDOCK:   -4.73 KCAL/MOL
REMARK 922        TOTAL FREE ENERGY PREDICTED BY IDOCK:  -10.86 KCAL/MOL
REMARK 923 INTER-LIGAND FREE ENERGY PREDICTED BY IDOCK:   -9.49 KCAL/MOL
REMARK 924 INTRA-LIGAND FREE ENERGY PREDICTED BY IDOCK:   -1.38 KCAL/MOL
REMARK 927      BINDING AFFINITY PREDICTED BY RF-SCORE:    0.00 PKD
ROOT
HETATM    1  C   UNL     1      -9.628  11.609  63.356  1.00  0.00    -0.308 C  
HETATM    2  C   UNL     1     -10.524  11.072  64.470  1.00  0.00    -0.411 C  
ENDROOT
BRANCH   2   3
HETATM    3  C   UNL     1     -11.812  11.877  64.485  1.00  0.00    -0.305 C  
BRANCH   3   4
HETATM    4  C   UNL     1     -11.890  13.069  63.525  1.00  0.00    -0.516 C  
BRANCH   4   5
HETATM    5  S   UNL     1     -12.270  14.494  64.568  1.00  0.00    -0.401 S  
HETATM    6  O   UNL     1     -12.518  15.634  63.717  1.00  0.00    -0.642 OA 
HETATM    7  O   UNL     1     -13.231  14.047  65.547  1.00  0.00    -0.710 OA 
BRANCH   5   8
HETATM    8  N   UNL     1     -10.832  14.870  65.396  1.00  0.00    -0.344 N  
HETATM    9  H   UNL     1      -9.998  15.265  64.961  1.00  0.00     0.000 HD 
BRANCH   8  10
HETATM   10  C   UNL     1     -10.961  14.529  66.900  1.00  0.00    -0.316 C  
HETATM   11  C   UNL     1     -11.032  15.827  67.706  1.00  0.00    -0.314 C  
HETATM   12  O   UNL     1     -11.554  15.930  68.806  1.00  0.00    -0.373 OA 
HETATM   13  O   UNL     1     -10.450  16.875  67.070  1.00  0.00    -0.314 OA 
BRANCH  10  14
HETATM   14  C   UNL     1      -9.850  13.629  67.470  1.00  0.00    -0.227 C  
BRANCH  14  15
HETATM   15  C   UNL     1     -10.350  12.367  68.127  1.00  0.00    -0.231 A  
HETATM   16  C   UNL     1     -11.672  12.347  68.584  1.00  0.00    -0.372 A  
HETATM   17  C   UNL     1     -12.114  11.314  69.405  1.00  0.00    -0.384 A  
HETATM   18  C   UNL     1     -11.242  10.296  69.797  1.00  0.00    -0.282 A  
HETATM   19  C   UNL     1      -9.534  11.254  68.379  1.00  0.00    -0.192 A  
HETATM   20  C   UNL     1      -9.971  10.233  69.227  1.00  0.00    -0.244 A  
BRANCH  18  21
HETATM   21  O   UNL     1     -11.528   9.342  70.742  1.00  0.00    -0.268 OA 
BRANCH  21  22
HETATM   22  C   UNL     1     -10.945   8.067  70.467  1.00  0.00    -0.247 C  
BRANCH  22  23
HETATM   23  C   UNL     1     -11.965   6.951  70.610  1.00  0.00    -0.400 C  
BRANCH  23  24
HETATM   24  C   UNL     1     -12.217   6.520  72.062  1.00  0.00    -0.343 C  
BRANCH  24  25
HETATM   25  C   UNL     1     -11.145   7.155  72.953  1.00  0.00    -0.338 C  
BRANCH  25  26
HETATM   26  C   UNL     1     -10.163   6.186  73.638  1.00  0.00    -0.252 C  
HETATM   27  C   UNL     1     -10.325   4.782  73.024  1.00  0.00    -0.235 C  
HETATM   28  C   UNL     1      -9.635   4.661  71.666  1.00  0.00    -0.161 C  
HETATM   29  N   UNL     1      -8.209   4.941  71.802  1.00  0.00    -0.112 NA 
HETATM   30  H   UNL     1      -7.705   4.749  70.936  1.00  0.00     0.000 HD 
HETATM   31  C   UNL     1      -7.983   6.309  72.266  1.00  0.00    -0.104 C  
HETATM   32  C   UNL     1      -8.682   6.600  73.596  1.00  0.00    -0.140 C  
ENDBRANCH  25  26
ENDBRANCH  24  25
ENDBRANCH  23  24
ENDBRANCH  22  23
ENDBRANCH  21  22
ENDBRANCH  18  21
ENDBRANCH  14  15
ENDBRANCH  10  14
ENDBRANCH   8  10
ENDBRANCH   5   8
ENDBRANCH   4   5
ENDBRANCH   3   4
ENDBRANCH   2   3
TORSDOF 13
ENDMDL
MODEL       84
REMARK 921   NORMALIZED FREE ENERGY PREDICTED BY IDOCK:   -4.71 KCAL/MOL
REMARK 922        TOTAL FREE ENERGY PREDICTED BY IDOCK:  -10.84 KCAL/MOL
REMARK 923 INTER-LIGAND FREE ENERGY PREDICTED BY IDOCK:   -9.12 KCAL/MOL
REMARK 924 INTRA-LIGAND FREE ENERGY PREDICTED BY IDOCK:   -1.72 KCAL/MOL
REMARK 927      BINDING AFFINITY PREDICTED BY RF-SCORE:    0.00 PKD
ROOT
HETATM    1  C   UNL     1     -13.059  10.237  71.893  1.00  0.00    -0.568 C  
HETATM    2  C   UNL     1     -12.326   8.902  72.000  1.00  0.00    -0.460 C  
ENDROOT
BRANCH   2   3
HETATM    3  C   UNL     1     -10.881   9.107  71.580  1.00  0.00    -0.436 C  
BRANCH   3   4
HETATM    4  C   UNL     1     -10.085   7.850  71.216  1.00  0.00    -0.180 C  
BRANCH   4   5
HETATM    5  S   UNL     1     -10.674   7.373  69.577  1.00  0.00    -0.194 S  
HETATM    6  O   UNL     1     -11.634   6.304  69.727  1.00  0.00    -0.436 OA 
HETATM    7  O   UNL     1     -10.993   8.594  68.879  1.00  0.00    -0.057 OA 
BRANCH   5   8
HETATM    8  N   UNL     1      -9.346   6.662  68.787  1.00  0.00    -0.132 N  
HETATM    9  H   UNL     1      -8.492   6.351  69.252  1.00  0.00     0.000 HD 
BRANCH   8  10
HETATM   10  C   UNL     1      -9.609   6.551  67.266  1.00  0.00    -0.126 C  
HETATM   11  C   UNL     1     -10.039   5.122  66.932  1.00  0.00    -0.226 C  
HETATM   12  O   UNL     1     -10.716   4.812  65.963  1.00  0.00    -0.319 OA 
HETATM   13  O   UNL     1      -9.592   4.212  67.834  1.00  0.00    -0.169 OA 
BRANCH  10  14
HETATM   14  C   UNL     1      -8.432   6.959  66.361  1.00  0.00    -0.130 C  
BRANCH  14  15
HETATM   15  C   UNL     1      -8.667   8.221  65.570  1.00  0.00    -0.173 A  
HETATM   16  C   UNL     1      -9.627   9.122  66.044  1.00  0.00    -0.342 A  
HETATM   17  C   UNL     1     -10.057  10.174  65.240  1.00  0.00    -0.344 A  
HETATM   18  C   UNL     1      -9.551  10.334  63.949  1.00  0.00    -0.293 A  
HETATM   19  C   UNL     1      -8.037   8.491  64.346  1.00  0.00    -0.163 A  
HETATM   20  C   UNL     1      -8.491   9.530  63.530  1.00  0.00    -0.197 A  
BRANCH  18  21
HETATM   21  O   UNL     1     -10.040  11.221  63.022  1.00  0.00    -0.324 OA 
BRANCH  21  22
HETATM   22  C   UNL     1     -10.633  12.386  63.600  1.00  0.00    -0.445 C  
BRANCH  22  23
HETATM   23  C   UNL     1     -12.149  12.309  63.568  1.00  0.00    -0.649 C  
BRANCH  23  24
HETATM   24  C   UNL     1     -12.825  12.801  64.855  1.00  0.00    -0.357 C  
BRANCH  24  25
HETATM   25  C   UNL     1     -11.790  13.558  65.692  1.00  0.00    -0.397 C  
BRANCH  25  26
HETATM   26  C   UNL     1     -12.136  13.773  67.177  1.00  0.00    -0.416 C  
HETATM   27  C   UNL     1     -11.866  12.469  67.954  1.00  0.00    -0.383 C  
HETATM   28  C   UNL     1     -10.380  12.263  68.240  1.00  0.00    -0.221 C  
HETATM   29  N   UNL     1      -9.860  13.380  69.023  1.00  0.00    -0.404 NA 
HETATM   30  H   UNL     1      -8.902  13.209  69.330  1.00  0.00     0.000 HD 
HETATM   31  C   UNL     1      -9.974  14.638  68.286  1.00  0.00    -0.222 C  
HETATM   32  C   UNL     1     -11.414  14.943  67.866  1.00  0.00    -0.357 C  
ENDBRANCH  25  26
ENDBRANCH  24  25
ENDBRANCH  23  24
ENDBRANCH  22  23
ENDBRANCH  21  22
ENDBRANCH  18  21
ENDBRANCH  14  15
ENDBRANCH  10  14
ENDBRANCH   8  10
ENDBRANCH   5   8
ENDBRANCH   4   5
ENDBRANCH   3   4
ENDBRANCH   2   3
TORSDOF 13
ENDMDL
MODEL       85
REMARK 921   NORMALIZED FREE ENERGY PREDICTED BY IDOCK:   -4.70 KCAL/MOL
REMARK 922        TOTAL FREE ENERGY PREDICTED BY IDOCK:  -10.81 KCAL/MOL
REMARK 923 INTER-LIGAND FREE ENERGY PREDICTED BY IDOCK:   -8.60 KCAL/MOL
REMARK 924 INTRA-LIGAND FREE ENERGY PREDICTED BY IDOCK:   -2.22 KCAL/MOL
REMARK 927      BINDING AFFINITY PREDICTED BY RF-SCORE:    0.00 PKD
ROOT
HETATM    1  C   UNL     1     -12.385  13.322  70.948  1.00  0.00    -0.413 C  
HETATM    2  C   UNL     1     -13.190  12.314  71.764  1.00  0.00    -0.428 C  
ENDROOT
BRANCH   2   3
HETATM    3  C   UNL     1     -12.890  10.919  71.243  1.00  0.00    -0.536 C  
BRANCH   3   4
HETATM    4  C   UNL     1     -13.233   9.750  72.170  1.00  0.00    -0.436 C  
BRANCH   4   5
HETATM    5  S   UNL     1     -11.995   8.484  71.816  1.00  0.00    -0.359 S  
HETATM    6  O   UNL     1     -11.507   7.953  73.067  1.00  0.00    -0.383 OA 
HETATM    7  O   UNL     1     -12.552   7.634  70.791  1.00  0.00    -0.115 OA 
BRANCH   5   8
HETATM    8  N   UNL     1     -10.665   9.301  71.138  1.00  0.00    -0.306 N  
HETATM    9  H   UNL     1     -10.464  10.293  71.273  1.00  0.00     0.000 HD 
BRANCH   8  10
HETATM   10  C   UNL     1      -9.803   8.336  70.291  1.00  0.00    -0.184 C  
HETATM   11  C   UNL     1      -8.506   8.028  71.041  1.00  0.00    -0.128 C  
HETATM   12  O   UNL     1      -7.839   7.017  70.882  1.00  0.00    -0.094 OA 
HETATM   13  O   UNL     1      -8.161   9.003  71.919  1.00  0.00    -0.362 OA 
BRANCH  10  14
HETATM   14  C   UNL     1      -9.472   8.823  68.868  1.00  0.00    -0.145 C  
BRANCH  14  15
HETATM   15  C   UNL     1      -9.992  10.202  68.548  1.00  0.00    -0.177 A  
HETATM   16  C   UNL     1     -11.277  10.306  68.003  1.00  0.00    -0.303 A  
HETATM   17  C   UNL     1     -11.714  11.514  67.467  1.00  0.00    -0.262 A  
HETATM   18  C   UNL     1     -10.873  12.630  67.451  1.00  0.00    -0.243 A  
HETATM   19  C   UNL     1      -9.223  11.367  68.687  1.00  0.00    -0.149 A  
HETATM   20  C   UNL     1      -9.653  12.570  68.122  1.00  0.00    -0.215 A  
BRANCH  18  21
HETATM   21  O   UNL     1     -11.142  13.801  66.787  1.00  0.00    -0.300 OA 
BRANCH  21  22
HETATM   22  C   UNL     1     -10.436  14.930  67.305  1.00  0.00    -0.263 C  
BRANCH  22  23
HETATM   23  C   UNL     1     -11.359  15.847  68.089  1.00  0.00    -0.311 C  
BRANCH  23  24
HETATM   24  C   UNL     1     -10.635  16.732  69.112  1.00  0.00    -0.343 C  
BRANCH  24  25
HETATM   25  C   UNL     1      -9.127  16.500  68.980  1.00  0.00    -0.229 C  
BRANCH  25  26
HETATM   26  C   UNL     1      -8.272  17.734  68.634  1.00  0.00    -0.272 C  
HETATM   27  C   UNL     1      -7.122  17.308  67.701  1.00  0.00    -0.179 C  
HETATM   28  C   UNL     1      -7.588  17.119  66.258  1.00  0.00    -0.317 C  
HETATM   29  N   UNL     1      -8.158  18.361  65.747  1.00  0.00    -0.471 NA 
HETATM   30  H   UNL     1      -8.366  18.297  64.750  1.00  0.00     0.000 HD 
HETATM   31  C   UNL     1      -9.336  18.757  66.519  1.00  0.00    -0.336 C  
HETATM   32  C   UNL     1      -9.033  18.916  68.011  1.00  0.00    -0.338 C  
ENDBRANCH  25  26
ENDBRANCH  24  25
ENDBRANCH  23  24
ENDBRANCH  22  23
ENDBRANCH  21  22
ENDBRANCH  18  21
ENDBRANCH  14  15
ENDBRANCH  10  14
ENDBRANCH   8  10
ENDBRANCH   5   8
ENDBRANCH   4   5
ENDBRANCH   3   4
ENDBRANCH   2   3
TORSDOF 13
ENDMDL
MODEL       86
REMARK 921   NORMALIZED FREE ENERGY PREDICTED BY IDOCK:   -4.68 KCAL/MOL
REMARK 922        TOTAL FREE ENERGY PREDICTED BY IDOCK:  -10.78 KCAL/MOL
REMARK 923 INTER-LIGAND FREE ENERGY PREDICTED BY IDOCK:   -9.60 KCAL/MOL
REMARK 924 INTRA-LIGAND FREE ENERGY PREDICTED BY IDOCK:   -1.18 KCAL/MOL
REMARK 927      BINDING AFFINITY PREDICTED BY RF-SCORE:    0.00 PKD
ROOT
HETATM    1  C   UNL     1      -9.206   2.459  66.814  1.00  0.00    -0.067 C  
HETATM    2  C   UNL     1      -9.434   2.957  68.240  1.00  0.00    -0.217 C  
ENDROOT
BRANCH   2   3
HETATM    3  C   UNL     1      -9.480   4.475  68.220  1.00  0.00    -0.205 C  
BRANCH   3   4
HETATM    4  C   UNL     1      -9.837   5.169  69.538  1.00  0.00    -0.208 C  
BRANCH   4   5
HETATM    5  S   UNL     1     -10.633   6.717  69.058  1.00  0.00    -0.245 S  
HETATM    6  O   UNL     1      -9.778   7.815  69.448  1.00  0.00    -0.166 OA 
HETATM    7  O   UNL     1     -11.085   6.547  67.699  1.00  0.00    -0.325 OA 
BRANCH   5   8
HETATM    8  N   UNL     1     -12.012   6.865  70.044  1.00  0.00    -0.644 N  
HETATM    9  H   UNL     1     -12.902   6.396  69.869  1.00  0.00     0.000 HD 
BRANCH   8  10
HETATM   10  C   UNL     1     -11.733   7.805  71.239  1.00  0.00    -0.288 C  
HETATM   11  C   UNL     1     -11.293   6.972  72.444  1.00  0.00    -0.269 C  
HETATM   12  O   UNL     1     -10.605   7.393  73.362  1.00  0.00    -0.362 OA 
HETATM   13  O   UNL     1     -11.745   5.694  72.395  1.00  0.00    -0.277 OA 
BRANCH  10  14
HETATM   14  C   UNL     1     -12.903   8.721  71.646  1.00  0.00    -0.392 C  
BRANCH  14  15
HETATM   15  C   UNL     1     -12.661  10.187  71.389  1.00  0.00    -0.530 A  
HETATM   16  C   UNL     1     -13.149  11.104  72.326  1.00  0.00    -0.057 A  
HETATM   17  C   UNL     1     -13.172  12.464  72.028  1.00  0.00    -0.514 A  
HETATM   18  C   UNL     1     -12.724  12.927  70.788  1.00  0.00    -0.149 A  
HETATM   19  C   UNL     1     -12.053  10.674  70.223  1.00  0.00    -0.423 A  
HETATM   20  C   UNL     1     -12.103  12.036  69.914  1.00  0.00    -0.334 A  
BRANCH  18  21
HETATM   21  O   UNL     1     -12.874  14.214  70.335  1.00  0.00    -0.320 OA 
BRANCH  21  22
HETATM   22  C   UNL     1     -11.802  15.082  70.706  1.00  0.00    -0.320 C  
BRANCH  22  23
HETATM   23  C   UNL     1     -10.766  15.185  69.599  1.00  0.00    -0.289 C  
BRANCH  23  24
HETATM   24  C   UNL     1     -11.316  15.754  68.284  1.00  0.00    -0.354 C  
BRANCH  24  25
HETATM   25  C   UNL     1     -11.276  14.653  67.220  1.00  0.00    -0.344 C  
BRANCH  25  26
HETATM   26  C   UNL     1     -10.391  14.923  65.989  1.00  0.00    -0.313 C  
HETATM   27  C   UNL     1     -10.995  14.210  64.764  1.00  0.00    -0.409 C  
HETATM   28  C   UNL     1     -12.186  14.969  64.182  1.00  0.00    -0.211 C  
HETATM   29  N   UNL     1     -11.778  16.310  63.776  1.00  0.00    -1.488 NA 
HETATM   30  H   UNL     1     -12.523  16.794  63.275  1.00  0.00     0.000 HD 
HETATM   31  C   UNL     1     -11.307  17.085  64.923  1.00  0.00     0.436 C  
HETATM   32  C   UNL     1     -10.149  16.405  65.656  1.00  0.00    -0.314 C  
ENDBRANCH  25  26
ENDBRANCH  24  25
ENDBRANCH  23  24
ENDBRANCH  22  23
ENDBRANCH  21  22
ENDBRANCH  18  21
ENDBRANCH  14  15
ENDBRANCH  10  14
ENDBRANCH   8  10
ENDBRANCH   5   8
ENDBRANCH   4   5
ENDBRANCH   3   4
ENDBRANCH   2   3
TORSDOF 13
ENDMDL
MODEL       87
REMARK 921   NORMALIZED FREE ENERGY PREDICTED BY IDOCK:   -4.68 KCAL/MOL
REMARK 922        TOTAL FREE ENERGY PREDICTED BY IDOCK:  -10.77 KCAL/MOL
REMARK 923 INTER-LIGAND FREE ENERGY PREDICTED BY IDOCK:   -9.75 KCAL/MOL
REMARK 924 INTRA-LIGAND FREE ENERGY PREDICTED BY IDOCK:   -1.02 KCAL/MOL
REMARK 927      BINDING AFFINITY PREDICTED BY RF-SCORE:    0.00 PKD
ROOT
HETATM    1  C   UNL     1     -10.567   5.592  66.843  1.00  0.00    -0.348 C  
HETATM    2  C   UNL     1      -9.831   4.849  67.955  1.00  0.00    -0.197 C  
ENDROOT
BRANCH   2   3
HETATM    3  C   UNL     1      -9.799   5.734  69.189  1.00  0.00    -0.211 C  
BRANCH   3   4
HETATM    4  C   UNL     1     -11.113   6.415  69.582  1.00  0.00    -0.401 C  
BRANCH   4   5
HETATM    5  S   UNL     1     -11.246   6.197  71.370  1.00  0.00    -0.267 S  
HETATM    6  O   UNL     1     -12.575   6.581  71.784  1.00  0.00    -0.335 OA 
HETATM    7  O   UNL     1     -10.698   4.896  71.670  1.00  0.00    -0.127 OA 
BRANCH   5   8
HETATM    8  N   UNL     1     -10.217   7.360  72.065  1.00  0.00    -0.189 N  
HETATM    9  H   UNL     1      -9.767   7.265  72.976  1.00  0.00     0.000 HD 
BRANCH   8  10
HETATM   10  C   UNL     1     -10.057   8.580  71.127  1.00  0.00    -0.205 C  
HETATM   11  C   UNL     1      -8.662   9.179  71.313  1.00  0.00    -0.086 C  
HETATM   12  O   UNL     1      -8.072   9.833  70.467  1.00  0.00    -0.222 OA 
HETATM   13  O   UNL     1      -8.130   8.909  72.532  1.00  0.00    -0.381 OA 
BRANCH  10  14
HETATM   14  C   UNL     1     -11.118   9.683  71.293  1.00  0.00    -0.426 C  
BRANCH  14  15
HETATM   15  C   UNL     1     -11.396  10.471  70.038  1.00  0.00    -0.392 A  
HETATM   16  C   UNL     1     -11.041   9.896  68.813  1.00  0.00    -0.179 A  
HETATM   17  C   UNL     1     -11.047  10.664  67.651  1.00  0.00    -0.385 A  
HETATM   18  C   UNL     1     -11.390  12.017  67.696  1.00  0.00    -0.307 A  
HETATM   19  C   UNL     1     -11.907  11.777  70.046  1.00  0.00    -0.422 A  
HETATM   20  C   UNL     1     -11.884  12.553  68.884  1.00  0.00    -0.346 A  
BRANCH  18  21
HETATM   21  O   UNL     1     -11.251  12.893  66.648  1.00  0.00    -0.283 OA 
BRANCH  21  22
HETATM   22  C   UNL     1     -11.854  14.167  66.882  1.00  0.00    -0.431 C  
BRANCH  22  23
HETATM   23  C   UNL     1     -10.816  15.277  66.877  1.00  0.00    -0.317 C  
BRANCH  23  24
HETATM   24  C   UNL     1     -10.940  16.250  68.058  1.00  0.00    -0.328 C  
BRANCH  24  25
HETATM   25  C   UNL     1      -9.714  17.167  68.068  1.00  0.00    -0.274 C  
BRANCH  25  26
HETATM   26  C   UNL     1      -9.976  18.656  68.362  1.00  0.00    -0.428 C  
HETATM   27  C   UNL     1      -8.637  19.355  68.670  1.00  0.00    -0.394 C  
HETATM   28  C   UNL     1      -7.838  19.656  67.403  1.00  0.00    -0.267 C  
HETATM   29  N   UNL     1      -8.611  20.517  66.514  1.00  0.00    -0.545 NA 
HETATM   30  H   UNL     1      -8.056  20.832  65.718  1.00  0.00     0.000 HD 
HETATM   31  C   UNL     1      -9.844  19.858  66.085  1.00  0.00    -0.458 C  
HETATM   32  C   UNL     1     -10.722  19.430  67.263  1.00  0.00    -0.603 C  
ENDBRANCH  25  26
ENDBRANCH  24  25
ENDBRANCH  23  24
ENDBRANCH  22  23
ENDBRANCH  21  22
ENDBRANCH  18  21
ENDBRANCH  14  15
ENDBRANCH  10  14
ENDBRANCH   8  10
ENDBRANCH   5   8
ENDBRANCH   4   5
ENDBRANCH   3   4
ENDBRANCH   2   3
TORSDOF 13
ENDMDL
MODEL       88
REMARK 921   NORMALIZED FREE ENERGY PREDICTED BY IDOCK:   -4.67 KCAL/MOL
REMARK 922        TOTAL FREE ENERGY PREDICTED BY IDOCK:  -10.76 KCAL/MOL
REMARK 923 INTER-LIGAND FREE ENERGY PREDICTED BY IDOCK:   -8.41 KCAL/MOL
REMARK 924 INTRA-LIGAND FREE ENERGY PREDICTED BY IDOCK:   -2.35 KCAL/MOL
REMARK 927      BINDING AFFINITY PREDICTED BY RF-SCORE:    0.00 PKD
ROOT
HETATM    1  C   UNL     1     -14.202   9.022  72.464  1.00  0.00    -0.356 C  
HETATM    2  C   UNL     1     -13.273   9.989  71.734  1.00  0.00    -0.540 C  
ENDROOT
BRANCH   2   3
HETATM    3  C   UNL     1     -11.942   9.296  71.499  1.00  0.00    -0.439 C  
BRANCH   3   4
HETATM    4  C   UNL     1     -11.991   7.919  70.831  1.00  0.00    -0.196 C  
BRANCH   4   5
HETATM    5  S   UNL     1     -10.522   7.051  71.424  1.00  0.00    -0.208 S  
HETATM    6  O   UNL     1      -9.944   7.812  72.508  1.00  0.00    -0.188 OA 
HETATM    7  O   UNL     1     -10.893   5.665  71.577  1.00  0.00    -0.254 OA 
BRANCH   5   8
HETATM    8  N   UNL     1      -9.380   7.141  70.167  1.00  0.00    -0.159 N  
HETATM    9  H   UNL     1      -8.394   6.898  70.261  1.00  0.00     0.000 HD 
BRANCH   8  10
HETATM   10  C   UNL     1     -10.041   7.644  68.862  1.00  0.00    -0.197 C  
HETATM   11  C   UNL     1     -10.544   6.444  68.057  1.00  0.00    -0.254 C  
HETATM   12  O   UNL     1     -11.455   6.490  67.244  1.00  0.00    -0.197 OA 
HETATM   13  O   UNL     1      -9.869   5.301  68.338  1.00  0.00    -0.137 OA 
BRANCH  10  14
HETATM   14  C   UNL     1      -9.151   8.527  67.968  1.00  0.00    -0.144 C  
BRANCH  14  15
HETATM   15  C   UNL     1      -9.148   9.987  68.345  1.00  0.00    -0.121 A  
HETATM   16  C   UNL     1     -10.382  10.609  68.562  1.00  0.00    -0.202 A  
HETATM   17  C   UNL     1     -10.458  11.995  68.673  1.00  0.00    -0.238 A  
HETATM   18  C   UNL     1      -9.310  12.781  68.552  1.00  0.00    -0.077 A  
HETATM   19  C   UNL     1      -7.982  10.765  68.402  1.00  0.00    -0.124 A  
HETATM   20  C   UNL     1      -8.065  12.158  68.484  1.00  0.00    -0.112 A  
BRANCH  18  21
HETATM   21  O   UNL     1      -9.307  14.151  68.464  1.00  0.00    -0.202 OA 
BRANCH  21  22
HETATM   22  C   UNL     1      -8.255  14.671  67.649  1.00  0.00    -0.171 C  
BRANCH  22  23
HETATM   23  C   UNL     1      -8.806  15.460  66.473  1.00  0.00    -0.347 C  
BRANCH  23  24
HETATM   24  C   UNL     1     -10.319  15.298  66.270  1.00  0.00    -0.303 C  
BRANCH  24  25
HETATM   25  C   UNL     1     -10.556  14.384  65.064  1.00  0.00    -0.452 C  
BRANCH  25  26
HETATM   26  C   UNL     1     -10.926  12.922  65.376  1.00  0.00    -0.305 C  
HETATM   27  C   UNL     1     -12.313  12.612  64.779  1.00  0.00    -0.556 C  
HETATM   28  C   UNL     1     -12.252  12.367  63.272  1.00  0.00    -0.418 C  
HETATM   29  N   UNL     1     -11.367  11.244  62.981  1.00  0.00    -0.827 NA 
HETATM   30  H   UNL     1     -11.402  10.983  61.995  1.00  0.00     0.000 HD 
HETATM   31  C   UNL     1      -9.999  11.528  63.415  1.00  0.00    -0.417 C  
HETATM   32  C   UNL     1      -9.913  11.865  64.905  1.00  0.00    -0.269 C  
ENDBRANCH  25  26
ENDBRANCH  24  25
ENDBRANCH  23  24
ENDBRANCH  22  23
ENDBRANCH  21  22
ENDBRANCH  18  21
ENDBRANCH  14  15
ENDBRANCH  10  14
ENDBRANCH   8  10
ENDBRANCH   5   8
ENDBRANCH   4   5
ENDBRANCH   3   4
ENDBRANCH   2   3
TORSDOF 13
ENDMDL
MODEL       89
REMARK 921   NORMALIZED FREE ENERGY PREDICTED BY IDOCK:   -4.65 KCAL/MOL
REMARK 922        TOTAL FREE ENERGY PREDICTED BY IDOCK:  -10.73 KCAL/MOL
REMARK 923 INTER-LIGAND FREE ENERGY PREDICTED BY IDOCK:   -8.86 KCAL/MOL
REMARK 924 INTRA-LIGAND FREE ENERGY PREDICTED BY IDOCK:   -1.87 KCAL/MOL
REMARK 927      BINDING AFFINITY PREDICTED BY RF-SCORE:    0.00 PKD
ROOT
HETATM    1  C   UNL     1     -12.746   9.955  71.440  1.00  0.00    -0.503 C  
HETATM    2  C   UNL     1     -13.406   8.787  72.168  1.00  0.00    -0.465 C  
ENDROOT
BRANCH   2   3
HETATM    3  C   UNL     1     -12.493   7.577  72.070  1.00  0.00    -0.289 C  
BRANCH   3   4
HETATM    4  C   UNL     1     -10.987   7.854  72.024  1.00  0.00    -0.274 C  
BRANCH   4   5
HETATM    5  S   UNL     1     -10.358   6.831  70.675  1.00  0.00    -0.203 S  
HETATM    6  O   UNL     1      -9.187   6.124  71.140  1.00  0.00    -0.152 OA 
HETATM    7  O   UNL     1     -11.494   6.140  70.114  1.00  0.00    -0.391 OA 
BRANCH   5   8
HETATM    8  N   UNL     1      -9.779   7.910  69.494  1.00  0.00    -0.171 N  
HETATM    9  H   UNL     1      -9.384   8.829  69.692  1.00  0.00     0.000 HD 
BRANCH   8  10
HETATM   10  C   UNL     1      -9.934   7.306  68.078  1.00  0.00    -0.157 C  
HETATM   11  C   UNL     1      -8.557   6.906  67.547  1.00  0.00    -0.121 C  
HETATM   12  O   UNL     1      -8.365   6.044  66.703  1.00  0.00    -0.109 OA 
HETATM   13  O   UNL     1      -7.547   7.612  68.116  1.00  0.00    -0.108 OA 
BRANCH  10  14
HETATM   14  C   UNL     1     -10.640   8.209  67.049  1.00  0.00    -0.346 C  
BRANCH  14  15
HETATM   15  C   UNL     1     -10.414   9.685  67.261  1.00  0.00    -0.323 A  
HETATM   16  C   UNL     1      -9.332  10.282  66.606  1.00  0.00    -0.192 A  
HETATM   17  C   UNL     1      -8.931  11.570  66.948  1.00  0.00    -0.179 A  
HETATM   18  C   UNL     1      -9.590  12.275  67.957  1.00  0.00    -0.206 A  
HETATM   19  C   UNL     1     -11.178  10.462  68.144  1.00  0.00    -0.333 A  
HETATM   20  C   UNL     1     -10.756  11.743  68.507  1.00  0.00    -0.251 A  
BRANCH  18  21
HETATM   21  O   UNL     1      -9.160  13.466  68.487  1.00  0.00    -0.167 OA 
BRANCH  21  22
HETATM   22  C   UNL     1      -9.322  14.579  67.605  1.00  0.00    -0.202 C  
BRANCH  22  23
HETATM   23  C   UNL     1     -10.178  15.664  68.236  1.00  0.00    -0.223 C  
BRANCH  23  24
HETATM   24  C   UNL     1     -11.662  15.292  68.361  1.00  0.00    -0.340 C  
BRANCH  24  25
HETATM   25  C   UNL     1     -12.142  15.661  69.768  1.00  0.00    -0.346 C  
BRANCH  25  26
HETATM   26  C   UNL     1     -11.916  14.607  70.867  1.00  0.00    -0.388 C  
HETATM   27  C   UNL     1     -11.546  15.318  72.183  1.00  0.00    -0.535 C  
HETATM   28  C   UNL     1     -12.769  15.911  72.882  1.00  0.00    -0.484 C  
HETATM   29  N   UNL     1     -13.734  14.859  73.185  1.00  0.00    -0.555 NA 
HETATM   30  H   UNL     1     -14.503  15.208  73.758  1.00  0.00     0.000 HD 
HETATM   31  C   UNL     1     -14.219  14.223  71.960  1.00  0.00    -0.542 C  
HETATM   32  C   UNL     1     -13.086  13.640  71.113  1.00  0.00    -0.306 C  
ENDBRANCH  25  26
ENDBRANCH  24  25
ENDBRANCH  23  24
ENDBRANCH  22  23
ENDBRANCH  21  22
ENDBRANCH  18  21
ENDBRANCH  14  15
ENDBRANCH  10  14
ENDBRANCH   8  10
ENDBRANCH   5   8
ENDBRANCH   4   5
ENDBRANCH   3   4
ENDBRANCH   2   3
TORSDOF 13
ENDMDL
MODEL       90
REMARK 921   NORMALIZED FREE ENERGY PREDICTED BY IDOCK:   -4.64 KCAL/MOL
REMARK 922        TOTAL FREE ENERGY PREDICTED BY IDOCK:  -10.72 KCAL/MOL
REMARK 923 INTER-LIGAND FREE ENERGY PREDICTED BY IDOCK:   -8.29 KCAL/MOL
REMARK 924 INTRA-LIGAND FREE ENERGY PREDICTED BY IDOCK:   -2.43 KCAL/MOL
REMARK 927      BINDING AFFINITY PREDICTED BY RF-SCORE:    0.00 PKD
ROOT
HETATM    1  C   UNL     1     -10.180   8.200  67.069  1.00  0.00    -0.378 C  
HETATM    2  C   UNL     1     -10.643   7.621  68.404  1.00  0.00    -0.166 C  
ENDROOT
BRANCH   2   3
HETATM    3  C   UNL     1     -10.178   6.178  68.493  1.00  0.00    -0.221 C  
BRANCH   3   4
HETATM    4  C   UNL     1      -8.948   5.904  69.363  1.00  0.00    -0.121 C  
BRANCH   4   5
HETATM    5  S   UNL     1      -8.919   4.112  69.592  1.00  0.00    -0.114 S  
HETATM    6  O   UNL     1      -9.546   3.492  68.448  1.00  0.00    -0.164 OA 
HETATM    7  O   UNL     1      -7.580   3.769  70.008  1.00  0.00    -0.048 OA 
BRANCH   5   8
HETATM    8  N   UNL     1      -9.961   3.785  70.896  1.00  0.00    -0.115 N  
HETATM    9  H   UNL     1     -10.628   3.013  70.925  1.00  0.00     0.000 HD 
BRANCH   8  10
HETATM   10  C   UNL     1      -9.760   4.818  72.030  1.00  0.00    -0.162 C  
HETATM   11  C   UNL     1      -8.888   4.200  73.124  1.00  0.00    -0.102 C  
HETATM   12  O   UNL     1      -8.201   4.842  73.905  1.00  0.00    -0.104 OA 
HETATM   13  O   UNL     1      -8.949   2.845  73.145  1.00  0.00    -0.081 OA 
BRANCH  10  14
HETATM   14  C   UNL     1     -11.054   5.373  72.654  1.00  0.00    -0.332 C  
BRANCH  14  15
HETATM   15  C   UNL     1     -11.505   6.691  72.077  1.00  0.00    -0.329 A  
HETATM   16  C   UNL     1     -10.634   7.781  72.177  1.00  0.00    -0.295 A  
HETATM   17  C   UNL     1     -11.084   9.066  71.885  1.00  0.00    -0.433 A  
HETATM   18  C   UNL     1     -12.411   9.285  71.506  1.00  0.00    -0.360 A  
HETATM   19  C   UNL     1     -12.779   6.895  71.528  1.00  0.00    -0.396 A  
HETATM   20  C   UNL     1     -13.237   8.189  71.264  1.00  0.00    -0.158 A  
BRANCH  18  21
HETATM   21  O   UNL     1     -12.992  10.521  71.377  1.00  0.00    -0.382 OA 
BRANCH  21  22
HETATM   22  C   UNL     1     -12.171  11.474  70.698  1.00  0.00    -0.378 C  
BRANCH  22  23
HETATM   23  C   UNL     1     -12.039  11.136  69.223  1.00  0.00    -0.377 C  
BRANCH  23  24
HETATM   24  C   UNL     1     -10.804  11.753  68.551  1.00  0.00    -0.261 C  
BRANCH  24  25
HETATM   25  C   UNL     1     -11.253  12.944  67.700  1.00  0.00    -0.317 C  
BRANCH  25  26
HETATM   26  C   UNL     1     -11.897  12.609  66.341  1.00  0.00    -0.466 C  
HETATM   27  C   UNL     1     -12.052  13.905  65.521  1.00  0.00    -0.425 C  
HETATM   28  C   UNL     1     -10.735  14.349  64.887  1.00  0.00    -0.426 C  
HETATM   29  N   UNL     1     -10.226  13.305  64.003  1.00  0.00    -0.758 NA 
HETATM   30  H   UNL     1      -9.413  13.624  63.475  1.00  0.00     0.000 HD 
HETATM   31  C   UNL     1      -9.940  12.079  64.747  1.00  0.00    -0.216 C  
HETATM   32  C   UNL     1     -11.163  11.551  65.501  1.00  0.00    -0.204 C  
ENDBRANCH  25  26
ENDBRANCH  24  25
ENDBRANCH  23  24
ENDBRANCH  22  23
ENDBRANCH  21  22
ENDBRANCH  18  21
ENDBRANCH  14  15
ENDBRANCH  10  14
ENDBRANCH   8  10
ENDBRANCH   5   8
ENDBRANCH   4   5
ENDBRANCH   3   4
ENDBRANCH   2   3
TORSDOF 13
ENDMDL
MODEL       91
REMARK 921   NORMALIZED FREE ENERGY PREDICTED BY IDOCK:   -4.64 KCAL/MOL
REMARK 922        TOTAL FREE ENERGY PREDICTED BY IDOCK:  -10.71 KCAL/MOL
REMARK 923 INTER-LIGAND FREE ENERGY PREDICTED BY IDOCK:   -9.30 KCAL/MOL
REMARK 924 INTRA-LIGAND FREE ENERGY PREDICTED BY IDOCK:   -1.41 KCAL/MOL
REMARK 927      BINDING AFFINITY PREDICTED BY RF-SCORE:    0.00 PKD
ROOT
HETATM    1  C   UNL     1      -8.094  17.844  68.318  1.00  0.00    -0.294 C  
HETATM    2  C   UNL     1      -7.801  16.384  67.983  1.00  0.00    -0.159 C  
ENDROOT
BRANCH   2   3
HETATM    3  C   UNL     1      -8.053  16.168  66.501  1.00  0.00    -0.331 C  
BRANCH   3   4
HETATM    4  C   UNL     1      -9.121  15.135  66.128  1.00  0.00    -0.241 C  
BRANCH   4   5
HETATM    5  S   UNL     1     -10.655  16.075  65.968  1.00  0.00    -0.288 S  
HETATM    6  O   UNL     1     -11.337  16.064  67.241  1.00  0.00    -0.130 OA 
HETATM    7  O   UNL     1     -10.318  17.305  65.292  1.00  0.00    -0.626 OA 
BRANCH   5   8
HETATM    8  N   UNL     1     -11.654  15.175  64.926  1.00  0.00    -0.363 N  
HETATM    9  H   UNL     1     -12.367  15.576  64.316  1.00  0.00     0.000 HD 
BRANCH   8  10
HETATM   10  C   UNL     1     -11.335  13.665  65.031  1.00  0.00    -0.329 C  
HETATM   11  C   UNL     1     -11.789  12.963  63.750  1.00  0.00    -0.504 C  
HETATM   12  O   UNL     1     -11.317  11.917  63.331  1.00  0.00    -0.404 OA 
HETATM   13  O   UNL     1     -12.784  13.628  63.110  1.00  0.00    -0.737 OA 
BRANCH  10  14
HETATM   14  C   UNL     1     -11.938  12.946  66.253  1.00  0.00    -0.472 C  
BRANCH  14  15
HETATM   15  C   UNL     1     -10.984  12.014  66.957  1.00  0.00    -0.323 A  
HETATM   16  C   UNL     1     -11.396  11.449  68.169  1.00  0.00    -0.374 A  
HETATM   17  C   UNL     1     -10.480  10.782  68.977  1.00  0.00    -0.239 A  
HETATM   18  C   UNL     1      -9.139  10.683  68.599  1.00  0.00    -0.170 A  
HETATM   19  C   UNL     1      -9.682  11.758  66.503  1.00  0.00    -0.224 A  
HETATM   20  C   UNL     1      -8.758  11.113  67.330  1.00  0.00    -0.139 A  
BRANCH  18  21
HETATM   21  O   UNL     1      -8.134  10.210  69.405  1.00  0.00    -0.133 OA 
BRANCH  21  22
HETATM   22  C   UNL     1      -8.529   9.115  70.234  1.00  0.00    -0.191 C  
BRANCH  22  23
HETATM   23  C   UNL     1      -7.837   7.828  69.816  1.00  0.00    -0.106 C  
BRANCH  23  24
HETATM   24  C   UNL     1      -8.791   6.639  69.638  1.00  0.00    -0.143 C  
BRANCH  24  25
HETATM   25  C   UNL     1      -9.005   5.975  71.001  1.00  0.00    -0.146 C  
BRANCH  25  26
HETATM   26  C   UNL     1     -10.456   5.605  71.362  1.00  0.00    -0.300 C  
HETATM   27  C   UNL     1     -10.616   5.621  72.895  1.00  0.00    -0.268 C  
HETATM   28  C   UNL     1     -10.749   7.039  73.448  1.00  0.00    -0.345 C  
HETATM   29  N   UNL     1     -11.907   7.702  72.858  1.00  0.00    -0.607 NA 
HETATM   30  H   UNL     1     -12.088   8.605  73.299  1.00  0.00     0.000 HD 
HETATM   31  C   UNL     1     -11.759   7.830  71.409  1.00  0.00    -0.282 C  
HETATM   32  C   UNL     1     -11.545   6.480  70.720  1.00  0.00    -0.437 C  
ENDBRANCH  25  26
ENDBRANCH  24  25
ENDBRANCH  23  24
ENDBRANCH  22  23
ENDBRANCH  21  22
ENDBRANCH  18  21
ENDBRANCH  14  15
ENDBRANCH  10  14
ENDBRANCH   8  10
ENDBRANCH   5   8
ENDBRANCH   4   5
ENDBRANCH   3   4
ENDBRANCH   2   3
TORSDOF 13
ENDMDL
MODEL       92
REMARK 921   NORMALIZED FREE ENERGY PREDICTED BY IDOCK:   -4.64 KCAL/MOL
REMARK 922        TOTAL FREE ENERGY PREDICTED BY IDOCK:  -10.70 KCAL/MOL
REMARK 923 INTER-LIGAND FREE ENERGY PREDICTED BY IDOCK:   -8.61 KCAL/MOL
REMARK 924 INTRA-LIGAND FREE ENERGY PREDICTED BY IDOCK:   -2.10 KCAL/MOL
REMARK 927      BINDING AFFINITY PREDICTED BY RF-SCORE:    0.00 PKD
ROOT
HETATM    1  C   UNL     1     -10.837  15.819  67.291  1.00  0.00    -0.298 C  
HETATM    2  C   UNL     1     -10.452  16.252  65.879  1.00  0.00    -0.359 C  
ENDROOT
BRANCH   2   3
HETATM    3  C   UNL     1     -10.540  15.044  64.962  1.00  0.00    -0.437 C  
BRANCH   3   4
HETATM    4  C   UNL     1     -11.926  14.418  64.780  1.00  0.00    -0.447 C  
BRANCH   4   5
HETATM    5  S   UNL     1     -11.638  12.636  64.729  1.00  0.00    -0.350 S  
HETATM    6  O   UNL     1     -12.237  12.038  65.899  1.00  0.00    -0.531 OA 
HETATM    7  O   UNL     1     -11.971  12.200  63.394  1.00  0.00    -0.480 OA 
BRANCH   5   8
HETATM    8  N   UNL     1      -9.963  12.422  64.935  1.00  0.00    -0.434 N  
HETATM    9  H   UNL     1      -9.245  12.919  64.407  1.00  0.00     0.000 HD 
BRANCH   8  10
HETATM   10  C   UNL     1      -9.676  11.370  66.033  1.00  0.00    -0.223 C  
HETATM   11  C   UNL     1      -9.113  12.073  67.269  1.00  0.00    -0.178 C  
HETATM   12  O   UNL     1      -9.191  11.637  68.407  1.00  0.00    -0.182 OA 
HETATM   13  O   UNL     1      -8.508  13.251  66.976  1.00  0.00    -0.195 OA 
BRANCH  10  14
HETATM   14  C   UNL     1      -8.735  10.224  65.618  1.00  0.00    -0.176 C  
BRANCH  14  15
HETATM   15  C   UNL     1      -9.214   8.852  66.021  1.00  0.00    -0.287 A  
HETATM   16  C   UNL     1     -10.337   8.769  66.852  1.00  0.00    -0.344 A  
HETATM   17  C   UNL     1     -10.678   7.558  67.449  1.00  0.00    -0.331 A  
HETATM   18  C   UNL     1      -9.897   6.419  67.241  1.00  0.00    -0.138 A  
HETATM   19  C   UNL     1      -8.542   7.670  65.677  1.00  0.00    -0.142 A  
HETATM   20  C   UNL     1      -8.869   6.463  66.301  1.00  0.00    -0.152 A  
BRANCH  18  21
HETATM   21  O   UNL     1     -10.044   5.237  67.923  1.00  0.00    -0.160 OA 
BRANCH  21  22
HETATM   22  C   UNL     1      -9.177   5.114  69.052  1.00  0.00    -0.117 C  
BRANCH  22  23
HETATM   23  C   UNL     1      -9.784   4.219  70.119  1.00  0.00    -0.282 C  
BRANCH  23  24
HETATM   24  C   UNL     1     -10.097   4.944  71.435  1.00  0.00    -0.268 C  
BRANCH  24  25
HETATM   25  C   UNL     1     -11.006   6.139  71.132  1.00  0.00    -0.343 C  
BRANCH  25  26
HETATM   26  C   UNL     1     -10.861   7.361  72.056  1.00  0.00    -0.263 C  
HETATM   27  C   UNL     1      -9.474   7.998  71.841  1.00  0.00    -0.240 C  
HETATM   28  C   UNL     1      -9.417   8.844  70.569  1.00  0.00    -0.204 C  
HETATM   29  N   UNL     1     -10.408   9.913  70.633  1.00  0.00    -0.367 NA 
HETATM   30  H   UNL     1     -10.310  10.563  69.853  1.00  0.00     0.000 HD 
HETATM   31  C   UNL     1     -11.763   9.370  70.715  1.00  0.00    -0.282 C  
HETATM   32  C   UNL     1     -11.950   8.437  71.913  1.00  0.00    -0.397 C  
ENDBRANCH  25  26
ENDBRANCH  24  25
ENDBRANCH  23  24
ENDBRANCH  22  23
ENDBRANCH  21  22
ENDBRANCH  18  21
ENDBRANCH  14  15
ENDBRANCH  10  14
ENDBRANCH   8  10
ENDBRANCH   5   8
ENDBRANCH   4   5
ENDBRANCH   3   4
ENDBRANCH   2   3
TORSDOF 13
ENDMDL
MODEL       93
REMARK 921   NORMALIZED FREE ENERGY PREDICTED BY IDOCK:   -4.63 KCAL/MOL
REMARK 922        TOTAL FREE ENERGY PREDICTED BY IDOCK:  -10.69 KCAL/MOL
REMARK 923 INTER-LIGAND FREE ENERGY PREDICTED BY IDOCK:   -9.88 KCAL/MOL
REMARK 924 INTRA-LIGAND FREE ENERGY PREDICTED BY IDOCK:   -0.81 KCAL/MOL
REMARK 927      BINDING AFFINITY PREDICTED BY RF-SCORE:    0.00 PKD
ROOT
HETATM    1  C   UNL     1     -11.881  12.588  63.943  1.00  0.00    -0.544 C  
HETATM    2  C   UNL     1     -10.872  11.459  63.739  1.00  0.00    -0.468 C  
ENDROOT
BRANCH   2   3
HETATM    3  C   UNL     1     -10.005  11.355  64.981  1.00  0.00    -0.312 C  
BRANCH   3   4
HETATM    4  C   UNL     1     -10.727  11.071  66.302  1.00  0.00    -0.212 C  
BRANCH   4   5
HETATM    5  S   UNL     1      -9.908   9.614  66.986  1.00  0.00    -0.208 S  
HETATM    6  O   UNL     1      -9.586   8.715  65.902  1.00  0.00    -0.220 OA 
HETATM    7  O   UNL     1      -8.904  10.095  67.904  1.00  0.00    -0.125 OA 
BRANCH   5   8
HETATM    8  N   UNL     1     -11.087   8.795  67.899  1.00  0.00    -0.435 N  
HETATM    9  H   UNL     1     -11.870   8.274  67.502  1.00  0.00     0.000 HD 
BRANCH   8  10
HETATM   10  C   UNL     1     -10.810   8.947  69.414  1.00  0.00    -0.119 C  
HETATM   11  C   UNL     1     -10.268   7.627  69.963  1.00  0.00    -0.213 C  
HETATM   12  O   UNL     1      -9.566   7.528  70.958  1.00  0.00    -0.161 OA 
HETATM   13  O   UNL     1     -10.647   6.554  69.224  1.00  0.00    -0.205 OA 
BRANCH  10  14
HETATM   14  C   UNL     1     -12.013   9.403  70.262  1.00  0.00     0.010 C  
BRANCH  14  15
HETATM   15  C   UNL     1     -12.055  10.886  70.532  1.00  0.00    -0.464 A  
HETATM   16  C   UNL     1     -12.792  11.330  71.635  1.00  0.00    -0.510 A  
HETATM   17  C   UNL     1     -13.066  12.685  71.794  1.00  0.00    -0.461 A  
HETATM   18  C   UNL     1     -12.625  13.615  70.850  1.00  0.00    -0.346 A  
HETATM   19  C   UNL     1     -11.467  11.839  69.687  1.00  0.00    -0.341 A  
HETATM   20  C   UNL     1     -11.769  13.196  69.833  1.00  0.00    -0.327 A  
BRANCH  18  21
HETATM   21  O   UNL     1     -12.997  14.936  70.822  1.00  0.00    -0.356 OA 
BRANCH  21  22
HETATM   22  C   UNL     1     -11.893  15.842  70.772  1.00  0.00    -0.391 C  
BRANCH  22  23
HETATM   23  C   UNL     1     -11.493  16.147  69.339  1.00  0.00    -0.296 C  
BRANCH  23  24
HETATM   24  C   UNL     1      -9.977  16.130  69.100  1.00  0.00    -0.251 C  
BRANCH  24  25
HETATM   25  C   UNL     1      -9.633  17.201  68.060  1.00  0.00    -0.267 C  
BRANCH  25  26
HETATM   26  C   UNL     1     -10.180  18.615  68.329  1.00  0.00    -0.423 C  
HETATM   27  C   UNL     1      -9.005  19.559  68.653  1.00  0.00    -0.386 C  
HETATM   28  C   UNL     1      -8.250  19.995  67.398  1.00  0.00    -0.332 C  
HETATM   29  N   UNL     1      -9.154  20.684  66.483  1.00  0.00    -0.581 NA 
HETATM   30  H   UNL     1      -8.651  21.091  65.693  1.00  0.00     0.000 HD 
HETATM   31  C   UNL     1     -10.229  19.798  66.038  1.00  0.00    -0.501 C  
HETATM   32  C   UNL     1     -11.035  19.222  67.205  1.00  0.00    -0.439 C  
ENDBRANCH  25  26
ENDBRANCH  24  25
ENDBRANCH  23  24
ENDBRANCH  22  23
ENDBRANCH  21  22
ENDBRANCH  18  21
ENDBRANCH  14  15
ENDBRANCH  10  14
ENDBRANCH   8  10
ENDBRANCH   5   8
ENDBRANCH   4   5
ENDBRANCH   3   4
ENDBRANCH   2   3
TORSDOF 13
ENDMDL
MODEL       94
REMARK 921   NORMALIZED FREE ENERGY PREDICTED BY IDOCK:   -4.61 KCAL/MOL
REMARK 922        TOTAL FREE ENERGY PREDICTED BY IDOCK:  -10.66 KCAL/MOL
REMARK 923 INTER-LIGAND FREE ENERGY PREDICTED BY IDOCK:   -8.42 KCAL/MOL
REMARK 924 INTRA-LIGAND FREE ENERGY PREDICTED BY IDOCK:   -2.25 KCAL/MOL
REMARK 927      BINDING AFFINITY PREDICTED BY RF-SCORE:    0.00 PKD
ROOT
HETATM    1  C   UNL     1      -7.116  10.528  69.868  1.00  0.00    -0.148 C  
HETATM    2  C   UNL     1      -7.347  10.927  68.413  1.00  0.00    -0.094 C  
ENDROOT
BRANCH   2   3
HETATM    3  C   UNL     1      -7.994  12.301  68.384  1.00  0.00    -0.152 C  
BRANCH   3   4
HETATM    4  C   UNL     1      -8.440  12.823  67.015  1.00  0.00    -0.153 C  
BRANCH   4   5
HETATM    5  S   UNL     1      -8.882  14.553  67.288  1.00  0.00    -0.219 S  
HETATM    6  O   UNL     1      -9.221  14.727  68.681  1.00  0.00    -0.185 OA 
HETATM    7  O   UNL     1      -7.863  15.347  66.645  1.00  0.00    -0.162 OA 
BRANCH   5   8
HETATM    8  N   UNL     1     -10.339  14.807  66.447  1.00  0.00    -0.284 N  
HETATM    9  H   UNL     1     -10.549  15.634  65.888  1.00  0.00     0.000 HD 
BRANCH   8  10
HETATM   10  C   UNL     1     -11.301  13.612  66.645  1.00  0.00    -0.326 C  
HETATM   11  C   UNL     1     -12.261  13.536  65.457  1.00  0.00    -0.451 C  
HETATM   12  O   UNL     1     -12.824  12.516  65.087  1.00  0.00    -0.685 OA 
HETATM   13  O   UNL     1     -12.431  14.732  64.839  1.00  0.00    -0.334 OA 
BRANCH  10  14
HETATM   14  C   UNL     1     -12.106  13.624  67.958  1.00  0.00    -0.309 C  
BRANCH  14  15
HETATM   15  C   UNL     1     -12.021  12.343  68.749  1.00  0.00    -0.276 A  
HETATM   16  C   UNL     1     -12.393  12.381  70.097  1.00  0.00    -0.209 A  
HETATM   17  C   UNL     1     -12.109  11.303  70.932  1.00  0.00    -0.406 A  
HETATM   18  C   UNL     1     -11.438  10.182  70.441  1.00  0.00    -0.322 A  
HETATM   19  C   UNL     1     -11.509  11.147  68.225  1.00  0.00    -0.373 A  
HETATM   20  C   UNL     1     -11.199  10.079  69.071  1.00  0.00    -0.180 A  
BRANCH  18  21
HETATM   21  O   UNL     1     -10.955   9.158  71.217  1.00  0.00    -0.273 OA 
BRANCH  21  22
HETATM   22  C   UNL     1     -11.919   8.626  72.129  1.00  0.00    -0.379 C  
BRANCH  22  23
HETATM   23  C   UNL     1     -12.406   7.258  71.682  1.00  0.00    -0.387 C  
BRANCH  23  24
HETATM   24  C   UNL     1     -11.328   6.407  70.997  1.00  0.00    -0.386 C  
BRANCH  24  25
HETATM   25  C   UNL     1     -11.525   6.496  69.481  1.00  0.00    -0.384 C  
BRANCH  25  26
HETATM   26  C   UNL     1     -10.489   5.758  68.612  1.00  0.00    -0.298 C  
HETATM   27  C   UNL     1     -10.710   6.131  67.133  1.00  0.00    -0.422 C  
HETATM   28  C   UNL     1     -10.143   7.508  66.793  1.00  0.00    -0.243 C  
HETATM   29  N   UNL     1      -8.709   7.542  67.066  1.00  0.00    -0.124 NA 
HETATM   30  H   UNL     1      -8.284   8.408  66.735  1.00  0.00     0.000 HD 
HETATM   31  C   UNL     1      -8.438   7.316  68.485  1.00  0.00    -0.125 C  
HETATM   32  C   UNL     1      -9.017   5.992  68.989  1.00  0.00    -0.124 C  
ENDBRANCH  25  26
ENDBRANCH  24  25
ENDBRANCH  23  24
ENDBRANCH  22  23
ENDBRANCH  21  22
ENDBRANCH  18  21
ENDBRANCH  14  15
ENDBRANCH  10  14
ENDBRANCH   8  10
ENDBRANCH   5   8
ENDBRANCH   4   5
ENDBRANCH   3   4
ENDBRANCH   2   3
TORSDOF 13
ENDMDL
MODEL       95
REMARK 921   NORMALIZED FREE ENERGY PREDICTED BY IDOCK:   -4.61 KCAL/MOL
REMARK 922        TOTAL FREE ENERGY PREDICTED BY IDOCK:  -10.66 KCAL/MOL
REMARK 923 INTER-LIGAND FREE ENERGY PREDICTED BY IDOCK:   -9.15 KCAL/MOL
REMARK 924 INTRA-LIGAND FREE ENERGY PREDICTED BY IDOCK:   -1.51 KCAL/MOL
REMARK 927      BINDING AFFINITY PREDICTED BY RF-SCORE:    0.00 PKD
ROOT
HETATM    1  C   UNL     1     -12.153  14.147  65.128  1.00  0.00    -0.416 C  
HETATM    2  C   UNL     1     -11.890  14.092  66.631  1.00  0.00    -0.443 C  
ENDROOT
BRANCH   2   3
HETATM    3  C   UNL     1     -10.916  15.199  66.993  1.00  0.00    -0.322 C  
BRANCH   3   4
HETATM    4  C   UNL     1      -9.731  14.810  67.883  1.00  0.00    -0.211 C  
BRANCH   4   5
HETATM    5  S   UNL     1      -9.724  16.024  69.220  1.00  0.00    -0.247 S  
HETATM    6  O   UNL     1      -8.354  16.327  69.560  1.00  0.00    -0.121 OA 
HETATM    7  O   UNL     1     -10.665  17.054  68.850  1.00  0.00    -0.335 OA 
BRANCH   5   8
HETATM    8  N   UNL     1     -10.349  15.226  70.587  1.00  0.00    -0.457 N  
HETATM    9  H   UNL     1      -9.805  14.624  71.206  1.00  0.00     0.000 HD 
BRANCH   8  10
HETATM   10  C   UNL     1     -11.854  15.538  70.763  1.00  0.00    -0.367 C  
HETATM   11  C   UNL     1     -12.171  15.667  72.253  1.00  0.00    -0.439 C  
HETATM   12  O   UNL     1     -13.105  16.310  72.708  1.00  0.00    -0.375 OA 
HETATM   13  O   UNL     1     -11.298  14.987  73.039  1.00  0.00    -0.201 OA 
BRANCH  10  14
HETATM   14  C   UNL     1     -12.817  14.525  70.117  1.00  0.00    -0.166 C  
BRANCH  14  15
HETATM   15  C   UNL     1     -12.582  13.094  70.531  1.00  0.00    -0.237 A  
HETATM   16  C   UNL     1     -11.834  12.279  69.674  1.00  0.00    -0.393 A  
HETATM   17  C   UNL     1     -11.788  10.903  69.879  1.00  0.00    -0.427 A  
HETATM   18  C   UNL     1     -12.499  10.317  70.929  1.00  0.00    -0.370 A  
HETATM   19  C   UNL     1     -13.146  12.523  71.681  1.00  0.00    -0.414 A  
HETATM   20  C   UNL     1     -13.122  11.138  71.868  1.00  0.00    -0.513 A  
BRANCH  18  21
HETATM   21  O   UNL     1     -12.663   8.966  71.103  1.00  0.00    -0.267 OA 
BRANCH  21  22
HETATM   22  C   UNL     1     -12.595   8.550  72.468  1.00  0.00    -0.284 C  
BRANCH  22  23
HETATM   23  C   UNL     1     -11.348   7.723  72.731  1.00  0.00    -0.446 C  
BRANCH  23  24
HETATM   24  C   UNL     1     -11.537   6.218  72.491  1.00  0.00    -0.273 C  
BRANCH  24  25
HETATM   25  C   UNL     1     -10.540   5.765  71.420  1.00  0.00    -0.313 C  
BRANCH  25  26
HETATM   26  C   UNL     1     -10.240   6.772  70.295  1.00  0.00    -0.216 C  
HETATM   27  C   UNL     1      -8.714   6.955  70.172  1.00  0.00    -0.141 C  
HETATM   28  C   UNL     1      -8.051   5.795  69.431  1.00  0.00    -0.101 C  
HETATM   29  N   UNL     1      -8.608   5.674  68.087  1.00  0.00    -0.105 NA 
HETATM   30  H   UNL     1      -8.099   4.987  67.530  1.00  0.00     0.000 HD 
HETATM   31  C   UNL     1     -10.039   5.376  68.136  1.00  0.00    -0.166 C  
HETATM   32  C   UNL     1     -10.831   6.426  68.918  1.00  0.00    -0.382 C  
ENDBRANCH  25  26
ENDBRANCH  24  25
ENDBRANCH  23  24
ENDBRANCH  22  23
ENDBRANCH  21  22
ENDBRANCH  18  21
ENDBRANCH  14  15
ENDBRANCH  10  14
ENDBRANCH   8  10
ENDBRANCH   5   8
ENDBRANCH   4   5
ENDBRANCH   3   4
ENDBRANCH   2   3
TORSDOF 13
ENDMDL
MODEL       96
REMARK 921   NORMALIZED FREE ENERGY PREDICTED BY IDOCK:   -4.61 KCAL/MOL
REMARK 922        TOTAL FREE ENERGY PREDICTED BY IDOCK:  -10.65 KCAL/MOL
REMARK 923 INTER-LIGAND FREE ENERGY PREDICTED BY IDOCK:   -8.07 KCAL/MOL
REMARK 924 INTRA-LIGAND FREE ENERGY PREDICTED BY IDOCK:   -2.58 KCAL/MOL
REMARK 927      BINDING AFFINITY PREDICTED BY RF-SCORE:    0.00 PKD
ROOT
HETATM    1  C   UNL     1     -12.511  14.010  65.663  1.00  0.00    -0.531 C  
HETATM    2  C   UNL     1     -12.273  13.910  67.168  1.00  0.00    -0.353 C  
ENDROOT
BRANCH   2   3
HETATM    3  C   UNL     1     -11.773  12.512  67.487  1.00  0.00    -0.439 C  
BRANCH   3   4
HETATM    4  C   UNL     1     -10.490  12.412  68.318  1.00  0.00    -0.225 C  
BRANCH   4   5
HETATM    5  S   UNL     1      -9.142  12.442  67.116  1.00  0.00    -0.205 S  
HETATM    6  O   UNL     1      -8.913  13.810  66.715  1.00  0.00    -0.238 OA 
HETATM    7  O   UNL     1      -8.088  11.617  67.655  1.00  0.00    -0.128 OA 
BRANCH   5   8
HETATM    8  N   UNL     1      -9.737  11.669  65.721  1.00  0.00    -0.231 N  
HETATM    9  H   UNL     1     -10.229  12.141  64.962  1.00  0.00     0.000 HD 
BRANCH   8  10
HETATM   10  C   UNL     1      -9.428  10.154  65.761  1.00  0.00    -0.208 C  
HETATM   11  C   UNL     1      -9.113   9.666  64.346  1.00  0.00    -0.229 C  
HETATM   12  O   UNL     1      -8.431   8.686  64.089  1.00  0.00    -0.157 OA 
HETATM   13  O   UNL     1      -9.671  10.443  63.384  1.00  0.00    -0.309 OA 
BRANCH  10  14
HETATM   14  C   UNL     1     -10.531   9.272  66.376  1.00  0.00    -0.157 C  
BRANCH  14  15
HETATM   15  C   UNL     1     -10.017   8.075  67.135  1.00  0.00    -0.303 A  
HETATM   16  C   UNL     1     -10.811   6.924  67.159  1.00  0.00    -0.447 A  
HETATM   17  C   UNL     1     -10.510   5.883  68.032  1.00  0.00    -0.294 A  
HETATM   18  C   UNL     1      -9.424   5.980  68.905  1.00  0.00    -0.126 A  
HETATM   19  C   UNL     1      -8.831   8.090  67.884  1.00  0.00    -0.130 A  
HETATM   20  C   UNL     1      -8.547   7.056  68.781  1.00  0.00    -0.125 A  
BRANCH  18  21
HETATM   21  O   UNL     1      -9.156   5.095  69.920  1.00  0.00    -0.117 OA 
BRANCH  21  22
HETATM   22  C   UNL     1      -8.391   5.660  70.987  1.00  0.00    -0.122 C  
BRANCH  22  23
HETATM   23  C   UNL     1      -9.203   5.736  72.268  1.00  0.00    -0.151 C  
BRANCH  23  24
HETATM   24  C   UNL     1     -10.682   5.368  72.091  1.00  0.00    -0.286 C  
BRANCH  24  25
HETATM   25  C   UNL     1     -11.531   6.620  72.331  1.00  0.00    -0.300 C  
BRANCH  25  26
HETATM   26  C   UNL     1     -12.144   7.281  71.083  1.00  0.00    -0.376 C  
HETATM   27  C   UNL     1     -13.629   7.591  71.351  1.00  0.00    -0.397 C  
HETATM   28  C   UNL     1     -13.812   8.842  72.210  1.00  0.00    -0.447 C  
HETATM   29  N   UNL     1     -13.214   9.997  71.549  1.00  0.00    -0.395 NA 
HETATM   30  H   UNL     1     -13.427  10.864  72.043  1.00  0.00     0.000 HD 
HETATM   31  C   UNL     1     -11.773   9.816  71.375  1.00  0.00    -0.398 C  
HETATM   32  C   UNL     1     -11.432   8.551  70.586  1.00  0.00    -0.249 C  
ENDBRANCH  25  26
ENDBRANCH  24  25
ENDBRANCH  23  24
ENDBRANCH  22  23
ENDBRANCH  21  22
ENDBRANCH  18  21
ENDBRANCH  14  15
ENDBRANCH  10  14
ENDBRANCH   8  10
ENDBRANCH   5   8
ENDBRANCH   4   5
ENDBRANCH   3   4
ENDBRANCH   2   3
TORSDOF 13
ENDMDL
MODEL       97
REMARK 921   NORMALIZED FREE ENERGY PREDICTED BY IDOCK:   -4.60 KCAL/MOL
REMARK 922        TOTAL FREE ENERGY PREDICTED BY IDOCK:  -10.64 KCAL/MOL
REMARK 923 INTER-LIGAND FREE ENERGY PREDICTED BY IDOCK:   -8.65 KCAL/MOL
REMARK 924 INTRA-LIGAND FREE ENERGY PREDICTED BY IDOCK:   -1.98 KCAL/MOL
REMARK 927      BINDING AFFINITY PREDICTED BY RF-SCORE:    0.00 PKD
ROOT
HETATM    1  C   UNL     1      -7.475   9.787  67.284  1.00  0.00    -0.088 C  
HETATM    2  C   UNL     1      -8.030  10.937  66.445  1.00  0.00    -0.157 C  
ENDROOT
BRANCH   2   3
HETATM    3  C   UNL     1      -8.396  10.401  65.072  1.00  0.00    -0.166 C  
BRANCH   3   4
HETATM    4  C   UNL     1      -9.889  10.239  64.772  1.00  0.00    -0.334 C  
BRANCH   4   5
HETATM    5  S   UNL     1     -10.278  11.545  63.587  1.00  0.00    -0.450 S  
HETATM    6  O   UNL     1      -9.221  11.607  62.605  1.00  0.00    -0.349 OA 
HETATM    7  O   UNL     1     -11.660  11.366  63.211  1.00  0.00    -0.233 OA 
BRANCH   5   8
HETATM    8  N   UNL     1     -10.167  13.010  64.445  1.00  0.00    -0.573 N  
HETATM    9  H   UNL     1      -9.482  13.743  64.255  1.00  0.00     0.000 HD 
BRANCH   8  10
HETATM   10  C   UNL     1     -11.245  13.080  65.552  1.00  0.00    -0.288 C  
HETATM   11  C   UNL     1     -12.331  14.073  65.136  1.00  0.00    -0.453 C  
HETATM   12  O   UNL     1     -13.484  14.045  65.537  1.00  0.00    -0.677 OA 
HETATM   13  O   UNL     1     -11.883  15.008  64.260  1.00  0.00    -0.380 OA 
BRANCH  10  14
HETATM   14  C   UNL     1     -10.727  13.442  66.956  1.00  0.00    -0.271 C  
BRANCH  14  15
HETATM   15  C   UNL     1     -11.340  12.632  68.071  1.00  0.00    -0.337 A  
HETATM   16  C   UNL     1     -11.830  13.320  69.186  1.00  0.00    -0.378 A  
HETATM   17  C   UNL     1     -12.181  12.624  70.340  1.00  0.00    -0.368 A  
HETATM   18  C   UNL     1     -12.036  11.237  70.404  1.00  0.00    -0.380 A  
HETATM   19  C   UNL     1     -11.364  11.230  68.081  1.00  0.00    -0.372 A  
HETATM   20  C   UNL     1     -11.690  10.536  69.250  1.00  0.00    -0.281 A  
BRANCH  18  21
HETATM   21  O   UNL     1     -12.181  10.489  71.545  1.00  0.00    -0.355 OA 
BRANCH  21  22
HETATM   22  C   UNL     1     -11.214   9.444  71.674  1.00  0.00    -0.361 C  
BRANCH  22  23
HETATM   23  C   UNL     1     -11.843   8.172  72.216  1.00  0.00    -0.441 C  
BRANCH  23  24
HETATM   24  C   UNL     1     -11.023   6.905  71.938  1.00  0.00    -0.266 C  
BRANCH  24  25
HETATM   25  C   UNL     1      -9.674   7.029  72.652  1.00  0.00    -0.173 C  
BRANCH  25  26
HETATM   26  C   UNL     1      -8.434   6.586  71.852  1.00  0.00    -0.119 C  
HETATM   27  C   UNL     1      -8.145   7.624  70.750  1.00  0.00    -0.103 C  
HETATM   28  C   UNL     1      -7.455   8.872  71.298  1.00  0.00    -0.103 C  
HETATM   29  N   UNL     1      -6.190   8.510  71.930  1.00  0.00    -0.061 NA 
HETATM   30  H   UNL     1      -5.653   9.336  72.196  1.00  0.00     0.000 HD 
HETATM   31  C   UNL     1      -6.408   7.618  73.068  1.00  0.00    -0.062 C  
HETATM   32  C   UNL     1      -7.161   6.344  72.680  1.00  0.00    -0.075 C  
ENDBRANCH  25  26
ENDBRANCH  24  25
ENDBRANCH  23  24
ENDBRANCH  22  23
ENDBRANCH  21  22
ENDBRANCH  18  21
ENDBRANCH  14  15
ENDBRANCH  10  14
ENDBRANCH   8  10
ENDBRANCH   5   8
ENDBRANCH   4   5
ENDBRANCH   3   4
ENDBRANCH   2   3
TORSDOF 13
ENDMDL
MODEL       98
REMARK 921   NORMALIZED FREE ENERGY PREDICTED BY IDOCK:   -4.60 KCAL/MOL
REMARK 922        TOTAL FREE ENERGY PREDICTED BY IDOCK:  -10.64 KCAL/MOL
REMARK 923 INTER-LIGAND FREE ENERGY PREDICTED BY IDOCK:   -8.61 KCAL/MOL
REMARK 924 INTRA-LIGAND FREE ENERGY PREDICTED BY IDOCK:   -2.02 KCAL/MOL
REMARK 927      BINDING AFFINITY PREDICTED BY RF-SCORE:    0.00 PKD
ROOT
HETATM    1  C   UNL     1     -12.178  11.656  63.611  1.00  0.00    -0.348 C  
HETATM    2  C   UNL     1     -12.535  12.778  64.583  1.00  0.00    -0.525 C  
ENDROOT
BRANCH   2   3
HETATM    3  C   UNL     1     -11.285  13.166  65.354  1.00  0.00    -0.315 C  
BRANCH   3   4
HETATM    4  C   UNL     1     -10.359  14.191  64.693  1.00  0.00    -0.266 C  
BRANCH   4   5
HETATM    5  S   UNL     1     -10.849  15.787  65.381  1.00  0.00    -0.339 S  
HETATM    6  O   UNL     1     -11.345  16.618  64.309  1.00  0.00    -1.116 OA 
HETATM    7  O   UNL     1     -11.636  15.507  66.557  1.00  0.00    -0.041 OA 
BRANCH   5   8
HETATM    8  N   UNL     1      -9.412  16.542  65.892  1.00  0.00    -0.269 N  
HETATM    9  H   UNL     1      -8.531  16.520  65.378  1.00  0.00     0.000 HD 
BRANCH   8  10
HETATM   10  C   UNL     1      -9.624  17.264  67.244  1.00  0.00    -0.254 C  
HETATM   11  C   UNL     1      -9.485  18.773  67.036  1.00  0.00    -0.301 C  
HETATM   12  O   UNL     1     -10.000  19.619  67.750  1.00  0.00    -0.347 OA 
HETATM   13  O   UNL     1      -8.720  19.088  65.960  1.00  0.00    -0.459 OA 
BRANCH  10  14
HETATM   14  C   UNL     1      -8.695  16.813  68.386  1.00  0.00    -0.236 C  
BRANCH  14  15
HETATM   15  C   UNL     1      -8.332  15.350  68.349  1.00  0.00    -0.147 A  
HETATM   16  C   UNL     1      -7.017  15.010  68.016  1.00  0.00    -0.147 A  
HETATM   17  C   UNL     1      -6.686  13.688  67.730  1.00  0.00    -0.177 A  
HETATM   18  C   UNL     1      -7.662  12.690  67.757  1.00  0.00    -0.145 A  
HETATM   19  C   UNL     1      -9.264  14.320  68.546  1.00  0.00    -0.197 A  
HETATM   20  C   UNL     1      -8.937  12.999  68.231  1.00  0.00    -0.177 A  
BRANCH  18  21
HETATM   21  O   UNL     1      -7.476  11.403  67.318  1.00  0.00    -0.118 OA 
BRANCH  21  22
HETATM   22  C   UNL     1      -6.344  10.755  67.903  1.00  0.00    -0.061 C  
BRANCH  22  23
HETATM   23  C   UNL     1      -6.645  10.286  69.315  1.00  0.00    -0.055 C  
BRANCH  23  24
HETATM   24  C   UNL     1      -7.580   9.070  69.381  1.00  0.00    -0.078 C  
BRANCH  24  25
HETATM   25  C   UNL     1      -8.878   9.487  70.077  1.00  0.00    -0.246 C  
BRANCH  25  26
HETATM   26  C   UNL     1     -10.177   8.860  69.536  1.00  0.00    -0.204 C  
HETATM   27  C   UNL     1     -11.361   9.309  70.414  1.00  0.00    -0.283 C  
HETATM   28  C   UNL     1     -11.812  10.733  70.092  1.00  0.00    -0.343 C  
HETATM   29  N   UNL     1     -12.216  10.828  68.693  1.00  0.00    -0.827 NA 
HETATM   30  H   UNL     1     -12.634  11.734  68.484  1.00  0.00     0.000 HD 
HETATM   31  C   UNL     1     -11.096  10.531  67.801  1.00  0.00    -0.317 C  
HETATM   32  C   UNL     1     -10.490   9.150  68.059  1.00  0.00    -0.276 C  
ENDBRANCH  25  26
ENDBRANCH  24  25
ENDBRANCH  23  24
ENDBRANCH  22  23
ENDBRANCH  21  22
ENDBRANCH  18  21
ENDBRANCH  14  15
ENDBRANCH  10  14
ENDBRANCH   8  10
ENDBRANCH   5   8
ENDBRANCH   4   5
ENDBRANCH   3   4
ENDBRANCH   2   3
TORSDOF 13
ENDMDL
MODEL       99
REMARK 921   NORMALIZED FREE ENERGY PREDICTED BY IDOCK:   -4.56 KCAL/MOL
REMARK 922        TOTAL FREE ENERGY PREDICTED BY IDOCK:  -10.57 KCAL/MOL
REMARK 923 INTER-LIGAND FREE ENERGY PREDICTED BY IDOCK:   -8.35 KCAL/MOL
REMARK 924 INTRA-LIGAND FREE ENERGY PREDICTED BY IDOCK:   -2.22 KCAL/MOL
REMARK 927      BINDING AFFINITY PREDICTED BY RF-SCORE:    0.00 PKD
ROOT
HETATM    1  C   UNL     1     -12.648  12.072  63.548  1.00  0.00    -0.625 C  
HETATM    2  C   UNL     1     -11.166  12.438  63.517  1.00  0.00    -0.540 C  
ENDROOT
BRANCH   2   3
HETATM    3  C   UNL     1     -10.368  11.278  64.086  1.00  0.00    -0.410 C  
BRANCH   3   4
HETATM    4  C   UNL     1      -9.291  10.673  63.180  1.00  0.00    -0.314 C  
BRANCH   4   5
HETATM    5  S   UNL     1      -8.421   9.474  64.213  1.00  0.00    -0.197 S  
HETATM    6  O   UNL     1      -7.953   8.396  63.373  1.00  0.00    -0.149 OA 
HETATM    7  O   UNL     1      -7.525  10.227  65.058  1.00  0.00    -0.140 OA 
BRANCH   5   8
HETATM    8  N   UNL     1      -9.601   8.769  65.215  1.00  0.00    -0.383 N  
HETATM    9  H   UNL     1     -10.500   8.412  64.890  1.00  0.00     0.000 HD 
BRANCH   8  10
HETATM   10  C   UNL     1      -9.126   8.745  66.687  1.00  0.00    -0.158 C  
HETATM   11  C   UNL     1      -8.729   7.318  67.065  1.00  0.00    -0.123 C  
HETATM   12  O   UNL     1      -7.936   7.032  67.950  1.00  0.00    -0.112 OA 
HETATM   13  O   UNL     1      -9.350   6.379  66.308  1.00  0.00    -0.161 OA 
BRANCH  10  14
HETATM   14  C   UNL     1     -10.136   9.288  67.715  1.00  0.00    -0.253 C  
BRANCH  14  15
HETATM   15  C   UNL     1     -10.304  10.787  67.688  1.00  0.00    -0.236 A  
HETATM   16  C   UNL     1     -11.603  11.298  67.603  1.00  0.00    -0.290 A  
HETATM   17  C   UNL     1     -11.808  12.648  67.331  1.00  0.00    -0.393 A  
HETATM   18  C   UNL     1     -10.723  13.504  67.125  1.00  0.00    -0.279 A  
HETATM   19  C   UNL     1      -9.224  11.682  67.656  1.00  0.00    -0.178 A  
HETATM   20  C   UNL     1      -9.432  13.031  67.355  1.00  0.00    -0.210 A  
BRANCH  18  21
HETATM   21  O   UNL     1     -10.823  14.797  66.677  1.00  0.00    -0.307 OA 
BRANCH  21  22
HETATM   22  C   UNL     1     -11.025  15.753  67.720  1.00  0.00    -0.314 C  
BRANCH  22  23
HETATM   23  C   UNL     1     -10.080  16.933  67.578  1.00  0.00    -0.282 C  
BRANCH  23  24
HETATM   24  C   UNL     1      -8.619  16.606  67.918  1.00  0.00    -0.196 C  
BRANCH  24  25
HETATM   25  C   UNL     1      -7.766  16.811  66.663  1.00  0.00    -0.308 C  
BRANCH  25  26
HETATM   26  C   UNL     1      -6.648  17.865  66.760  1.00  0.00    -0.216 C  
HETATM   27  C   UNL     1      -6.792  18.865  65.597  1.00  0.00    -0.292 C  
HETATM   28  C   UNL     1      -7.898  19.889  65.848  1.00  0.00    -0.302 C  
HETATM   29  N   UNL     1      -7.619  20.640  67.068  1.00  0.00    -0.453 NA 
HETATM   30  H   UNL     1      -8.277  21.410  67.193  1.00  0.00     0.000 HD 
HETATM   31  C   UNL     1      -7.592  19.759  68.234  1.00  0.00    -0.303 C  
HETATM   32  C   UNL     1      -6.569  18.629  68.092  1.00  0.00    -0.231 C  
ENDBRANCH  25  26
ENDBRANCH  24  25
ENDBRANCH  23  24
ENDBRANCH  22  23
ENDBRANCH  21  22
ENDBRANCH  18  21
ENDBRANCH  14  15
ENDBRANCH  10  14
ENDBRANCH   8  10
ENDBRANCH   5   8
ENDBRANCH   4   5
ENDBRANCH   3   4
ENDBRANCH   2   3
TORSDOF 13
ENDMDL
MODEL      100
REMARK 921   NORMALIZED FREE ENERGY PREDICTED BY IDOCK:   -4.56 KCAL/MOL
REMARK 922        TOTAL FREE ENERGY PREDICTED BY IDOCK:  -10.56 KCAL/MOL
REMARK 923 INTER-LIGAND FREE ENERGY PREDICTED BY IDOCK:   -8.64 KCAL/MOL
REMARK 924 INTRA-LIGAND FREE ENERGY PREDICTED BY IDOCK:   -1.93 KCAL/MOL
REMARK 927      BINDING AFFINITY PREDICTED BY RF-SCORE:    0.00 PKD
ROOT
HETATM    1  C   UNL     1     -14.262   8.984  71.993  1.00  0.00    -0.384 C  
HETATM    2  C   UNL     1     -13.051   9.907  71.879  1.00  0.00    -0.559 C  
ENDROOT
BRANCH   2   3
HETATM    3  C   UNL     1     -11.825   9.062  71.579  1.00  0.00    -0.415 C  
BRANCH   3   4
HETATM    4  C   UNL     1     -11.429   8.023  72.633  1.00  0.00    -0.402 C  
BRANCH   4   5
HETATM    5  S   UNL     1     -11.300   6.462  71.735  1.00  0.00    -0.302 S  
HETATM    6  O   UNL     1     -11.668   5.386  72.626  1.00  0.00    -0.271 OA 
HETATM    7  O   UNL     1     -11.954   6.659  70.464  1.00  0.00    -0.400 OA 
BRANCH   5   8
HETATM    8  N   UNL     1      -9.642   6.229  71.429  1.00  0.00    -0.156 N  
HETATM    9  H   UNL     1      -8.981   5.826  72.093  1.00  0.00     0.000 HD 
BRANCH   8  10
HETATM   10  C   UNL     1      -9.275   6.713  70.006  1.00  0.00    -0.158 C  
HETATM   11  C   UNL     1      -8.360   5.683  69.344  1.00  0.00    -0.107 C  
HETATM   12  O   UNL     1      -8.248   5.533  68.136  1.00  0.00    -0.096 OA 
HETATM   13  O   UNL     1      -7.671   4.935  70.242  1.00  0.00    -0.060 OA 
BRANCH  10  14
HETATM   14  C   UNL     1      -8.623   8.106  69.931  1.00  0.00    -0.130 C  
BRANCH  14  15
HETATM   15  C   UNL     1      -9.347   9.083  69.039  1.00  0.00    -0.140 A  
HETATM   16  C   UNL     1      -9.286  10.441  69.370  1.00  0.00    -0.186 A  
HETATM   17  C   UNL     1     -10.123  11.355  68.736  1.00  0.00    -0.199 A  
HETATM   18  C   UNL     1     -11.043  10.928  67.776  1.00  0.00    -0.309 A  
HETATM   19  C   UNL     1     -10.144   8.690  67.954  1.00  0.00    -0.254 A  
HETATM   20  C   UNL     1     -11.004   9.604  67.339  1.00  0.00    -0.139 A  
BRANCH  18  21
HETATM   21  O   UNL     1     -12.027  11.715  67.232  1.00  0.00    -0.627 OA 
BRANCH  21  22
HETATM   22  C   UNL     1     -11.844  13.112  67.473  1.00  0.00    -0.360 C  
BRANCH  22  23
HETATM   23  C   UNL     1     -12.217  13.937  66.254  1.00  0.00    -0.498 C  
BRANCH  23  24
HETATM   24  C   UNL     1     -11.036  14.235  65.320  1.00  0.00    -0.347 C  
BRANCH  24  25
HETATM   25  C   UNL     1     -10.871  15.754  65.209  1.00  0.00    -0.409 C  
BRANCH  25  26
HETATM   26  C   UNL     1      -9.553  16.340  65.748  1.00  0.00    -0.266 C  
HETATM   27  C   UNL     1      -9.796  17.788  66.218  1.00  0.00    -0.301 C  
HETATM   28  C   UNL     1     -10.482  17.846  67.582  1.00  0.00    -0.397 C  
HETATM   29  N   UNL     1      -9.663  17.170  68.584  1.00  0.00    -0.282 NA 
HETATM   30  H   UNL     1     -10.038  17.299  69.524  1.00  0.00     0.000 HD 
HETATM   31  C   UNL     1      -9.497  15.754  68.259  1.00  0.00    -0.200 C  
HETATM   32  C   UNL     1      -8.880  15.538  66.875  1.00  0.00    -0.284 C  
ENDBRANCH  25  26
ENDBRANCH  24  25
ENDBRANCH  23  24
ENDBRANCH  22  23
ENDBRANCH  21  22
ENDBRANCH  18  21
ENDBRANCH  14  15
ENDBRANCH  10  14
ENDBRANCH   8  10
ENDBRANCH   5   8
ENDBRANCH   4   5
ENDBRANCH   3   4
ENDBRANCH   2   3
TORSDOF 13
ENDMDL
MODEL      101
REMARK 921   NORMALIZED FREE ENERGY PREDICTED BY IDOCK:   -4.54 KCAL/MOL
REMARK 922        TOTAL FREE ENERGY PREDICTED BY IDOCK:  -10.53 KCAL/MOL
REMARK 923 INTER-LIGAND FREE ENERGY PREDICTED BY IDOCK:   -8.19 KCAL/MOL
REMARK 924 INTRA-LIGAND FREE ENERGY PREDICTED BY IDOCK:   -2.34 KCAL/MOL
REMARK 927      BINDING AFFINITY PREDICTED BY RF-SCORE:    0.00 PKD
ROOT
HETATM    1  C   UNL     1     -10.541   7.210  67.284  1.00  0.00    -0.398 C  
HETATM    2  C   UNL     1     -11.231   6.515  68.456  1.00  0.00    -0.287 C  
ENDROOT
BRANCH   2   3
HETATM    3  C   UNL     1     -10.265   5.513  69.061  1.00  0.00    -0.298 C  
BRANCH   3   4
HETATM    4  C   UNL     1      -9.209   6.069  70.022  1.00  0.00    -0.149 C  
BRANCH   4   5
HETATM    5  S   UNL     1      -9.228   4.955  71.444  1.00  0.00    -0.150 S  
HETATM    6  O   UNL     1     -10.091   3.838  71.142  1.00  0.00    -0.128 OA 
HETATM    7  O   UNL     1      -7.854   4.773  71.846  1.00  0.00    -0.094 OA 
BRANCH   5   8
HETATM    8  N   UNL     1     -10.020   5.798  72.692  1.00  0.00    -0.175 N  
HETATM    9  H   UNL     1     -10.564   5.357  73.434  1.00  0.00     0.000 HD 
BRANCH   8  10
HETATM   10  C   UNL     1      -9.803   7.322  72.547  1.00  0.00    -0.159 C  
HETATM   11  C   UNL     1      -8.668   7.760  73.475  1.00  0.00    -0.241 C  
HETATM   12  O   UNL     1      -7.974   8.750  73.299  1.00  0.00    -0.409 OA 
HETATM   13  O   UNL     1      -8.499   6.926  74.532  1.00  0.00    -0.151 OA 
BRANCH  10  14
HETATM   14  C   UNL     1     -11.045   8.194  72.808  1.00  0.00    -0.407 C  
BRANCH  14  15
HETATM   15  C   UNL     1     -11.404   9.118  71.672  1.00  0.00    -0.446 A  
HETATM   16  C   UNL     1     -10.397   9.459  70.763  1.00  0.00    -0.366 A  
HETATM   17  C   UNL     1     -10.600  10.487  69.846  1.00  0.00    -0.261 A  
HETATM   18  C   UNL     1     -11.802  11.198  69.831  1.00  0.00    -0.363 A  
HETATM   19  C   UNL     1     -12.666   9.715  71.534  1.00  0.00    -0.480 A  
HETATM   20  C   UNL     1     -12.858  10.765  70.632  1.00  0.00    -0.377 A  
BRANCH  18  21
HETATM   21  O   UNL     1     -12.028  12.335  69.096  1.00  0.00    -0.297 OA 
BRANCH  21  22
HETATM   22  C   UNL     1     -10.935  13.257  69.114  1.00  0.00    -0.161 C  
BRANCH  22  23
HETATM   23  C   UNL     1     -10.968  14.175  67.904  1.00  0.00    -0.264 C  
BRANCH  23  24
HETATM   24  C   UNL     1     -11.708  13.586  66.696  1.00  0.00    -0.425 C  
BRANCH  24  25
HETATM   25  C   UNL     1     -10.680  12.956  65.751  1.00  0.00    -0.293 C  
BRANCH  25  26
HETATM   26  C   UNL     1     -10.565  11.421  65.791  1.00  0.00    -0.315 C  
HETATM   27  C   UNL     1     -10.537  10.877  64.349  1.00  0.00    -0.343 C  
HETATM   28  C   UNL     1      -9.167  11.049  63.694  1.00  0.00    -0.197 C  
HETATM   29  N   UNL     1      -8.148  10.349  64.469  1.00  0.00    -0.263 NA 
HETATM   30  H   UNL     1      -7.247  10.346  63.989  1.00  0.00     0.000 HD 
HETATM   31  C   UNL     1      -8.039  10.903  65.818  1.00  0.00    -0.094 C  
HETATM   32  C   UNL     1      -9.367  10.863  66.577  1.00  0.00    -0.195 C  
ENDBRANCH  25  26
ENDBRANCH  24  25
ENDBRANCH  23  24
ENDBRANCH  22  23
ENDBRANCH  21  22
ENDBRANCH  18  21
ENDBRANCH  14  15
ENDBRANCH  10  14
ENDBRANCH   8  10
ENDBRANCH   5   8
ENDBRANCH   4   5
ENDBRANCH   3   4
ENDBRANCH   2   3
TORSDOF 13
ENDMDL
MODEL      102
REMARK 921   NORMALIZED FREE ENERGY PREDICTED BY IDOCK:   -4.54 KCAL/MOL
REMARK 922        TOTAL FREE ENERGY PREDICTED BY IDOCK:  -10.53 KCAL/MOL
REMARK 923 INTER-LIGAND FREE ENERGY PREDICTED BY IDOCK:   -9.27 KCAL/MOL
REMARK 924 INTRA-LIGAND FREE ENERGY PREDICTED BY IDOCK:   -1.25 KCAL/MOL
REMARK 927      BINDING AFFINITY PREDICTED BY RF-SCORE:    0.00 PKD
ROOT
HETATM    1  C   UNL     1     -10.107   6.971  66.877  1.00  0.00    -0.296 C  
HETATM    2  C   UNL     1     -10.282   8.362  67.484  1.00  0.00    -0.308 C  
ENDROOT
BRANCH   2   3
HETATM    3  C   UNL     1      -9.842   9.395  66.462  1.00  0.00    -0.325 C  
BRANCH   3   4
HETATM    4  C   UNL     1     -10.692  10.664  66.356  1.00  0.00    -0.129 C  
BRANCH   4   5
HETATM    5  S   UNL     1      -9.608  11.902  65.612  1.00  0.00    -0.162 S  
HETATM    6  O   UNL     1      -8.246  11.611  65.996  1.00  0.00    -0.007 OA 
HETATM    7  O   UNL     1     -10.003  12.022  64.229  1.00  0.00    -0.276 OA 
BRANCH   5   8
HETATM    8  N   UNL     1      -9.975  13.375  66.380  1.00  0.00    -0.287 N  
HETATM    9  H   UNL     1      -9.311  14.137  66.520  1.00  0.00     0.000 HD 
BRANCH   8  10
HETATM   10  C   UNL     1     -11.453  13.401  66.837  1.00  0.00    -0.342 C  
HETATM   11  C   UNL     1     -12.313  14.001  65.724  1.00  0.00    -0.480 C  
HETATM   12  O   UNL     1     -13.505  13.775  65.574  1.00  0.00    -0.591 OA 
HETATM   13  O   UNL     1     -11.614  14.823  64.902  1.00  0.00    -0.373 OA 
BRANCH  10  14
HETATM   14  C   UNL     1     -11.722  14.147  68.156  1.00  0.00    -0.390 C  
BRANCH  14  15
HETATM   15  C   UNL     1     -11.865  13.249  69.359  1.00  0.00    -0.386 A  
HETATM   16  C   UNL     1     -11.521  11.900  69.213  1.00  0.00    -0.366 A  
HETATM   17  C   UNL     1     -11.857  10.981  70.203  1.00  0.00    -0.441 A  
HETATM   18  C   UNL     1     -12.553  11.388  71.344  1.00  0.00    -0.334 A  
HETATM   19  C   UNL     1     -12.404  13.678  70.581  1.00  0.00    -0.440 A  
HETATM   20  C   UNL     1     -12.766  12.749  71.560  1.00  0.00    -0.330 A  
BRANCH  18  21
HETATM   21  O   UNL     1     -13.084  10.536  72.280  1.00  0.00    -0.394 OA 
BRANCH  21  22
HETATM   22  C   UNL     1     -13.297   9.209  71.794  1.00  0.00    -0.406 C  
BRANCH  22  23
HETATM   23  C   UNL     1     -12.185   8.274  72.236  1.00  0.00    -0.428 C  
BRANCH  23  24
HETATM   24  C   UNL     1     -11.922   7.116  71.263  1.00  0.00    -0.374 C  
BRANCH  24  25
HETATM   25  C   UNL     1     -10.721   6.313  71.771  1.00  0.00    -0.279 C  
BRANCH  25  26
HETATM   26  C   UNL     1     -10.963   5.428  73.008  1.00  0.00    -0.348 C  
HETATM   27  C   UNL     1     -10.642   3.963  72.653  1.00  0.00    -0.170 C  
HETATM   28  C   UNL     1      -9.139   3.687  72.642  1.00  0.00    -0.103 C  
HETATM   29  N   UNL     1      -8.565   3.978  73.951  1.00  0.00    -0.094 NA 
HETATM   30  H   UNL     1      -7.588   3.689  74.006  1.00  0.00     0.000 HD 
HETATM   31  C   UNL     1      -8.728   5.390  74.295  1.00  0.00    -0.118 C  
HETATM   32  C   UNL     1     -10.193   5.833  74.276  1.00  0.00    -0.294 C  
ENDBRANCH  25  26
ENDBRANCH  24  25
ENDBRANCH  23  24
ENDBRANCH  22  23
ENDBRANCH  21  22
ENDBRANCH  18  21
ENDBRANCH  14  15
ENDBRANCH  10  14
ENDBRANCH   8  10
ENDBRANCH   5   8
ENDBRANCH   4   5
ENDBRANCH   3   4
ENDBRANCH   2   3
TORSDOF 13
ENDMDL
MODEL      103
REMARK 921   NORMALIZED FREE ENERGY PREDICTED BY IDOCK:   -4.53 KCAL/MOL
REMARK 922        TOTAL FREE ENERGY PREDICTED BY IDOCK:  -10.51 KCAL/MOL
REMARK 923 INTER-LIGAND FREE ENERGY PREDICTED BY IDOCK:   -8.13 KCAL/MOL
REMARK 924 INTRA-LIGAND FREE ENERGY PREDICTED BY IDOCK:   -2.39 KCAL/MOL
REMARK 927      BINDING AFFINITY PREDICTED BY RF-SCORE:    0.00 PKD
ROOT
HETATM    1  C   UNL     1      -9.069   5.077  72.128  1.00  0.00    -0.147 C  
HETATM    2  C   UNL     1     -10.249   5.158  71.163  1.00  0.00    -0.291 C  
ENDROOT
BRANCH   2   3
HETATM    3  C   UNL     1     -11.210   6.222  71.661  1.00  0.00    -0.337 C  
BRANCH   3   4
HETATM    4  C   UNL     1     -11.510   7.380  70.704  1.00  0.00    -0.282 C  
BRANCH   4   5
HETATM    5  S   UNL     1     -10.738   8.829  71.456  1.00  0.00    -0.329 S  
HETATM    6  O   UNL     1     -11.714   9.891  71.520  1.00  0.00    -0.380 OA 
HETATM    7  O   UNL     1     -10.038   8.364  72.629  1.00  0.00    -0.292 OA 
BRANCH   5   8
HETATM    8  N   UNL     1      -9.570   9.373  70.344  1.00  0.00    -0.249 N  
HETATM    9  H   UNL     1      -9.575  10.292  69.901  1.00  0.00     0.000 HD 
BRANCH   8  10
HETATM   10  C   UNL     1      -8.501   8.282  70.097  1.00  0.00    -0.126 C  
HETATM   11  C   UNL     1      -7.158   8.757  70.655  1.00  0.00    -0.063 C  
HETATM   12  O   UNL     1      -6.256   8.015  71.012  1.00  0.00    -0.034 OA 
HETATM   13  O   UNL     1      -7.063  10.109  70.720  1.00  0.00    -0.333 OA 
BRANCH  10  14
HETATM   14  C   UNL     1      -8.325   7.852  68.629  1.00  0.00    -0.128 C  
BRANCH  14  15
HETATM   15  C   UNL     1      -8.671   8.921  67.623  1.00  0.00    -0.124 A  
HETATM   16  C   UNL     1      -9.888   8.810  66.943  1.00  0.00    -0.295 A  
HETATM   17  C   UNL     1     -10.152   9.620  65.842  1.00  0.00    -0.304 A  
HETATM   18  C   UNL     1      -9.201  10.540  65.394  1.00  0.00    -0.192 A  
HETATM   19  C   UNL     1      -7.799   9.964  67.277  1.00  0.00    -0.102 A  
HETATM   20  C   UNL     1      -8.053  10.756  66.155  1.00  0.00    -0.160 A  
BRANCH  18  21
HETATM   21  O   UNL     1      -9.292  11.248  64.221  1.00  0.00    -0.196 OA 
BRANCH  21  22
HETATM   22  C   UNL     1     -10.630  11.602  63.866  1.00  0.00    -0.391 C  
BRANCH  22  23
HETATM   23  C   UNL     1     -11.030  12.932  64.481  1.00  0.00    -0.377 C  
BRANCH  23  24
HETATM   24  C   UNL     1     -12.187  12.831  65.484  1.00  0.00    -0.519 C  
BRANCH  24  25
HETATM   25  C   UNL     1     -12.020  13.930  66.537  1.00  0.00    -0.470 C  
BRANCH  25  26
HETATM   26  C   UNL     1     -10.869  13.745  67.543  1.00  0.00    -0.274 C  
HETATM   27  C   UNL     1     -11.040  14.748  68.700  1.00  0.00    -0.274 C  
HETATM   28  C   UNL     1     -12.103  14.298  69.702  1.00  0.00    -0.346 C  
HETATM   29  N   UNL     1     -11.744  13.002  70.268  1.00  0.00    -0.542 NA 
HETATM   30  H   UNL     1     -12.373  12.736  71.026  1.00  0.00     0.000 HD 
HETATM   31  C   UNL     1     -11.685  11.973  69.230  1.00  0.00    -0.330 C  
HETATM   32  C   UNL     1     -10.703  12.325  68.110  1.00  0.00    -0.241 C  
ENDBRANCH  25  26
ENDBRANCH  24  25
ENDBRANCH  23  24
ENDBRANCH  22  23
ENDBRANCH  21  22
ENDBRANCH  18  21
ENDBRANCH  14  15
ENDBRANCH  10  14
ENDBRANCH   8  10
ENDBRANCH   5   8
ENDBRANCH   4   5
ENDBRANCH   3   4
ENDBRANCH   2   3
TORSDOF 13
ENDMDL
MODEL      104
REMARK 921   NORMALIZED FREE ENERGY PREDICTED BY IDOCK:   -4.52 KCAL/MOL
REMARK 922        TOTAL FREE ENERGY PREDICTED BY IDOCK:  -10.50 KCAL/MOL
REMARK 923 INTER-LIGAND FREE ENERGY PREDICTED BY IDOCK:   -9.05 KCAL/MOL
REMARK 924 INTRA-LIGAND FREE ENERGY PREDICTED BY IDOCK:   -1.45 KCAL/MOL
REMARK 927      BINDING AFFINITY PREDICTED BY RF-SCORE:    0.00 PKD
ROOT
HETATM    1  C   UNL     1      -9.701   7.020  66.825  1.00  0.00    -0.241 C  
HETATM    2  C   UNL     1     -11.017   6.459  67.358  1.00  0.00    -0.463 C  
ENDROOT
BRANCH   2   3
HETATM    3  C   UNL     1     -10.820   6.057  68.809  1.00  0.00    -0.391 C  
BRANCH   3   4
HETATM    4  C   UNL     1      -9.491   6.456  69.459  1.00  0.00    -0.145 C  
BRANCH   4   5
HETATM    5  S   UNL     1      -9.307   5.353  70.877  1.00  0.00    -0.161 S  
HETATM    6  O   UNL     1      -9.778   4.040  70.503  1.00  0.00    -0.179 OA 
HETATM    7  O   UNL     1      -7.979   5.568  71.400  1.00  0.00    -0.107 OA 
BRANCH   5   8
HETATM    8  N   UNL     1     -10.414   5.900  72.048  1.00  0.00    -0.207 N  
HETATM    9  H   UNL     1     -11.051   5.297  72.570  1.00  0.00     0.000 HD 
BRANCH   8  10
HETATM   10  C   UNL     1     -10.323   7.435  72.212  1.00  0.00    -0.214 C  
HETATM   11  C   UNL     1      -9.426   7.762  73.407  1.00  0.00    -0.287 C  
HETATM   12  O   UNL     1      -8.811   8.809  73.544  1.00  0.00    -0.202 OA 
HETATM   13  O   UNL     1      -9.375   6.758  74.318  1.00  0.00    -0.196 OA 
BRANCH  10  14
HETATM   14  C   UNL     1     -11.671   8.164  72.366  1.00  0.00    -0.461 C  
BRANCH  14  15
HETATM   15  C   UNL     1     -11.835   9.361  71.465  1.00  0.00    -0.456 A  
HETATM   16  C   UNL     1     -10.915   9.529  70.424  1.00  0.00    -0.333 A  
HETATM   17  C   UNL     1     -10.867  10.727  69.718  1.00  0.00    -0.284 A  
HETATM   18  C   UNL     1     -11.723  11.781  70.047  1.00  0.00    -0.305 A  
HETATM   19  C   UNL     1     -12.805  10.353  71.672  1.00  0.00    -0.579 A  
HETATM   20  C   UNL     1     -12.736  11.566  70.981  1.00  0.00    -0.426 A  
BRANCH  18  21
HETATM   21  O   UNL     1     -11.630  13.051  69.537  1.00  0.00    -0.283 OA 
BRANCH  21  22
HETATM   22  C   UNL     1     -10.975  13.114  68.268  1.00  0.00    -0.253 C  
BRANCH  22  23
HETATM   23  C   UNL     1     -11.771  13.944  67.276  1.00  0.00    -0.418 C  
BRANCH  23  24
HETATM   24  C   UNL     1     -10.999  14.293  65.996  1.00  0.00    -0.312 C  
BRANCH  24  25
HETATM   25  C   UNL     1      -9.616  14.822  66.387  1.00  0.00    -0.324 C  
BRANCH  25  26
HETATM   26  C   UNL     1      -9.316  16.288  66.023  1.00  0.00    -0.361 C  
HETATM   27  C   UNL     1     -10.507  17.169  66.447  1.00  0.00    -0.255 C  
HETATM   28  C   UNL     1     -10.511  17.453  67.948  1.00  0.00    -0.383 C  
HETATM   29  N   UNL     1      -9.278  18.130  68.335  1.00  0.00    -0.300 NA 
HETATM   30  H   UNL     1      -9.308  18.438  69.307  1.00  0.00     0.000 HD 
HETATM   31  C   UNL     1      -8.111  17.290  68.070  1.00  0.00    -0.221 C  
HETATM   32  C   UNL     1      -8.015  16.865  66.604  1.00  0.00    -0.300 C  
ENDBRANCH  25  26
ENDBRANCH  24  25
ENDBRANCH  23  24
ENDBRANCH  22  23
ENDBRANCH  21  22
ENDBRANCH  18  21
ENDBRANCH  14  15
ENDBRANCH  10  14
ENDBRANCH   8  10
ENDBRANCH   5   8
ENDBRANCH   4   5
ENDBRANCH   3   4
ENDBRANCH   2   3
TORSDOF 13
ENDMDL
MODEL      105
REMARK 921   NORMALIZED FREE ENERGY PREDICTED BY IDOCK:   -4.51 KCAL/MOL
REMARK 922        TOTAL FREE ENERGY PREDICTED BY IDOCK:  -10.49 KCAL/MOL
REMARK 923 INTER-LIGAND FREE ENERGY PREDICTED BY IDOCK:   -8.81 KCAL/MOL
REMARK 924 INTRA-LIGAND FREE ENERGY PREDICTED BY IDOCK:   -1.68 KCAL/MOL
REMARK 927      BINDING AFFINITY PREDICTED BY RF-SCORE:    0.00 PKD
ROOT
HETATM    1  C   UNL     1      -8.390   4.171  70.019  1.00  0.00    -0.079 C  
HETATM    2  C   UNL     1      -9.033   3.190  70.997  1.00  0.00    -0.164 C  
ENDROOT
BRANCH   2   3
HETATM    3  C   UNL     1      -9.840   3.979  72.013  1.00  0.00    -0.242 C  
BRANCH   3   4
HETATM    4  C   UNL     1      -9.337   5.386  72.350  1.00  0.00    -0.143 C  
BRANCH   4   5
HETATM    5  S   UNL     1     -10.537   6.050  73.525  1.00  0.00    -0.256 S  
HETATM    6  O   UNL     1     -10.793   5.051  74.536  1.00  0.00    -0.331 OA 
HETATM    7  O   UNL     1     -10.094   7.382  73.862  1.00  0.00    -0.313 OA 
BRANCH   5   8
HETATM    8  N   UNL     1     -12.002   6.197  72.672  1.00  0.00    -0.528 N  
HETATM    9  H   UNL     1     -12.862   5.701  72.907  1.00  0.00     0.000 HD 
BRANCH   8  10
HETATM   10  C   UNL     1     -11.851   7.185  71.491  1.00  0.00    -0.313 C  
HETATM   11  C   UNL     1     -12.922   8.272  71.604  1.00  0.00    -0.337 C  
HETATM   12  O   UNL     1     -12.823   9.392  71.126  1.00  0.00    -0.310 OA 
HETATM   13  O   UNL     1     -14.013   7.866  72.300  1.00  0.00    -0.189 OA 
BRANCH  10  14
HETATM   14  C   UNL     1     -11.906   6.551  70.089  1.00  0.00    -0.331 C  
BRANCH  14  15
HETATM   15  C   UNL     1     -10.745   6.916  69.198  1.00  0.00    -0.262 A  
HETATM   16  C   UNL     1      -9.697   7.654  69.758  1.00  0.00    -0.171 A  
HETATM   17  C   UNL     1      -8.725   8.223  68.939  1.00  0.00    -0.137 A  
HETATM   18  C   UNL     1      -8.793   8.079  67.552  1.00  0.00    -0.128 A  
HETATM   19  C   UNL     1     -10.707   6.628  67.826  1.00  0.00    -0.352 A  
HETATM   20  C   UNL     1      -9.748   7.224  67.003  1.00  0.00    -0.235 A  
BRANCH  18  21
HETATM   21  O   UNL     1      -7.995   8.747  66.657  1.00  0.00    -0.098 OA 
BRANCH  21  22
HETATM   22  C   UNL     1      -7.966  10.162  66.859  1.00  0.00    -0.114 C  
BRANCH  22  23
HETATM   23  C   UNL     1      -9.370  10.740  66.911  1.00  0.00    -0.179 C  
BRANCH  23  24
HETATM   24  C   UNL     1      -9.626  11.847  65.878  1.00  0.00    -0.248 C  
BRANCH  24  25
HETATM   25  C   UNL     1     -10.523  12.912  66.515  1.00  0.00    -0.275 C  
BRANCH  25  26
HETATM   26  C   UNL     1     -11.989  12.942  66.043  1.00  0.00    -0.505 C  
HETATM   27  C   UNL     1     -12.486  14.401  66.027  1.00  0.00    -0.305 C  
HETATM   28  C   UNL     1     -11.986  15.169  64.804  1.00  0.00    -0.250 C  
HETATM   29  N   UNL     1     -12.440  14.516  63.581  1.00  0.00    -1.078 NA 
HETATM   30  H   UNL     1     -12.222  15.074  62.755  1.00  0.00     0.000 HD 
HETATM   31  C   UNL     1     -11.898  13.162  63.475  1.00  0.00    -0.476 C  
HETATM   32  C   UNL     1     -12.262  12.289  64.678  1.00  0.00    -0.454 C  
ENDBRANCH  25  26
ENDBRANCH  24  25
ENDBRANCH  23  24
ENDBRANCH  22  23
ENDBRANCH  21  22
ENDBRANCH  18  21
ENDBRANCH  14  15
ENDBRANCH  10  14
ENDBRANCH   8  10
ENDBRANCH   5   8
ENDBRANCH   4   5
ENDBRANCH   3   4
ENDBRANCH   2   3
TORSDOF 13
ENDMDL
MODEL      106
REMARK 921   NORMALIZED FREE ENERGY PREDICTED BY IDOCK:   -4.51 KCAL/MOL
REMARK 922        TOTAL FREE ENERGY PREDICTED BY IDOCK:  -10.47 KCAL/MOL
REMARK 923 INTER-LIGAND FREE ENERGY PREDICTED BY IDOCK:   -8.45 KCAL/MOL
REMARK 924 INTRA-LIGAND FREE ENERGY PREDICTED BY IDOCK:   -2.02 KCAL/MOL
REMARK 927      BINDING AFFINITY PREDICTED BY RF-SCORE:    0.00 PKD
ROOT
HETATM    1  C   UNL     1     -12.469  11.140  70.810  1.00  0.00    -0.479 C  
HETATM    2  C   UNL     1     -12.970   9.786  71.306  1.00  0.00    -0.470 C  
ENDROOT
BRANCH   2   3
HETATM    3  C   UNL     1     -11.810   9.047  71.950  1.00  0.00    -0.447 C  
BRANCH   3   4
HETATM    4  C   UNL     1     -11.337   7.767  71.255  1.00  0.00    -0.264 C  
BRANCH   4   5
HETATM    5  S   UNL     1      -9.534   7.858  71.267  1.00  0.00    -0.160 S  
HETATM    6  O   UNL     1      -9.143   9.198  71.637  1.00  0.00    -0.334 OA 
HETATM    7  O   UNL     1      -9.065   6.698  71.987  1.00  0.00    -0.140 OA 
BRANCH   5   8
HETATM    8  N   UNL     1      -9.041   7.689  69.647  1.00  0.00    -0.147 N  
HETATM    9  H   UNL     1      -8.361   8.290  69.182  1.00  0.00     0.000 HD 
BRANCH   8  10
HETATM   10  C   UNL     1      -9.767   6.499  68.976  1.00  0.00    -0.135 C  
HETATM   11  C   UNL     1      -8.745   5.415  68.631  1.00  0.00    -0.097 C  
HETATM   12  O   UNL     1      -9.010   4.229  68.508  1.00  0.00    -0.101 OA 
HETATM   13  O   UNL     1      -7.489   5.906  68.472  1.00  0.00    -0.082 OA 
BRANCH  10  14
HETATM   14  C   UNL     1     -10.589   6.850  67.721  1.00  0.00    -0.305 C  
BRANCH  14  15
HETATM   15  C   UNL     1     -10.260   8.194  67.121  1.00  0.00    -0.366 A  
HETATM   16  C   UNL     1     -10.946   9.313  67.605  1.00  0.00    -0.071 A  
HETATM   17  C   UNL     1     -10.866  10.529  66.932  1.00  0.00    -0.252 A  
HETATM   18  C   UNL     1     -10.114  10.644  65.761  1.00  0.00    -0.266 A  
HETATM   19  C   UNL     1      -9.370   8.361  66.049  1.00  0.00    -0.244 A  
HETATM   20  C   UNL     1      -9.314   9.575  65.359  1.00  0.00    -0.324 A  
BRANCH  18  21
HETATM   21  O   UNL     1     -10.119  11.739  64.934  1.00  0.00    -0.246 OA 
BRANCH  21  22
HETATM   22  C   UNL     1     -11.229  11.774  64.034  1.00  0.00    -0.385 C  
BRANCH  22  23
HETATM   23  C   UNL     1     -11.932  13.120  64.076  1.00  0.00    -0.524 C  
BRANCH  23  24
HETATM   24  C   UNL     1     -12.548  13.458  65.440  1.00  0.00    -0.528 C  
BRANCH  24  25
HETATM   25  C   UNL     1     -11.815  14.672  66.020  1.00  0.00    -0.280 C  
BRANCH  25  26
HETATM   26  C   UNL     1     -10.800  14.386  67.143  1.00  0.00    -0.292 C  
HETATM   27  C   UNL     1     -10.058  15.689  67.499  1.00  0.00    -0.253 C  
HETATM   28  C   UNL     1     -10.901  16.613  68.377  1.00  0.00    -0.361 C  
HETATM   29  N   UNL     1     -11.260  15.936  69.619  1.00  0.00    -0.305 NA 
HETATM   30  H   UNL     1     -11.719  16.570  70.273  1.00  0.00     0.000 HD 
HETATM   31  C   UNL     1     -12.075  14.750  69.355  1.00  0.00    -0.270 C  
HETATM   32  C   UNL     1     -11.381  13.757  68.420  1.00  0.00    -0.326 C  
ENDBRANCH  25  26
ENDBRANCH  24  25
ENDBRANCH  23  24
ENDBRANCH  22  23
ENDBRANCH  21  22
ENDBRANCH  18  21
ENDBRANCH  14  15
ENDBRANCH  10  14
ENDBRANCH   8  10
ENDBRANCH   5   8
ENDBRANCH   4   5
ENDBRANCH   3   4
ENDBRANCH   2   3
TORSDOF 13
ENDMDL
MODEL      107
REMARK 921   NORMALIZED FREE ENERGY PREDICTED BY IDOCK:   -4.50 KCAL/MOL
REMARK 922        TOTAL FREE ENERGY PREDICTED BY IDOCK:  -10.46 KCAL/MOL
REMARK 923 INTER-LIGAND FREE ENERGY PREDICTED BY IDOCK:   -8.41 KCAL/MOL
REMARK 924 INTRA-LIGAND FREE ENERGY PREDICTED BY IDOCK:   -2.05 KCAL/MOL
REMARK 927      BINDING AFFINITY PREDICTED BY RF-SCORE:    0.00 PKD
ROOT
HETATM    1  C   UNL     1     -11.698  14.665  68.673  1.00  0.00    -0.362 C  
HETATM    2  C   UNL     1     -10.924  14.182  67.448  1.00  0.00    -0.306 C  
ENDROOT
BRANCH   2   3
HETATM    3  C   UNL     1     -11.911  13.929  66.321  1.00  0.00    -0.431 C  
BRANCH   3   4
HETATM    4  C   UNL     1     -12.143  12.467  65.927  1.00  0.00    -0.352 C  
BRANCH   4   5
HETATM    5  S   UNL     1     -11.612  12.350  64.205  1.00  0.00    -0.424 S  
HETATM    6  O   UNL     1     -12.777  12.154  63.375  1.00  0.00    -0.722 OA 
HETATM    7  O   UNL     1     -10.689  13.437  63.981  1.00  0.00    -0.342 OA 
BRANCH   5   8
HETATM    8  N   UNL     1     -10.734  10.898  64.079  1.00  0.00    -0.478 N  
HETATM    9  H   UNL     1     -11.124  10.010  63.764  1.00  0.00     0.000 HD 
BRANCH   8  10
HETATM   10  C   UNL     1      -9.262  11.109  64.508  1.00  0.00    -0.108 C  
HETATM   11  C   UNL     1      -8.377  10.089  63.791  1.00  0.00    -0.170 C  
HETATM   12  O   UNL     1      -7.187  10.245  63.563  1.00  0.00    -0.138 OA 
HETATM   13  O   UNL     1      -9.053   8.971  63.422  1.00  0.00     0.003 OA 
BRANCH  10  14
HETATM   14  C   UNL     1      -9.001  11.042  66.024  1.00  0.00    -0.209 C  
BRANCH  14  15
HETATM   15  C   UNL     1      -9.214   9.678  66.630  1.00  0.00    -0.187 A  
HETATM   16  C   UNL     1      -8.083   8.948  67.013  1.00  0.00    -0.109 A  
HETATM   17  C   UNL     1      -8.199   7.602  67.349  1.00  0.00    -0.116 A  
HETATM   18  C   UNL     1      -9.438   6.960  67.293  1.00  0.00    -0.137 A  
HETATM   19  C   UNL     1     -10.475   9.075  66.747  1.00  0.00    -0.270 A  
HETATM   20  C   UNL     1     -10.585   7.717  67.056  1.00  0.00    -0.406 A  
BRANCH  18  21
HETATM   21  O   UNL     1      -9.623   5.607  67.427  1.00  0.00    -0.112 OA 
BRANCH  21  22
HETATM   22  C   UNL     1      -9.220   5.095  68.699  1.00  0.00    -0.119 C  
BRANCH  22  23
HETATM   23  C   UNL     1     -10.396   5.010  69.657  1.00  0.00    -0.260 C  
BRANCH  23  24
HETATM   24  C   UNL     1     -10.316   5.998  70.829  1.00  0.00    -0.280 C  
BRANCH  24  25
HETATM   25  C   UNL     1     -11.447   7.021  70.685  1.00  0.00    -0.367 C  
BRANCH  25  26
HETATM   26  C   UNL     1     -11.340   8.286  71.556  1.00  0.00    -0.320 C  
HETATM   27  C   UNL     1      -9.878   8.776  71.560  1.00  0.00    -0.371 C  
HETATM   28  C   UNL     1      -9.515   9.523  70.278  1.00  0.00    -0.259 C  
HETATM   29  N   UNL     1     -10.387  10.681  70.106  1.00  0.00    -0.403 NA 
HETATM   30  H   UNL     1     -10.088  11.263  69.324  1.00  0.00     0.000 HD 
HETATM   31  C   UNL     1     -11.784  10.272  69.972  1.00  0.00    -0.254 C  
HETATM   32  C   UNL     1     -12.271   9.445  71.164  1.00  0.00    -0.402 C  
ENDBRANCH  25  26
ENDBRANCH  24  25
ENDBRANCH  23  24
ENDBRANCH  22  23
ENDBRANCH  21  22
ENDBRANCH  18  21
ENDBRANCH  14  15
ENDBRANCH  10  14
ENDBRANCH   8  10
ENDBRANCH   5   8
ENDBRANCH   4   5
ENDBRANCH   3   4
ENDBRANCH   2   3
TORSDOF 13
ENDMDL
MODEL      108
REMARK 921   NORMALIZED FREE ENERGY PREDICTED BY IDOCK:   -4.49 KCAL/MOL
REMARK 922        TOTAL FREE ENERGY PREDICTED BY IDOCK:  -10.45 KCAL/MOL
REMARK 923 INTER-LIGAND FREE ENERGY PREDICTED BY IDOCK:   -9.15 KCAL/MOL
REMARK 924 INTRA-LIGAND FREE ENERGY PREDICTED BY IDOCK:   -1.30 KCAL/MOL
REMARK 927      BINDING AFFINITY PREDICTED BY RF-SCORE:    0.00 PKD
ROOT
HETATM    1  C   UNL     1      -6.541  13.358  68.950  1.00  0.00    -0.107 C  
HETATM    2  C   UNL     1      -7.801  13.504  68.099  1.00  0.00    -0.144 C  
ENDROOT
BRANCH   2   3
HETATM    3  C   UNL     1      -7.745  14.840  67.378  1.00  0.00    -0.230 C  
BRANCH   3   4
HETATM    4  C   UNL     1      -8.593  15.974  67.963  1.00  0.00    -0.165 C  
BRANCH   4   5
HETATM    5  S   UNL     1      -9.303  16.820  66.534  1.00  0.00    -0.280 S  
HETATM    6  O   UNL     1     -10.640  17.249  66.872  1.00  0.00    -0.300 OA 
HETATM    7  O   UNL     1      -8.302  17.743  66.058  1.00  0.00    -0.493 OA 
BRANCH   5   8
HETATM    8  N   UNL     1      -9.514  15.629  65.337  1.00  0.00    -0.161 N  
HETATM    9  H   UNL     1      -8.853  15.442  64.583  1.00  0.00     0.000 HD 
BRANCH   8  10
HETATM   10  C   UNL     1     -10.846  14.870  65.549  1.00  0.00    -0.356 C  
HETATM   11  C   UNL     1     -11.821  15.241  64.431  1.00  0.00    -0.281 C  
HETATM   12  O   UNL     1     -12.744  14.534  64.055  1.00  0.00    -0.759 OA 
HETATM   13  O   UNL     1     -11.557  16.454  63.882  1.00  0.00    -1.100 OA 
BRANCH  10  14
HETATM   14  C   UNL     1     -11.521  15.090  66.915  1.00  0.00    -0.266 C  
BRANCH  14  15
HETATM   15  C   UNL     1     -11.514  13.879  67.813  1.00  0.00    -0.354 A  
HETATM   16  C   UNL     1     -11.537  12.617  67.209  1.00  0.00    -0.428 A  
HETATM   17  C   UNL     1     -11.775  11.479  67.975  1.00  0.00    -0.343 A  
HETATM   18  C   UNL     1     -12.009  11.582  69.348  1.00  0.00    -0.325 A  
HETATM   19  C   UNL     1     -11.573  13.957  69.212  1.00  0.00    -0.358 A  
HETATM   20  C   UNL     1     -11.841  12.816  69.974  1.00  0.00    -0.352 A  
BRANCH  18  21
HETATM   21  O   UNL     1     -12.429  10.550  70.148  1.00  0.00    -0.295 OA 
BRANCH  21  22
HETATM   22  C   UNL     1     -11.412  10.044  71.015  1.00  0.00    -0.383 C  
BRANCH  22  23
HETATM   23  C   UNL     1     -10.510   9.058  70.293  1.00  0.00    -0.248 C  
BRANCH  23  24
HETATM   24  C   UNL     1      -9.035   9.479  70.252  1.00  0.00    -0.288 C  
BRANCH  24  25
HETATM   25  C   UNL     1      -8.758  10.162  68.910  1.00  0.00    -0.149 C  
BRANCH  25  26
HETATM   26  C   UNL     1      -8.256   9.255  67.771  1.00  0.00    -0.115 C  
HETATM   27  C   UNL     1      -9.081   9.535  66.499  1.00  0.00    -0.185 C  
HETATM   28  C   UNL     1      -8.636  10.815  65.792  1.00  0.00    -0.183 C  
HETATM   29  N   UNL     1      -7.230  10.719  65.416  1.00  0.00    -0.351 NA 
HETATM   30  H   UNL     1      -6.941  11.508  64.837  1.00  0.00     0.000 HD 
HETATM   31  C   UNL     1      -6.378  10.575  66.595  1.00  0.00    -0.084 C  
HETATM   32  C   UNL     1      -6.756   9.362  67.448  1.00  0.00    -0.068 C  
ENDBRANCH  25  26
ENDBRANCH  24  25
ENDBRANCH  23  24
ENDBRANCH  22  23
ENDBRANCH  21  22
ENDBRANCH  18  21
ENDBRANCH  14  15
ENDBRANCH  10  14
ENDBRANCH   8  10
ENDBRANCH   5   8
ENDBRANCH   4   5
ENDBRANCH   3   4
ENDBRANCH   2   3
TORSDOF 13
ENDMDL
MODEL      109
REMARK 921   NORMALIZED FREE ENERGY PREDICTED BY IDOCK:   -4.49 KCAL/MOL
REMARK 922        TOTAL FREE ENERGY PREDICTED BY IDOCK:  -10.45 KCAL/MOL
REMARK 923 INTER-LIGAND FREE ENERGY PREDICTED BY IDOCK:   -9.46 KCAL/MOL
REMARK 924 INTRA-LIGAND FREE ENERGY PREDICTED BY IDOCK:   -0.99 KCAL/MOL
REMARK 927      BINDING AFFINITY PREDICTED BY RF-SCORE:    0.00 PKD
ROOT
HETATM    1  C   UNL     1      -8.746  10.837  64.905  1.00  0.00    -0.135 C  
HETATM    2  C   UNL     1     -10.205  10.391  64.972  1.00  0.00    -0.334 C  
ENDROOT
BRANCH   2   3
HETATM    3  C   UNL     1     -10.964  11.046  63.831  1.00  0.00    -0.103 C  
BRANCH   3   4
HETATM    4  C   UNL     1     -10.812  12.563  63.684  1.00  0.00    -0.441 C  
BRANCH   4   5
HETATM    5  S   UNL     1     -12.219  13.270  64.567  1.00  0.00    -0.394 S  
HETATM    6  O   UNL     1     -12.404  14.632  64.125  1.00  0.00    -0.654 OA 
HETATM    7  O   UNL     1     -13.281  12.295  64.503  1.00  0.00    -0.799 OA 
BRANCH   5   8
HETATM    8  N   UNL     1     -11.739  13.398  66.195  1.00  0.00    -0.351 N  
HETATM    9  H   UNL     1     -11.773  12.635  66.871  1.00  0.00     0.000 HD 
BRANCH   8  10
HETATM   10  C   UNL     1     -11.245  14.830  66.508  1.00  0.00    -0.342 C  
HETATM   11  C   UNL     1      -9.717  14.859  66.455  1.00  0.00    -0.285 C  
HETATM   12  O   UNL     1      -9.052  15.857  66.224  1.00  0.00    -0.285 OA 
HETATM   13  O   UNL     1      -9.158  13.645  66.691  1.00  0.00    -0.238 OA 
BRANCH  10  14
HETATM   14  C   UNL     1     -11.725  15.415  67.850  1.00  0.00    -0.198 C  
BRANCH  14  15
HETATM   15  C   UNL     1     -11.835  14.404  68.963  1.00  0.00    -0.358 A  
HETATM   16  C   UNL     1     -11.595  13.061  68.654  1.00  0.00    -0.354 A  
HETATM   17  C   UNL     1     -11.914  12.063  69.570  1.00  0.00    -0.346 A  
HETATM   18  C   UNL     1     -12.491  12.387  70.800  1.00  0.00    -0.267 A  
HETATM   19  C   UNL     1     -12.247  14.732  70.263  1.00  0.00    -0.394 A  
HETATM   20  C   UNL     1     -12.594  13.727  71.170  1.00  0.00    -0.452 A  
BRANCH  18  21
HETATM   21  O   UNL     1     -13.004  11.474  71.687  1.00  0.00    -0.437 OA 
BRANCH  21  22
HETATM   22  C   UNL     1     -13.140  10.159  71.143  1.00  0.00    -0.392 C  
BRANCH  22  23
HETATM   23  C   UNL     1     -12.156   9.193  71.781  1.00  0.00    -0.446 C  
BRANCH  23  24
HETATM   24  C   UNL     1     -11.506   8.220  70.787  1.00  0.00    -0.268 C  
BRANCH  24  25
HETATM   25  C   UNL     1     -10.230   8.863  70.236  1.00  0.00    -0.230 C  
BRANCH  25  26
HETATM   26  C   UNL     1     -10.217   9.174  68.728  1.00  0.00    -0.228 C  
HETATM   27  C   UNL     1      -8.887   9.863  68.364  1.00  0.00    -0.120 C  
HETATM   28  C   UNL     1      -7.731   8.869  68.258  1.00  0.00    -0.096 C  
HETATM   29  N   UNL     1      -8.022   7.867  67.239  1.00  0.00    -0.116 NA 
HETATM   30  H   UNL     1      -7.217   7.264  67.064  1.00  0.00     0.000 HD 
HETATM   31  C   UNL     1      -9.210   7.090  67.589  1.00  0.00    -0.120 C  
HETATM   32  C   UNL     1     -10.445   7.969  67.799  1.00  0.00    -0.280 C  
ENDBRANCH  25  26
ENDBRANCH  24  25
ENDBRANCH  23  24
ENDBRANCH  22  23
ENDBRANCH  21  22
ENDBRANCH  18  21
ENDBRANCH  14  15
ENDBRANCH  10  14
ENDBRANCH   8  10
ENDBRANCH   5   8
ENDBRANCH   4   5
ENDBRANCH   3   4
ENDBRANCH   2   3
TORSDOF 13
ENDMDL
MODEL      110
REMARK 921   NORMALIZED FREE ENERGY PREDICTED BY IDOCK:   -4.49 KCAL/MOL
REMARK 922        TOTAL FREE ENERGY PREDICTED BY IDOCK:  -10.45 KCAL/MOL
REMARK 923 INTER-LIGAND FREE ENERGY PREDICTED BY IDOCK:   -8.44 KCAL/MOL
REMARK 924 INTRA-LIGAND FREE ENERGY PREDICTED BY IDOCK:   -2.00 KCAL/MOL
REMARK 927      BINDING AFFINITY PREDICTED BY RF-SCORE:    0.00 PKD
ROOT
HETATM    1  C   UNL     1     -10.540   4.470  72.794  1.00  0.00    -0.263 C  
HETATM    2  C   UNL     1     -10.661   5.619  73.792  1.00  0.00    -0.277 C  
ENDROOT
BRANCH   2   3
HETATM    3  C   UNL     1      -9.371   6.421  73.766  1.00  0.00    -0.153 C  
BRANCH   3   4
HETATM    4  C   UNL     1      -8.401   6.127  72.618  1.00  0.00    -0.121 C  
BRANCH   4   5
HETATM    5  S   UNL     1      -7.908   7.745  71.987  1.00  0.00    -0.108 S  
HETATM    6  O   UNL     1      -8.664   8.761  72.683  1.00  0.00    -0.408 OA 
HETATM    7  O   UNL     1      -6.465   7.755  71.954  1.00  0.00    -0.042 OA 
BRANCH   5   8
HETATM    8  N   UNL     1      -8.458   7.814  70.379  1.00  0.00    -0.130 N  
HETATM    9  H   UNL     1      -8.179   8.523  69.700  1.00  0.00     0.000 HD 
BRANCH   8  10
HETATM   10  C   UNL     1      -9.440   6.654  70.087  1.00  0.00    -0.158 C  
HETATM   11  C   UNL     1      -8.853   5.761  68.993  1.00  0.00    -0.111 C  
HETATM   12  O   UNL     1      -9.132   4.581  68.840  1.00  0.00    -0.107 OA 
HETATM   13  O   UNL     1      -7.974   6.415  68.193  1.00  0.00    -0.106 OA 
BRANCH  10  14
HETATM   14  C   UNL     1     -10.866   7.081  69.693  1.00  0.00    -0.275 C  
BRANCH  14  15
HETATM   15  C   UNL     1     -11.389   8.273  70.454  1.00  0.00    -0.177 A  
HETATM   16  C   UNL     1     -12.112   8.034  71.629  1.00  0.00    -0.339 A  
HETATM   17  C   UNL     1     -12.819   9.067  72.237  1.00  0.00    -0.474 A  
HETATM   18  C   UNL     1     -12.831  10.346  71.678  1.00  0.00    -0.474 A  
HETATM   19  C   UNL     1     -11.262   9.593  69.999  1.00  0.00    -0.271 A  
HETATM   20  C   UNL     1     -11.997  10.622  70.595  1.00  0.00    -0.466 A  
BRANCH  18  21
HETATM   21  O   UNL     1     -13.638  11.375  72.097  1.00  0.00    -0.297 OA 
BRANCH  21  22
HETATM   22  C   UNL     1     -13.094  12.671  71.841  1.00  0.00    -0.366 C  
BRANCH  22  23
HETATM   23  C   UNL     1     -14.063  13.767  72.251  1.00  0.00    -0.627 C  
BRANCH  23  24
HETATM   24  C   UNL     1     -13.855  15.093  71.506  1.00  0.00    -0.597 C  
BRANCH  24  25
HETATM   25  C   UNL     1     -12.396  15.174  71.048  1.00  0.00    -0.408 C  
BRANCH  25  26
HETATM   26  C   UNL     1     -12.162  15.520  69.566  1.00  0.00    -0.264 C  
HETATM   27  C   UNL     1     -10.910  16.411  69.445  1.00  0.00    -0.327 C  
HETATM   28  C   UNL     1      -9.616  15.606  69.551  1.00  0.00    -0.279 C  
HETATM   29  N   UNL     1      -9.564  14.597  68.499  1.00  0.00    -0.216 NA 
HETATM   30  H   UNL     1      -8.658  14.127  68.473  1.00  0.00     0.000 HD 
HETATM   31  C   UNL     1     -10.663  13.642  68.632  1.00  0.00    -0.256 C  
HETATM   32  C   UNL     1     -12.035  14.319  68.614  1.00  0.00    -0.348 C  
ENDBRANCH  25  26
ENDBRANCH  24  25
ENDBRANCH  23  24
ENDBRANCH  22  23
ENDBRANCH  21  22
ENDBRANCH  18  21
ENDBRANCH  14  15
ENDBRANCH  10  14
ENDBRANCH   8  10
ENDBRANCH   5   8
ENDBRANCH   4   5
ENDBRANCH   3   4
ENDBRANCH   2   3
TORSDOF 13
ENDMDL
MODEL      111
REMARK 921   NORMALIZED FREE ENERGY PREDICTED BY IDOCK:   -4.46 KCAL/MOL
REMARK 922        TOTAL FREE ENERGY PREDICTED BY IDOCK:  -10.40 KCAL/MOL
REMARK 923 INTER-LIGAND FREE ENERGY PREDICTED BY IDOCK:   -9.05 KCAL/MOL
REMARK 924 INTRA-LIGAND FREE ENERGY PREDICTED BY IDOCK:   -1.35 KCAL/MOL
REMARK 927      BINDING AFFINITY PREDICTED BY RF-SCORE:    0.00 PKD
ROOT
HETATM    1  C   UNL     1      -7.329  12.659  68.028  1.00  0.00    -0.114 C  
HETATM    2  C   UNL     1      -8.734  12.085  67.865  1.00  0.00    -0.170 C  
ENDROOT
BRANCH   2   3
HETATM    3  C   UNL     1      -8.619  10.667  67.333  1.00  0.00    -0.122 C  
BRANCH   3   4
HETATM    4  C   UNL     1      -8.928   9.535  68.318  1.00  0.00    -0.124 C  
BRANCH   4   5
HETATM    5  S   UNL     1     -10.554   8.916  67.834  1.00  0.00    -0.133 S  
HETATM    6  O   UNL     1     -11.388  10.040  67.476  1.00  0.00    -0.212 OA 
HETATM    7  O   UNL     1     -10.326   7.815  66.929  1.00  0.00    -0.295 OA 
BRANCH   5   8
HETATM    8  N   UNL     1     -11.258   8.281  69.247  1.00  0.00    -0.409 N  
HETATM    9  H   UNL     1     -11.815   7.427  69.284  1.00  0.00     0.000 HD 
BRANCH   8  10
HETATM   10  C   UNL     1     -10.937   9.175  70.467  1.00  0.00    -0.258 C  
HETATM   11  C   UNL     1      -9.934   8.455  71.370  1.00  0.00    -0.213 C  
HETATM   12  O   UNL     1      -9.168   9.017  72.138  1.00  0.00    -0.365 OA 
HETATM   13  O   UNL     1      -9.975   7.106  71.232  1.00  0.00    -0.189 OA 
BRANCH  10  14
HETATM   14  C   UNL     1     -12.155   9.616  71.300  1.00  0.00    -0.457 C  
BRANCH  14  15
HETATM   15  C   UNL     1     -12.537  11.064  71.120  1.00  0.00    -0.522 A  
HETATM   16  C   UNL     1     -11.980  11.759  70.042  1.00  0.00    -0.421 A  
HETATM   17  C   UNL     1     -12.101  13.144  69.964  1.00  0.00    -0.375 A  
HETATM   18  C   UNL     1     -12.763  13.857  70.965  1.00  0.00    -0.357 A  
HETATM   19  C   UNL     1     -13.349  11.764  72.025  1.00  0.00    -0.417 A  
HETATM   20  C   UNL     1     -13.444  13.156  71.960  1.00  0.00    -0.598 A  
BRANCH  18  21
HETATM   21  O   UNL     1     -12.777  15.225  71.071  1.00  0.00    -0.356 OA 
BRANCH  21  22
HETATM   22  C   UNL     1     -11.477  15.818  71.021  1.00  0.00    -0.407 C  
BRANCH  22  23
HETATM   23  C   UNL     1     -11.272  16.589  69.728  1.00  0.00    -0.166 C  
BRANCH  23  24
HETATM   24  C   UNL     1      -9.846  16.496  69.167  1.00  0.00    -0.254 C  
BRANCH  24  25
HETATM   25  C   UNL     1      -9.816  15.412  68.085  1.00  0.00    -0.213 C  
BRANCH  25  26
HETATM   26  C   UNL     1      -9.034  15.748  66.802  1.00  0.00    -0.289 C  
HETATM   27  C   UNL     1      -9.993  16.382  65.776  1.00  0.00    -0.331 C  
HETATM   28  C   UNL     1     -10.285  17.850  66.086  1.00  0.00    -0.343 C  
HETATM   29  N   UNL     1      -9.044  18.618  66.091  1.00  0.00    -0.486 NA 
HETATM   30  H   UNL     1      -9.223  19.619  66.176  1.00  0.00     0.000 HD 
HETATM   31  C   UNL     1      -8.135  18.142  67.132  1.00  0.00    -0.221 C  
HETATM   32  C   UNL     1      -7.806  16.655  66.990  1.00  0.00    -0.233 C  
ENDBRANCH  25  26
ENDBRANCH  24  25
ENDBRANCH  23  24
ENDBRANCH  22  23
ENDBRANCH  21  22
ENDBRANCH  18  21
ENDBRANCH  14  15
ENDBRANCH  10  14
ENDBRANCH   8  10
ENDBRANCH   5   8
ENDBRANCH   4   5
ENDBRANCH   3   4
ENDBRANCH   2   3
TORSDOF 13
ENDMDL
MODEL      112
REMARK 921   NORMALIZED FREE ENERGY PREDICTED BY IDOCK:   -4.46 KCAL/MOL
REMARK 922        TOTAL FREE ENERGY PREDICTED BY IDOCK:  -10.39 KCAL/MOL
REMARK 923 INTER-LIGAND FREE ENERGY PREDICTED BY IDOCK:   -9.33 KCAL/MOL
REMARK 924 INTRA-LIGAND FREE ENERGY PREDICTED BY IDOCK:   -1.06 KCAL/MOL
REMARK 927      BINDING AFFINITY PREDICTED BY RF-SCORE:    0.00 PKD
ROOT
HETATM    1  C   UNL     1     -10.645   5.844  67.440  1.00  0.00    -0.356 C  
HETATM    2  C   UNL     1     -10.835   5.853  68.955  1.00  0.00    -0.373 C  
ENDROOT
BRANCH   2   3
HETATM    3  C   UNL     1     -10.735   7.286  69.446  1.00  0.00    -0.236 C  
BRANCH   3   4
HETATM    4  C   UNL     1      -9.413   8.013  69.184  1.00  0.00    -0.155 C  
BRANCH   4   5
HETATM    5  S   UNL     1      -9.398   9.402  70.339  1.00  0.00    -0.267 S  
HETATM    6  O   UNL     1      -8.784   8.969  71.572  1.00  0.00    -0.304 OA 
HETATM    7  O   UNL     1      -8.913  10.546  69.605  1.00  0.00    -0.103 OA 
BRANCH   5   8
HETATM    8  N   UNL     1     -11.024   9.701  70.739  1.00  0.00    -0.301 N  
HETATM    9  H   UNL     1     -11.626   9.049  71.243  1.00  0.00     0.000 HD 
BRANCH   8  10
HETATM   10  C   UNL     1     -11.465  11.095  70.234  1.00  0.00    -0.237 C  
HETATM   11  C   UNL     1     -12.540  11.652  71.169  1.00  0.00    -0.335 C  
HETATM   12  O   UNL     1     -12.775  12.842  71.319  1.00  0.00    -0.368 OA 
HETATM   13  O   UNL     1     -13.219  10.682  71.830  1.00  0.00    -0.438 OA 
BRANCH  10  14
HETATM   14  C   UNL     1     -11.972  11.140  68.781  1.00  0.00    -0.337 C  
BRANCH  14  15
HETATM   15  C   UNL     1     -11.583  12.387  68.027  1.00  0.00    -0.403 A  
HETATM   16  C   UNL     1     -10.542  12.292  67.098  1.00  0.00    -0.250 A  
HETATM   17  C   UNL     1      -9.981  13.445  66.554  1.00  0.00    -0.286 A  
HETATM   18  C   UNL     1     -10.438  14.707  66.941  1.00  0.00    -0.270 A  
HETATM   19  C   UNL     1     -12.152  13.645  68.275  1.00  0.00    -0.306 A  
HETATM   20  C   UNL     1     -11.568  14.801  67.750  1.00  0.00    -0.378 A  
BRANCH  18  21
HETATM   21  O   UNL     1      -9.834  15.892  66.604  1.00  0.00    -0.236 OA 
BRANCH  21  22
HETATM   22  C   UNL     1     -10.591  16.682  65.684  1.00  0.00    -0.270 C  
BRANCH  22  23
HETATM   23  C   UNL     1     -10.433  18.165  65.970  1.00  0.00    -0.346 C  
BRANCH  23  24
HETATM   24  C   UNL     1     -10.623  18.539  67.447  1.00  0.00    -0.463 C  
BRANCH  24  25
HETATM   25  C   UNL     1      -9.442  19.407  67.888  1.00  0.00    -0.407 C  
BRANCH  25  26
HETATM   26  C   UNL     1      -8.036  18.858  67.579  1.00  0.00    -0.280 C  
HETATM   27  C   UNL     1      -7.297  19.847  66.657  1.00  0.00    -0.273 C  
HETATM   28  C   UNL     1      -6.753  21.054  67.421  1.00  0.00    -0.383 C  
HETATM   29  N   UNL     1      -5.827  20.615  68.459  1.00  0.00    -0.305 NA 
HETATM   30  H   UNL     1      -5.358  21.406  68.903  1.00  0.00     0.000 HD 
HETATM   31  C   UNL     1      -6.501  19.767  69.442  1.00  0.00    -0.346 C  
HETATM   32  C   UNL     1      -7.162  18.543  68.805  1.00  0.00    -0.316 C  
ENDBRANCH  25  26
ENDBRANCH  24  25
ENDBRANCH  23  24
ENDBRANCH  22  23
ENDBRANCH  21  22
ENDBRANCH  18  21
ENDBRANCH  14  15
ENDBRANCH  10  14
ENDBRANCH   8  10
ENDBRANCH   5   8
ENDBRANCH   4   5
ENDBRANCH   3   4
ENDBRANCH   2   3
TORSDOF 13
ENDMDL
MODEL      113
REMARK 921   NORMALIZED FREE ENERGY PREDICTED BY IDOCK:   -4.45 KCAL/MOL
REMARK 922        TOTAL FREE ENERGY PREDICTED BY IDOCK:  -10.38 KCAL/MOL
REMARK 923 INTER-LIGAND FREE ENERGY PREDICTED BY IDOCK:   -8.76 KCAL/MOL
REMARK 924 INTRA-LIGAND FREE ENERGY PREDICTED BY IDOCK:   -1.63 KCAL/MOL
REMARK 927      BINDING AFFINITY PREDICTED BY RF-SCORE:    0.00 PKD
ROOT
HETATM    1  C   UNL     1     -10.670  12.001  63.748  1.00  0.00    -0.478 C  
HETATM    2  C   UNL     1     -10.473  13.190  64.686  1.00  0.00    -0.411 C  
ENDROOT
BRANCH   2   3
HETATM    3  C   UNL     1     -10.879  12.773  66.088  1.00  0.00    -0.303 C  
BRANCH   3   4
HETATM    4  C   UNL     1      -9.927  13.159  67.224  1.00  0.00    -0.230 C  
BRANCH   4   5
HETATM    5  S   UNL     1     -10.827  14.382  68.202  1.00  0.00    -0.250 S  
HETATM    6  O   UNL     1      -9.999  15.557  68.347  1.00  0.00    -0.209 OA 
HETATM    7  O   UNL     1     -12.161  14.451  67.655  1.00  0.00    -0.363 OA 
BRANCH   5   8
HETATM    8  N   UNL     1     -10.949  13.735  69.771  1.00  0.00    -0.458 N  
HETATM    9  H   UNL     1     -10.166  13.358  70.305  1.00  0.00     0.000 HD 
BRANCH   8  10
HETATM   10  C   UNL     1     -12.410  13.797  70.277  1.00  0.00    -0.337 C  
HETATM   11  C   UNL     1     -12.668  15.166  70.907  1.00  0.00    -0.401 C  
HETATM   12  O   UNL     1     -13.769  15.688  70.998  1.00  0.00    -0.582 OA 
HETATM   13  O   UNL     1     -11.536  15.759  71.362  1.00  0.00    -0.377 OA 
BRANCH  10  14
HETATM   14  C   UNL     1     -12.812  12.689  71.268  1.00  0.00    -0.344 C  
BRANCH  14  15
HETATM   15  C   UNL     1     -12.347  11.309  70.878  1.00  0.00    -0.490 A  
HETATM   16  C   UNL     1     -12.507  10.277  71.809  1.00  0.00    -0.431 A  
HETATM   17  C   UNL     1     -11.885   9.048  71.606  1.00  0.00    -0.431 A  
HETATM   18  C   UNL     1     -11.083   8.835  70.483  1.00  0.00    -0.246 A  
HETATM   19  C   UNL     1     -11.689  11.031  69.671  1.00  0.00    -0.401 A  
HETATM   20  C   UNL     1     -11.041   9.806  69.484  1.00  0.00    -0.226 A  
BRANCH  18  21
HETATM   21  O   UNL     1     -10.288   7.733  70.288  1.00  0.00    -0.207 OA 
BRANCH  21  22
HETATM   22  C   UNL     1     -10.397   7.171  68.979  1.00  0.00    -0.199 C  
BRANCH  22  23
HETATM   23  C   UNL     1      -9.067   6.610  68.506  1.00  0.00    -0.128 C  
BRANCH  23  24
HETATM   24  C   UNL     1      -7.900   7.602  68.613  1.00  0.00    -0.121 C  
BRANCH  24  25
HETATM   25  C   UNL     1      -7.555   8.104  67.208  1.00  0.00    -0.097 C  
BRANCH  25  26
HETATM   26  C   UNL     1      -8.283   9.377  66.738  1.00  0.00    -0.112 C  
HETATM   27  C   UNL     1      -7.320  10.576  66.836  1.00  0.00    -0.110 C  
HETATM   28  C   UNL     1      -6.324  10.614  65.678  1.00  0.00    -0.103 C  
HETATM   29  N   UNL     1      -7.034  10.699  64.407  1.00  0.00    -0.348 NA 
HETATM   30  H   UNL     1      -6.393  10.847  63.627  1.00  0.00     0.000 HD 
HETATM   31  C   UNL     1      -7.877   9.522  64.196  1.00  0.00    -0.126 C  
HETATM   32  C   UNL     1      -8.888   9.314  65.326  1.00  0.00    -0.237 C  
ENDBRANCH  25  26
ENDBRANCH  24  25
ENDBRANCH  23  24
ENDBRANCH  22  23
ENDBRANCH  21  22
ENDBRANCH  18  21
ENDBRANCH  14  15
ENDBRANCH  10  14
ENDBRANCH   8  10
ENDBRANCH   5   8
ENDBRANCH   4   5
ENDBRANCH   3   4
ENDBRANCH   2   3
TORSDOF 13
ENDMDL
MODEL      114
REMARK 921   NORMALIZED FREE ENERGY PREDICTED BY IDOCK:   -4.45 KCAL/MOL
REMARK 922        TOTAL FREE ENERGY PREDICTED BY IDOCK:  -10.37 KCAL/MOL
REMARK 923 INTER-LIGAND FREE ENERGY PREDICTED BY IDOCK:   -8.60 KCAL/MOL
REMARK 924 INTRA-LIGAND FREE ENERGY PREDICTED BY IDOCK:   -1.77 KCAL/MOL
REMARK 927      BINDING AFFINITY PREDICTED BY RF-SCORE:    0.00 PKD
ROOT
HETATM    1  C   UNL     1     -12.851  11.472  71.136  1.00  0.00    -0.414 C  
HETATM    2  C   UNL     1     -12.884  10.078  71.757  1.00  0.00    -0.546 C  
ENDROOT
BRANCH   2   3
HETATM    3  C   UNL     1     -11.794   9.236  71.116  1.00  0.00    -0.396 C  
BRANCH   3   4
HETATM    4  C   UNL     1     -11.375   7.967  71.864  1.00  0.00    -0.283 C  
BRANCH   4   5
HETATM    5  S   UNL     1      -9.573   7.925  71.752  1.00  0.00    -0.176 S  
HETATM    6  O   UNL     1      -9.025   8.732  72.817  1.00  0.00    -0.361 OA 
HETATM    7  O   UNL     1      -9.201   6.542  71.573  1.00  0.00    -0.145 OA 
BRANCH   5   8
HETATM    8  N   UNL     1      -9.169   8.753  70.322  1.00  0.00    -0.164 N  
HETATM    9  H   UNL     1      -9.116   9.769  70.235  1.00  0.00     0.000 HD 
BRANCH   8  10
HETATM   10  C   UNL     1      -8.893   7.757  69.171  1.00  0.00    -0.138 C  
HETATM   11  C   UNL     1      -7.551   8.098  68.520  1.00  0.00    -0.104 C  
HETATM   12  O   UNL     1      -6.854   7.298  67.914  1.00  0.00    -0.065 OA 
HETATM   13  O   UNL     1      -7.201   9.398  68.684  1.00  0.00    -0.073 OA 
BRANCH  10  14
HETATM   14  C   UNL     1      -9.986   7.679  68.089  1.00  0.00    -0.203 C  
BRANCH  14  15
HETATM   15  C   UNL     1      -9.939   8.798  67.079  1.00  0.00    -0.307 A  
HETATM   16  C   UNL     1     -10.669   9.959  67.354  1.00  0.00    -0.323 A  
HETATM   17  C   UNL     1     -10.860  10.918  66.362  1.00  0.00    -0.210 A  
HETATM   18  C   UNL     1     -10.341  10.726  65.080  1.00  0.00    -0.287 A  
HETATM   19  C   UNL     1      -9.274   8.696  65.848  1.00  0.00    -0.264 A  
HETATM   20  C   UNL     1      -9.492   9.645  64.845  1.00  0.00    -0.288 A  
BRANCH  18  21
HETATM   21  O   UNL     1     -10.627  11.517  63.995  1.00  0.00    -0.317 OA 
BRANCH  21  22
HETATM   22  C   UNL     1     -10.575  12.917  64.276  1.00  0.00    -0.408 C  
BRANCH  22  23
HETATM   23  C   UNL     1     -11.947  13.557  64.150  1.00  0.00    -0.498 C  
BRANCH  23  24
HETATM   24  C   UNL     1     -12.537  14.033  65.485  1.00  0.00    -0.543 C  
BRANCH  24  25
HETATM   25  C   UNL     1     -11.414  14.651  66.323  1.00  0.00    -0.351 C  
BRANCH  25  26
HETATM   26  C   UNL     1     -11.493  14.424  67.844  1.00  0.00    -0.346 C  
HETATM   27  C   UNL     1     -10.190  13.757  68.325  1.00  0.00    -0.245 C  
HETATM   28  C   UNL     1      -9.039  14.755  68.446  1.00  0.00    -0.188 C  
HETATM   29  N   UNL     1      -9.388  15.813  69.389  1.00  0.00    -0.268 NA 
HETATM   30  H   UNL     1      -8.594  16.424  69.579  1.00  0.00     0.000 HD 
HETATM   31  C   UNL     1     -10.552  16.568  68.925  1.00  0.00    -0.326 C  
HETATM   32  C   UNL     1     -11.774  15.677  68.690  1.00  0.00    -0.364 C  
ENDBRANCH  25  26
ENDBRANCH  24  25
ENDBRANCH  23  24
ENDBRANCH  22  23
ENDBRANCH  21  22
ENDBRANCH  18  21
ENDBRANCH  14  15
ENDBRANCH  10  14
ENDBRANCH   8  10
ENDBRANCH   5   8
ENDBRANCH   4   5
ENDBRANCH   3   4
ENDBRANCH   2   3
TORSDOF 13
ENDMDL
MODEL      115
REMARK 921   NORMALIZED FREE ENERGY PREDICTED BY IDOCK:   -4.45 KCAL/MOL
REMARK 922        TOTAL FREE ENERGY PREDICTED BY IDOCK:  -10.37 KCAL/MOL
REMARK 923 INTER-LIGAND FREE ENERGY PREDICTED BY IDOCK:   -8.29 KCAL/MOL
REMARK 924 INTRA-LIGAND FREE ENERGY PREDICTED BY IDOCK:   -2.08 KCAL/MOL
REMARK 927      BINDING AFFINITY PREDICTED BY RF-SCORE:    0.00 PKD
ROOT
HETATM    1  C   UNL     1     -10.601   3.538  73.263  1.00  0.00    -0.277 C  
HETATM    2  C   UNL     1     -11.009   4.968  73.607  1.00  0.00    -0.379 C  
ENDROOT
BRANCH   2   3
HETATM    3  C   UNL     1     -10.239   5.920  72.709  1.00  0.00    -0.208 C  
BRANCH   3   4
HETATM    4  C   UNL     1     -10.448   7.418  72.953  1.00  0.00    -0.295 C  
BRANCH   4   5
HETATM    5  S   UNL     1     -10.889   8.104  71.342  1.00  0.00    -0.243 S  
HETATM    6  O   UNL     1     -12.050   7.403  70.845  1.00  0.00    -0.307 OA 
HETATM    7  O   UNL     1     -10.867   9.540  71.482  1.00  0.00    -0.355 OA 
BRANCH   5   8
HETATM    8  N   UNL     1      -9.629   7.672  70.283  1.00  0.00    -0.172 N  
HETATM    9  H   UNL     1      -8.778   7.184  70.563  1.00  0.00     0.000 HD 
BRANCH   8  10
HETATM   10  C   UNL     1      -9.949   8.123  68.838  1.00  0.00    -0.192 C  
HETATM   11  C   UNL     1      -9.861   6.916  67.903  1.00  0.00    -0.135 C  
HETATM   12  O   UNL     1     -10.452   6.822  66.838  1.00  0.00    -0.251 OA 
HETATM   13  O   UNL     1      -9.049   5.939  68.379  1.00  0.00    -0.116 OA 
BRANCH  10  14
HETATM   14  C   UNL     1      -9.070   9.263  68.292  1.00  0.00    -0.128 C  
BRANCH  14  15
HETATM   15  C   UNL     1      -9.833  10.338  67.559  1.00  0.00    -0.204 A  
HETATM   16  C   UNL     1     -10.806  11.050  68.269  1.00  0.00    -0.261 A  
HETATM   17  C   UNL     1     -11.701  11.876  67.595  1.00  0.00    -0.346 A  
HETATM   18  C   UNL     1     -11.650  11.991  66.204  1.00  0.00    -0.304 A  
HETATM   19  C   UNL     1      -9.676  10.595  66.189  1.00  0.00    -0.253 A  
HETATM   20  C   UNL     1     -10.594  11.401  65.511  1.00  0.00    -0.328 A  
BRANCH  18  21
HETATM   21  O   UNL     1     -12.594  12.630  65.438  1.00  0.00    -0.641 OA 
BRANCH  21  22
HETATM   22  C   UNL     1     -12.052  13.294  64.295  1.00  0.00    -0.416 C  
BRANCH  22  23
HETATM   23  C   UNL     1     -12.102  14.804  64.459  1.00  0.00    -0.460 C  
BRANCH  23  24
HETATM   24  C   UNL     1     -10.722  15.461  64.590  1.00  0.00    -0.214 C  
BRANCH  24  25
HETATM   25  C   UNL     1     -10.358  15.544  66.075  1.00  0.00    -0.342 C  
BRANCH  25  26
HETATM   26  C   UNL     1      -8.934  15.099  66.456  1.00  0.00    -0.326 C  
HETATM   27  C   UNL     1      -8.037  16.344  66.603  1.00  0.00    -0.321 C  
HETATM   28  C   UNL     1      -8.261  17.065  67.932  1.00  0.00    -0.200 C  
HETATM   29  N   UNL     1      -7.981  16.164  69.045  1.00  0.00    -0.227 NA 
HETATM   30  H   UNL     1      -8.006  16.654  69.940  1.00  0.00     0.000 HD 
HETATM   31  C   UNL     1      -8.888  15.016  69.033  1.00  0.00    -0.205 C  
HETATM   32  C   UNL     1      -8.824  14.232  67.721  1.00  0.00    -0.185 C  
ENDBRANCH  25  26
ENDBRANCH  24  25
ENDBRANCH  23  24
ENDBRANCH  22  23
ENDBRANCH  21  22
ENDBRANCH  18  21
ENDBRANCH  14  15
ENDBRANCH  10  14
ENDBRANCH   8  10
ENDBRANCH   5   8
ENDBRANCH   4   5
ENDBRANCH   3   4
ENDBRANCH   2   3
TORSDOF 13
ENDMDL
MODEL      116
REMARK 921   NORMALIZED FREE ENERGY PREDICTED BY IDOCK:   -4.44 KCAL/MOL
REMARK 922        TOTAL FREE ENERGY PREDICTED BY IDOCK:  -10.36 KCAL/MOL
REMARK 923 INTER-LIGAND FREE ENERGY PREDICTED BY IDOCK:   -8.97 KCAL/MOL
REMARK 924 INTRA-LIGAND FREE ENERGY PREDICTED BY IDOCK:   -1.40 KCAL/MOL
REMARK 927      BINDING AFFINITY PREDICTED BY RF-SCORE:    0.00 PKD
ROOT
HETATM    1  C   UNL     1     -10.731   5.946  68.341  1.00  0.00    -0.323 C  
HETATM    2  C   UNL     1     -10.012   5.144  69.423  1.00  0.00    -0.292 C  
ENDROOT
BRANCH   2   3
HETATM    3  C   UNL     1     -10.406   5.700  70.780  1.00  0.00    -0.310 C  
BRANCH   3   4
HETATM    4  C   UNL     1      -9.313   6.427  71.570  1.00  0.00    -0.148 C  
BRANCH   4   5
HETATM    5  S   UNL     1     -10.187   7.639  72.584  1.00  0.00    -0.293 S  
HETATM    6  O   UNL     1     -10.603   6.999  73.811  1.00  0.00    -0.375 OA 
HETATM    7  O   UNL     1      -9.385   8.838  72.582  1.00  0.00    -0.300 OA 
BRANCH   5   8
HETATM    8  N   UNL     1     -11.635   7.989  71.760  1.00  0.00    -0.271 N  
HETATM    9  H   UNL     1     -12.477   7.414  71.799  1.00  0.00     0.000 HD 
BRANCH   8  10
HETATM   10  C   UNL     1     -11.498   9.297  70.946  1.00  0.00    -0.303 C  
HETATM   11  C   UNL     1     -12.609  10.264  71.357  1.00  0.00    -0.434 C  
HETATM   12  O   UNL     1     -12.542  11.479  71.249  1.00  0.00    -0.383 OA 
HETATM   13  O   UNL     1     -13.698   9.632  71.864  1.00  0.00    -0.358 OA 
BRANCH  10  14
HETATM   14  C   UNL     1     -11.505   9.124  69.415  1.00  0.00     0.304 C  
BRANCH  14  15
HETATM   15  C   UNL     1     -10.684  10.148  68.673  1.00  0.00    -0.253 A  
HETATM   16  C   UNL     1      -9.396  10.422  69.145  1.00  0.00    -0.211 A  
HETATM   17  C   UNL     1      -8.689  11.517  68.656  1.00  0.00    -0.103 A  
HETATM   18  C   UNL     1      -9.260  12.364  67.704  1.00  0.00    -0.185 A  
HETATM   19  C   UNL     1     -11.179  10.896  67.594  1.00  0.00    -0.379 A  
HETATM   20  C   UNL     1     -10.479  12.012  67.126  1.00  0.00    -0.244 A  
BRANCH  18  21
HETATM   21  O   UNL     1      -8.723  13.560  67.300  1.00  0.00    -0.205 OA 
BRANCH  21  22
HETATM   22  C   UNL     1      -9.552  14.284  66.389  1.00  0.00    -0.298 C  
BRANCH  22  23
HETATM   23  C   UNL     1      -9.237  15.770  66.415  1.00  0.00    -0.347 C  
BRANCH  23  24
HETATM   24  C   UNL     1     -10.478  16.671  66.353  1.00  0.00    -0.266 C  
BRANCH  24  25
HETATM   25  C   UNL     1     -10.645  17.368  67.707  1.00  0.00    -0.371 C  
BRANCH  25  26
HETATM   26  C   UNL     1     -10.637  18.908  67.689  1.00  0.00    -0.501 C  
HETATM   27  C   UNL     1      -9.797  19.424  68.874  1.00  0.00    -0.523 C  
HETATM   28  C   UNL     1      -8.296  19.326  68.604  1.00  0.00    -0.372 C  
HETATM   29  N   UNL     1      -7.947  20.105  67.421  1.00  0.00    -0.311 NA 
HETATM   30  H   UNL     1      -6.936  20.155  67.289  1.00  0.00     0.000 HD 
HETATM   31  C   UNL     1      -8.620  19.585  66.231  1.00  0.00    -0.361 C  
HETATM   32  C   UNL     1     -10.142  19.555  66.385  1.00  0.00    -0.551 C  
ENDBRANCH  25  26
ENDBRANCH  24  25
ENDBRANCH  23  24
ENDBRANCH  22  23
ENDBRANCH  21  22
ENDBRANCH  18  21
ENDBRANCH  14  15
ENDBRANCH  10  14
ENDBRANCH   8  10
ENDBRANCH   5   8
ENDBRANCH   4   5
ENDBRANCH   3   4
ENDBRANCH   2   3
TORSDOF 13
ENDMDL
MODEL      117
REMARK 921   NORMALIZED FREE ENERGY PREDICTED BY IDOCK:   -4.43 KCAL/MOL
REMARK 922        TOTAL FREE ENERGY PREDICTED BY IDOCK:  -10.34 KCAL/MOL
REMARK 923 INTER-LIGAND FREE ENERGY PREDICTED BY IDOCK:   -9.28 KCAL/MOL
REMARK 924 INTRA-LIGAND FREE ENERGY PREDICTED BY IDOCK:   -1.06 KCAL/MOL
REMARK 927      BINDING AFFINITY PREDICTED BY RF-SCORE:    0.00 PKD
ROOT
HETATM    1  C   UNL     1      -7.567  17.743  68.556  1.00  0.00    -0.276 C  
HETATM    2  C   UNL     1      -6.868  17.736  67.198  1.00  0.00    -0.196 C  
ENDROOT
BRANCH   2   3
HETATM    3  C   UNL     1      -7.879  17.342  66.135  1.00  0.00    -0.293 C  
BRANCH   3   4
HETATM    4  C   UNL     1      -8.574  15.989  66.315  1.00  0.00    -0.328 C  
BRANCH   4   5
HETATM    5  S   UNL     1     -10.342  16.347  66.215  1.00  0.00    -0.319 S  
HETATM    6  O   UNL     1     -10.718  17.134  67.367  1.00  0.00    -0.323 OA 
HETATM    7  O   UNL     1     -10.599  16.794  64.868  1.00  0.00    -0.702 OA 
BRANCH   5   8
HETATM    8  N   UNL     1     -11.138  14.858  66.422  1.00  0.00    -0.341 N  
HETATM    9  H   UNL     1     -11.644  14.583  67.264  1.00  0.00     0.000 HD 
BRANCH   8  10
HETATM   10  C   UNL     1     -10.988  13.977  65.159  1.00  0.00    -0.353 C  
HETATM   11  C   UNL     1     -12.337  13.891  64.443  1.00  0.00    -0.361 C  
HETATM   12  O   UNL     1     -12.473  13.664  63.250  1.00  0.00    -0.801 OA 
HETATM   13  O   UNL     1     -13.390  14.096  65.274  1.00  0.00    -0.715 OA 
BRANCH  10  14
HETATM   14  C   UNL     1     -10.444  12.558  65.405  1.00  0.00    -0.308 C  
BRANCH  14  15
HETATM   15  C   UNL     1     -10.472  12.124  66.849  1.00  0.00    -0.250 A  
HETATM   16  C   UNL     1      -9.250  11.872  67.481  1.00  0.00    -0.177 A  
HETATM   17  C   UNL     1      -9.220  11.243  68.722  1.00  0.00    -0.133 A  
HETATM   18  C   UNL     1     -10.404  10.842  69.344  1.00  0.00    -0.179 A  
HETATM   19  C   UNL     1     -11.659  11.880  67.556  1.00  0.00    -0.374 A  
HETATM   20  C   UNL     1     -11.625  11.222  68.789  1.00  0.00    -0.383 A  
BRANCH  18  21
HETATM   21  O   UNL     1     -10.469  10.059  70.470  1.00  0.00    -0.286 OA 
BRANCH  21  22
HETATM   22  C   UNL     1     -11.325   8.923  70.331  1.00  0.00    -0.202 C  
BRANCH  22  23
HETATM   23  C   UNL     1     -11.212   7.997  71.530  1.00  0.00    -0.296 C  
BRANCH  23  24
HETATM   24  C   UNL     1      -9.819   7.982  72.175  1.00  0.00    -0.286 C  
BRANCH  24  25
HETATM   25  C   UNL     1      -9.391   6.527  72.383  1.00  0.00    -0.137 C  
BRANCH  25  26
HETATM   26  C   UNL     1     -10.487   5.460  72.208  1.00  0.00    -0.272 C  
HETATM   27  C   UNL     1      -9.957   4.333  71.299  1.00  0.00    -0.230 C  
HETATM   28  C   UNL     1      -9.026   3.379  72.044  1.00  0.00    -0.100 C  
HETATM   29  N   UNL     1      -9.727   2.769  73.169  1.00  0.00    -0.098 NA 
HETATM   30  H   UNL     1      -9.166   2.039  73.610  1.00  0.00     0.000 HD 
HETATM   31  C   UNL     1     -10.150   3.781  74.136  1.00  0.00    -0.153 C  
HETATM   32  C   UNL     1     -11.041   4.855  73.509  1.00  0.00    -0.405 C  
ENDBRANCH  25  26
ENDBRANCH  24  25
ENDBRANCH  23  24
ENDBRANCH  22  23
ENDBRANCH  21  22
ENDBRANCH  18  21
ENDBRANCH  14  15
ENDBRANCH  10  14
ENDBRANCH   8  10
ENDBRANCH   5   8
ENDBRANCH   4   5
ENDBRANCH   3   4
ENDBRANCH   2   3
TORSDOF 13
ENDMDL
MODEL      118
REMARK 921   NORMALIZED FREE ENERGY PREDICTED BY IDOCK:   -4.42 KCAL/MOL
REMARK 922        TOTAL FREE ENERGY PREDICTED BY IDOCK:  -10.32 KCAL/MOL
REMARK 923 INTER-LIGAND FREE ENERGY PREDICTED BY IDOCK:   -9.13 KCAL/MOL
REMARK 924 INTRA-LIGAND FREE ENERGY PREDICTED BY IDOCK:   -1.18 KCAL/MOL
REMARK 927      BINDING AFFINITY PREDICTED BY RF-SCORE:    0.00 PKD
ROOT
HETATM    1  C   UNL     1      -9.416   2.849  69.544  1.00  0.00    -0.161 C  
HETATM    2  C   UNL     1      -9.127   1.747  70.561  1.00  0.00    -0.149 C  
ENDROOT
BRANCH   2   3
HETATM    3  C   UNL     1      -8.449   2.369  71.770  1.00  0.00    -0.080 C  
BRANCH   3   4
HETATM    4  C   UNL     1      -7.867   3.774  71.586  1.00  0.00    -0.062 C  
BRANCH   4   5
HETATM    5  S   UNL     1      -8.894   4.851  72.609  1.00  0.00    -0.121 S  
HETATM    6  O   UNL     1      -9.935   4.054  73.216  1.00  0.00    -0.128 OA 
HETATM    7  O   UNL     1      -7.994   5.658  73.395  1.00  0.00    -0.109 OA 
BRANCH   5   8
HETATM    8  N   UNL     1      -9.708   5.888  71.534  1.00  0.00    -0.160 N  
HETATM    9  H   UNL     1      -9.436   6.046  70.563  1.00  0.00     0.000 HD 
BRANCH   8  10
HETATM   10  C   UNL     1     -10.916   6.560  72.229  1.00  0.00    -0.249 C  
HETATM   11  C   UNL     1     -12.098   6.598  71.260  1.00  0.00    -0.341 C  
HETATM   12  O   UNL     1     -13.270   6.648  71.601  1.00  0.00    -0.245 OA 
HETATM   13  O   UNL     1     -11.714   6.570  69.959  1.00  0.00    -0.416 OA 
BRANCH  10  14
HETATM   14  C   UNL     1     -10.657   7.973  72.782  1.00  0.00    -0.420 C  
BRANCH  14  15
HETATM   15  C   UNL     1     -10.720   9.066  71.745  1.00  0.00    -0.437 A  
HETATM   16  C   UNL     1     -11.914   9.785  71.623  1.00  0.00    -0.454 A  
HETATM   17  C   UNL     1     -12.114  10.630  70.535  1.00  0.00    -0.448 A  
HETATM   18  C   UNL     1     -11.136  10.759  69.547  1.00  0.00    -0.278 A  
HETATM   19  C   UNL     1      -9.677   9.335  70.847  1.00  0.00    -0.346 A  
HETATM   20  C   UNL     1      -9.891  10.162  69.740  1.00  0.00    -0.245 A  
BRANCH  18  21
HETATM   21  O   UNL     1     -11.312  11.419  68.356  1.00  0.00    -0.231 OA 
BRANCH  21  22
HETATM   22  C   UNL     1     -12.003  12.663  68.485  1.00  0.00    -0.214 C  
BRANCH  22  23
HETATM   23  C   UNL     1     -11.239  13.791  67.813  1.00  0.00    -0.312 C  
BRANCH  23  24
HETATM   24  C   UNL     1     -11.050  15.030  68.700  1.00  0.00    -0.272 C  
BRANCH  24  25
HETATM   25  C   UNL     1     -11.408  14.658  70.142  1.00  0.00    -0.273 C  
BRANCH  25  26
HETATM   26  C   UNL     1     -12.445  15.555  70.842  1.00  0.00    -0.494 C  
HETATM   27  C   UNL     1     -13.717  14.732  71.125  1.00  0.00    -0.413 C  
HETATM   28  C   UNL     1     -13.557  13.819  72.340  1.00  0.00    -0.588 C  
HETATM   29  N   UNL     1     -13.251  14.612  73.526  1.00  0.00    -0.485 NA 
HETATM   30  H   UNL     1     -13.258  14.040  74.372  1.00  0.00     0.000 HD 
HETATM   31  C   UNL     1     -11.984  15.325  73.369  1.00  0.00    -0.427 C  
HETATM   32  C   UNL     1     -11.971  16.234  72.138  1.00  0.00    -0.575 C  
ENDBRANCH  25  26
ENDBRANCH  24  25
ENDBRANCH  23  24
ENDBRANCH  22  23
ENDBRANCH  21  22
ENDBRANCH  18  21
ENDBRANCH  14  15
ENDBRANCH  10  14
ENDBRANCH   8  10
ENDBRANCH   5   8
ENDBRANCH   4   5
ENDBRANCH   3   4
ENDBRANCH   2   3
TORSDOF 13
ENDMDL
MODEL      119
REMARK 921   NORMALIZED FREE ENERGY PREDICTED BY IDOCK:   -4.37 KCAL/MOL
REMARK 922        TOTAL FREE ENERGY PREDICTED BY IDOCK:  -10.24 KCAL/MOL
REMARK 923 INTER-LIGAND FREE ENERGY PREDICTED BY IDOCK:   -8.16 KCAL/MOL
REMARK 924 INTRA-LIGAND FREE ENERGY PREDICTED BY IDOCK:   -2.08 KCAL/MOL
REMARK 927      BINDING AFFINITY PREDICTED BY RF-SCORE:    0.00 PKD
ROOT
HETATM    1  C   UNL     1     -10.831   9.150  71.209  1.00  0.00    -0.402 C  
HETATM    2  C   UNL     1     -10.387  10.166  70.159  1.00  0.00    -0.280 C  
ENDROOT
BRANCH   2   3
HETATM    3  C   UNL     1      -8.925   9.916  69.832  1.00  0.00    -0.231 C  
BRANCH   3   4
HETATM    4  C   UNL     1      -8.570   9.749  68.351  1.00  0.00    -0.119 C  
BRANCH   4   5
HETATM    5  S   UNL     1      -7.579  11.201  67.935  1.00  0.00    -0.103 S  
HETATM    6  O   UNL     1      -8.202  12.366  68.519  1.00  0.00    -0.150 OA 
HETATM    7  O   UNL     1      -6.204  10.855  68.201  1.00  0.00    -0.050 OA 
BRANCH   5   8
HETATM    8  N   UNL     1      -7.739  11.415  66.254  1.00  0.00    -0.356 N  
HETATM    9  H   UNL     1      -7.387  12.221  65.737  1.00  0.00     0.000 HD 
BRANCH   8  10
HETATM   10  C   UNL     1      -8.490  10.221  65.619  1.00  0.00    -0.160 C  
HETATM   11  C   UNL     1      -7.563   9.509  64.633  1.00  0.00    -0.113 C  
HETATM   12  O   UNL     1      -7.668   8.336  64.308  1.00  0.00    -0.117 OA 
HETATM   13  O   UNL     1      -6.591  10.320  64.144  1.00  0.00    -0.129 OA 
BRANCH  10  14
HETATM   14  C   UNL     1      -9.815  10.572  64.919  1.00  0.00    -0.379 C  
BRANCH  14  15
HETATM   15  C   UNL     1     -10.622  11.639  65.616  1.00  0.00    -0.324 A  
HETATM   16  C   UNL     1     -10.607  12.929  65.076  1.00  0.00    -0.333 A  
HETATM   17  C   UNL     1     -11.127  13.998  65.800  1.00  0.00    -0.305 A  
HETATM   18  C   UNL     1     -11.654  13.800  67.079  1.00  0.00    -0.365 A  
HETATM   19  C   UNL     1     -11.309  11.420  66.819  1.00  0.00    -0.252 A  
HETATM   20  C   UNL     1     -11.804  12.499  67.557  1.00  0.00    -0.389 A  
BRANCH  18  21
HETATM   21  O   UNL     1     -12.019  14.806  67.937  1.00  0.00    -0.330 OA 
BRANCH  21  22
HETATM   22  C   UNL     1     -11.638  14.570  69.294  1.00  0.00    -0.302 C  
BRANCH  22  23
HETATM   23  C   UNL     1     -10.340  15.283  69.636  1.00  0.00    -0.271 C  
BRANCH  23  24
HETATM   24  C   UNL     1     -10.199  16.664  68.983  1.00  0.00    -0.301 C  
BRANCH  24  25
HETATM   25  C   UNL     1      -8.869  16.714  68.225  1.00  0.00    -0.214 C  
BRANCH  25  26
HETATM   26  C   UNL     1      -8.934  17.175  66.757  1.00  0.00    -0.263 C  
HETATM   27  C   UNL     1     -10.280  17.884  66.508  1.00  0.00    -0.379 C  
HETATM   28  C   UNL     1     -10.288  19.314  67.048  1.00  0.00    -0.426 C  
HETATM   29  N   UNL     1      -9.232  20.096  66.414  1.00  0.00    -0.542 NA 
HETATM   30  H   UNL     1      -9.292  21.083  66.666  1.00  0.00     0.000 HD 
HETATM   31  C   UNL     1      -7.913  19.542  66.716  1.00  0.00    -0.287 C  
HETATM   32  C   UNL     1      -7.780  18.078  66.291  1.00  0.00    -0.293 C  
ENDBRANCH  25  26
ENDBRANCH  24  25
ENDBRANCH  23  24
ENDBRANCH  22  23
ENDBRANCH  21  22
ENDBRANCH  18  21
ENDBRANCH  14  15
ENDBRANCH  10  14
ENDBRANCH   8  10
ENDBRANCH   5   8
ENDBRANCH   4   5
ENDBRANCH   3   4
ENDBRANCH   2   3
TORSDOF 13
ENDMDL
MODEL      120
REMARK 921   NORMALIZED FREE ENERGY PREDICTED BY IDOCK:   -4.37 KCAL/MOL
REMARK 922        TOTAL FREE ENERGY PREDICTED BY IDOCK:  -10.24 KCAL/MOL
REMARK 923 INTER-LIGAND FREE ENERGY PREDICTED BY IDOCK:   -9.09 KCAL/MOL
REMARK 924 INTRA-LIGAND FREE ENERGY PREDICTED BY IDOCK:   -1.15 KCAL/MOL
REMARK 927      BINDING AFFINITY PREDICTED BY RF-SCORE:    0.00 PKD
ROOT
HETATM    1  C   UNL     1     -10.582  13.730  64.954  1.00  0.00    -0.427 C  
HETATM    2  C   UNL     1     -11.317  14.718  65.856  1.00  0.00    -0.331 C  
ENDROOT
BRANCH   2   3
HETATM    3  C   UNL     1     -11.522  14.073  67.215  1.00  0.00    -0.372 C  
BRANCH   3   4
HETATM    4  C   UNL     1     -10.466  14.370  68.285  1.00  0.00    -0.245 C  
BRANCH   4   5
HETATM    5  S   UNL     1     -11.301  15.413  69.499  1.00  0.00    -0.329 S  
HETATM    6  O   UNL     1     -10.432  16.517  69.833  1.00  0.00    -0.265 OA 
HETATM    7  O   UNL     1     -12.646  15.618  69.016  1.00  0.00     0.050 OA 
BRANCH   5   8
HETATM    8  N   UNL     1     -11.404  14.489  70.925  1.00  0.00    -0.516 N  
HETATM    9  H   UNL     1     -10.605  14.078  71.408  1.00  0.00     0.000 HD 
BRANCH   8  10
HETATM   10  C   UNL     1     -12.874  14.357  71.387  1.00  0.00    -0.339 C  
HETATM   11  C   UNL     1     -13.204  15.499  72.350  1.00  0.00    -0.455 C  
HETATM   12  O   UNL     1     -14.328  15.935  72.546  1.00  0.00    -0.468 OA 
HETATM   13  O   UNL     1     -12.107  15.992  72.978  1.00  0.00    -0.453 OA 
BRANCH  10  14
HETATM   14  C   UNL     1     -13.243  13.011  72.038  1.00  0.00    -0.543 C  
BRANCH  14  15
HETATM   15  C   UNL     1     -12.728  11.803  71.298  1.00  0.00    -0.420 A  
HETATM   16  C   UNL     1     -12.850  10.554  71.918  1.00  0.00    -0.509 A  
HETATM   17  C   UNL     1     -12.182   9.448  71.400  1.00  0.00    -0.438 A  
HETATM   18  C   UNL     1     -11.373   9.571  70.269  1.00  0.00    -0.236 A  
HETATM   19  C   UNL     1     -12.059  11.881  70.067  1.00  0.00    -0.366 A  
HETATM   20  C   UNL     1     -11.367  10.775  69.566  1.00  0.00    -0.355 A  
BRANCH  18  21
HETATM   21  O   UNL     1     -10.538   8.590  69.795  1.00  0.00    -0.222 OA 
BRANCH  21  22
HETATM   22  C   UNL     1      -9.160   8.970  69.772  1.00  0.00    -0.159 C  
BRANCH  22  23
HETATM   23  C   UNL     1      -8.322   8.063  70.657  1.00  0.00    -0.123 C  
BRANCH  23  24
HETATM   24  C   UNL     1      -8.373   8.429  72.147  1.00  0.00    -0.225 C  
BRANCH  24  25
HETATM   25  C   UNL     1      -9.228   7.389  72.877  1.00  0.00    -0.198 C  
BRANCH  25  26
HETATM   26  C   UNL     1      -9.427   6.041  72.160  1.00  0.00    -0.158 C  
HETATM   27  C   UNL     1      -8.624   4.951  72.896  1.00  0.00    -0.118 C  
HETATM   28  C   UNL     1      -9.324   4.476  74.168  1.00  0.00    -0.113 C  
HETATM   29  N   UNL     1     -10.640   3.936  73.844  1.00  0.00    -0.195 NA 
HETATM   30  H   UNL     1     -11.079   3.502  74.658  1.00  0.00     0.000 HD 
HETATM   31  C   UNL     1     -11.499   4.961  73.252  1.00  0.00    -0.274 C  
HETATM   32  C   UNL     1     -10.886   5.584  71.995  1.00  0.00    -0.287 C  
ENDBRANCH  25  26
ENDBRANCH  24  25
ENDBRANCH  23  24
ENDBRANCH  22  23
ENDBRANCH  21  22
ENDBRANCH  18  21
ENDBRANCH  14  15
ENDBRANCH  10  14
ENDBRANCH   8  10
ENDBRANCH   5   8
ENDBRANCH   4   5
ENDBRANCH   3   4
ENDBRANCH   2   3
TORSDOF 13
ENDMDL
MODEL      121
REMARK 921   NORMALIZED FREE ENERGY PREDICTED BY IDOCK:   -4.36 KCAL/MOL
REMARK 922        TOTAL FREE ENERGY PREDICTED BY IDOCK:  -10.22 KCAL/MOL
REMARK 923 INTER-LIGAND FREE ENERGY PREDICTED BY IDOCK:   -8.99 KCAL/MOL
REMARK 924 INTRA-LIGAND FREE ENERGY PREDICTED BY IDOCK:   -1.23 KCAL/MOL
REMARK 927      BINDING AFFINITY PREDICTED BY RF-SCORE:    0.00 PKD
ROOT
HETATM    1  C   UNL     1     -11.314   6.360  70.894  1.00  0.00    -0.398 C  
HETATM    2  C   UNL     1     -11.054   5.879  69.469  1.00  0.00    -0.403 C  
ENDROOT
BRANCH   2   3
HETATM    3  C   UNL     1     -10.767   7.088  68.595  1.00  0.00    -0.225 C  
BRANCH   3   4
HETATM    4  C   UNL     1     -10.904   6.891  67.082  1.00  0.00    -0.377 C  
BRANCH   4   5
HETATM    5  S   UNL     1      -9.247   6.461  66.507  1.00  0.00    -0.153 S  
HETATM    6  O   UNL     1      -8.319   6.645  67.598  1.00  0.00    -0.121 OA 
HETATM    7  O   UNL     1      -9.364   5.205  65.806  1.00  0.00    -0.158 OA 
BRANCH   5   8
HETATM    8  N   UNL     1      -8.821   7.648  65.364  1.00  0.00    -0.370 N  
HETATM    9  H   UNL     1      -8.229   7.483  64.550  1.00  0.00     0.000 HD 
BRANCH   8  10
HETATM   10  C   UNL     1      -9.454   9.012  65.729  1.00  0.00    -0.236 C  
HETATM   11  C   UNL     1      -9.610   9.851  64.460  1.00  0.00    -0.222 C  
HETATM   12  O   UNL     1     -10.432  10.744  64.318  1.00  0.00    -0.367 OA 
HETATM   13  O   UNL     1      -8.732   9.502  63.486  1.00  0.00    -0.205 OA 
BRANCH  10  14
HETATM   14  C   UNL     1      -8.699   9.826  66.796  1.00  0.00    -0.140 C  
BRANCH  14  15
HETATM   15  C   UNL     1      -9.538  10.871  67.487  1.00  0.00    -0.171 A  
HETATM   16  C   UNL     1     -10.873  10.561  67.765  1.00  0.00    -0.347 A  
HETATM   17  C   UNL     1     -11.753  11.558  68.176  1.00  0.00    -0.357 A  
HETATM   18  C   UNL     1     -11.321  12.880  68.299  1.00  0.00    -0.291 A  
HETATM   19  C   UNL     1      -9.071  12.161  67.782  1.00  0.00    -0.189 A  
HETATM   20  C   UNL     1      -9.963  13.166  68.166  1.00  0.00    -0.234 A  
BRANCH  18  21
HETATM   21  O   UNL     1     -12.146  13.955  68.517  1.00  0.00    -0.362 OA 
BRANCH  21  22
HETATM   22  C   UNL     1     -12.090  14.460  69.853  1.00  0.00    -0.344 C  
BRANCH  22  23
HETATM   23  C   UNL     1     -11.701  15.928  69.873  1.00  0.00    -0.327 C  
BRANCH  23  24
HETATM   24  C   UNL     1     -11.232  16.466  68.514  1.00  0.00    -0.334 C  
BRANCH  24  25
HETATM   25  C   UNL     1     -10.396  17.727  68.749  1.00  0.00    -0.332 C  
BRANCH  25  26
HETATM   26  C   UNL     1      -9.265  17.996  67.739  1.00  0.00    -0.262 C  
HETATM   27  C   UNL     1      -9.831  17.906  66.308  1.00  0.00    -0.307 C  
HETATM   28  C   UNL     1     -10.603  19.163  65.911  1.00  0.00    -0.415 C  
HETATM   29  N   UNL     1      -9.732  20.332  65.987  1.00  0.00    -0.650 NA 
HETATM   30  H   UNL     1     -10.187  21.164  65.612  1.00  0.00     0.000 HD 
HETATM   31  C   UNL     1      -9.257  20.546  67.353  1.00  0.00    -0.348 C  
HETATM   32  C   UNL     1      -8.519  19.329  67.916  1.00  0.00    -0.343 C  
ENDBRANCH  25  26
ENDBRANCH  24  25
ENDBRANCH  23  24
ENDBRANCH  22  23
ENDBRANCH  21  22
ENDBRANCH  18  21
ENDBRANCH  14  15
ENDBRANCH  10  14
ENDBRANCH   8  10
ENDBRANCH   5   8
ENDBRANCH   4   5
ENDBRANCH   3   4
ENDBRANCH   2   3
TORSDOF 13
ENDMDL
MODEL      122
REMARK 921   NORMALIZED FREE ENERGY PREDICTED BY IDOCK:   -4.35 KCAL/MOL
REMARK 922        TOTAL FREE ENERGY PREDICTED BY IDOCK:  -10.20 KCAL/MOL
REMARK 923 INTER-LIGAND FREE ENERGY PREDICTED BY IDOCK:   -8.87 KCAL/MOL
REMARK 924 INTRA-LIGAND FREE ENERGY PREDICTED BY IDOCK:   -1.34 KCAL/MOL
REMARK 927      BINDING AFFINITY PREDICTED BY RF-SCORE:    0.00 PKD
ROOT
HETATM    1  C   UNL     1      -6.627   9.623  64.018  1.00  0.00    -0.112 C  
HETATM    2  C   UNL     1      -7.958  10.041  64.638  1.00  0.00    -0.145 C  
ENDROOT
BRANCH   2   3
HETATM    3  C   UNL     1      -8.585   8.828  65.303  1.00  0.00    -0.212 C  
BRANCH   3   4
HETATM    4  C   UNL     1      -8.084   8.477  66.707  1.00  0.00    -0.098 C  
BRANCH   4   5
HETATM    5  S   UNL     1      -9.226   9.301  67.838  1.00  0.00    -0.129 S  
HETATM    6  O   UNL     1      -8.504  10.323  68.558  1.00  0.00    -0.112 OA 
HETATM    7  O   UNL     1     -10.418   9.597  67.080  1.00  0.00    -0.247 OA 
BRANCH   5   8
HETATM    8  N   UNL     1      -9.641   8.145  69.015  1.00  0.00    -0.155 N  
HETATM    9  H   UNL     1      -9.636   7.136  68.864  1.00  0.00     0.000 HD 
BRANCH   8  10
HETATM   10  C   UNL     1     -10.027   8.833  70.346  1.00  0.00    -0.189 C  
HETATM   11  C   UNL     1      -9.213   8.219  71.486  1.00  0.00    -0.177 C  
HETATM   12  O   UNL     1      -8.951   8.790  72.534  1.00  0.00    -0.386 OA 
HETATM   13  O   UNL     1      -8.799   6.955  71.217  1.00  0.00    -0.134 OA 
BRANCH  10  14
HETATM   14  C   UNL     1     -11.525   8.789  70.701  1.00  0.00    -0.263 C  
BRANCH  14  15
HETATM   15  C   UNL     1     -12.159  10.145  70.883  1.00  0.00    -0.453 A  
HETATM   16  C   UNL     1     -11.679  11.202  70.102  1.00  0.00    -0.439 A  
HETATM   17  C   UNL     1     -12.051  12.512  70.392  1.00  0.00    -0.380 A  
HETATM   18  C   UNL     1     -12.892  12.789  71.472  1.00  0.00    -0.270 A  
HETATM   19  C   UNL     1     -13.139  10.413  71.850  1.00  0.00    -0.563 A  
HETATM   20  C   UNL     1     -13.488  11.731  72.157  1.00  0.00    -0.273 A  
BRANCH  18  21
HETATM   21  O   UNL     1     -13.167  14.048  71.945  1.00  0.00    -0.345 OA 
BRANCH  21  22
HETATM   22  C   UNL     1     -13.038  15.073  70.958  1.00  0.00    -0.422 C  
BRANCH  22  23
HETATM   23  C   UNL     1     -11.885  16.008  71.281  1.00  0.00    -0.502 C  
BRANCH  23  24
HETATM   24  C   UNL     1     -10.648  15.799  70.397  1.00  0.00    -0.245 C  
BRANCH  24  25
HETATM   25  C   UNL     1     -10.901  16.458  69.037  1.00  0.00    -0.331 C  
BRANCH  25  26
HETATM   26  C   UNL     1      -9.690  17.139  68.371  1.00  0.00    -0.284 C  
HETATM   27  C   UNL     1      -9.439  16.492  66.995  1.00  0.00    -0.249 C  
HETATM   28  C   UNL     1     -10.416  16.994  65.933  1.00  0.00    -0.274 C  
HETATM   29  N   UNL     1     -10.300  18.442  65.788  1.00  0.00    -0.608 NA 
HETATM   30  H   UNL     1     -10.853  18.786  65.003  1.00  0.00     0.000 HD 
HETATM   31  C   UNL     1     -10.647  19.125  67.034  1.00  0.00    -0.457 C  
HETATM   32  C   UNL     1      -9.789  18.665  68.215  1.00  0.00    -0.410 C  
ENDBRANCH  25  26
ENDBRANCH  24  25
ENDBRANCH  23  24
ENDBRANCH  22  23
ENDBRANCH  21  22
ENDBRANCH  18  21
ENDBRANCH  14  15
ENDBRANCH  10  14
ENDBRANCH   8  10
ENDBRANCH   5   8
ENDBRANCH   4   5
ENDBRANCH   3   4
ENDBRANCH   2   3
TORSDOF 13
ENDMDL
MODEL      123
REMARK 921   NORMALIZED FREE ENERGY PREDICTED BY IDOCK:   -4.34 KCAL/MOL
REMARK 922        TOTAL FREE ENERGY PREDICTED BY IDOCK:  -10.18 KCAL/MOL
REMARK 923 INTER-LIGAND FREE ENERGY PREDICTED BY IDOCK:   -8.83 KCAL/MOL
REMARK 924 INTRA-LIGAND FREE ENERGY PREDICTED BY IDOCK:   -1.35 KCAL/MOL
REMARK 927      BINDING AFFINITY PREDICTED BY RF-SCORE:    0.00 PKD
ROOT
HETATM    1  C   UNL     1     -13.091  15.411  72.904  1.00  0.00    -0.598 C  
HETATM    2  C   UNL     1     -13.199  14.068  72.185  1.00  0.00    -0.526 C  
ENDROOT
BRANCH   2   3
HETATM    3  C   UNL     1     -12.344  14.120  70.931  1.00  0.00    -0.438 C  
BRANCH   3   4
HETATM    4  C   UNL     1     -12.596  15.288  69.973  1.00  0.00    -0.242 C  
BRANCH   4   5
HETATM    5  S   UNL     1     -11.305  15.158  68.717  1.00  0.00    -0.319 S  
HETATM    6  O   UNL     1     -11.101  16.462  68.129  1.00  0.00    -0.352 OA 
HETATM    7  O   UNL     1     -10.223  14.410  69.310  1.00  0.00    -0.179 OA 
BRANCH   5   8
HETATM    8  N   UNL     1     -11.959  14.210  67.464  1.00  0.00    -0.468 N  
HETATM    9  H   UNL     1     -12.641  13.463  67.598  1.00  0.00     0.000 HD 
BRANCH   8  10
HETATM   10  C   UNL     1     -11.379  14.636  66.095  1.00  0.00    -0.350 C  
HETATM   11  C   UNL     1     -12.441  14.436  65.013  1.00  0.00    -0.359 C  
HETATM   12  O   UNL     1     -12.477  15.049  63.957  1.00  0.00    -0.796 OA 
HETATM   13  O   UNL     1     -13.359  13.493  65.344  1.00  0.00    -0.548 OA 
BRANCH  10  14
HETATM   14  C   UNL     1     -10.078  13.924  65.679  1.00  0.00    -0.332 C  
BRANCH  14  15
HETATM   15  C   UNL     1      -9.940  12.522  66.218  1.00  0.00    -0.263 A  
HETATM   16  C   UNL     1      -9.002  12.301  67.232  1.00  0.00    -0.187 A  
HETATM   17  C   UNL     1      -8.658  11.002  67.597  1.00  0.00    -0.125 A  
HETATM   18  C   UNL     1      -9.231   9.907  66.946  1.00  0.00    -0.147 A  
HETATM   19  C   UNL     1     -10.638  11.424  65.695  1.00  0.00    -0.314 A  
HETATM   20  C   UNL     1     -10.270  10.121  66.042  1.00  0.00    -0.288 A  
BRANCH  18  21
HETATM   21  O   UNL     1      -8.827   8.605  67.106  1.00  0.00    -0.126 OA 
BRANCH  21  22
HETATM   22  C   UNL     1      -9.898   7.660  67.050  1.00  0.00    -0.215 C  
BRANCH  22  23
HETATM   23  C   UNL     1      -9.978   6.840  68.326  1.00  0.00    -0.153 C  
BRANCH  23  24
HETATM   24  C   UNL     1     -10.743   7.531  69.463  1.00  0.00    -0.222 C  
BRANCH  24  25
HETATM   25  C   UNL     1     -10.562   6.712  70.744  1.00  0.00    -0.265 C  
BRANCH  25  26
HETATM   26  C   UNL     1      -9.976   7.460  71.957  1.00  0.00    -0.196 C  
HETATM   27  C   UNL     1      -8.781   6.662  72.515  1.00  0.00    -0.126 C  
HETATM   28  C   UNL     1      -7.517   6.852  71.677  1.00  0.00    -0.085 C  
HETATM   29  N   UNL     1      -7.149   8.264  71.638  1.00  0.00    -0.075 NA 
HETATM   30  H   UNL     1      -6.244   8.403  71.187  1.00  0.00     0.000 HD 
HETATM   31  C   UNL     1      -8.196   9.063  71.003  1.00  0.00    -0.176 C  
HETATM   32  C   UNL     1      -9.551   8.915  71.699  1.00  0.00    -0.363 C  
ENDBRANCH  25  26
ENDBRANCH  24  25
ENDBRANCH  23  24
ENDBRANCH  22  23
ENDBRANCH  21  22
ENDBRANCH  18  21
ENDBRANCH  14  15
ENDBRANCH  10  14
ENDBRANCH   8  10
ENDBRANCH   5   8
ENDBRANCH   4   5
ENDBRANCH   3   4
ENDBRANCH   2   3
TORSDOF 13
ENDMDL
MODEL      124
REMARK 921   NORMALIZED FREE ENERGY PREDICTED BY IDOCK:   -4.34 KCAL/MOL
REMARK 922        TOTAL FREE ENERGY PREDICTED BY IDOCK:  -10.17 KCAL/MOL
REMARK 923 INTER-LIGAND FREE ENERGY PREDICTED BY IDOCK:   -8.85 KCAL/MOL
REMARK 924 INTRA-LIGAND FREE ENERGY PREDICTED BY IDOCK:   -1.33 KCAL/MOL
REMARK 927      BINDING AFFINITY PREDICTED BY RF-SCORE:    0.00 PKD
ROOT
HETATM    1  C   UNL     1     -11.944  12.746  69.706  1.00  0.00    -0.362 C  
HETATM    2  C   UNL     1     -12.660  12.241  70.957  1.00  0.00    -0.352 C  
ENDROOT
BRANCH   2   3
HETATM    3  C   UNL     1     -12.762  10.728  70.879  1.00  0.00    -0.478 C  
BRANCH   3   4
HETATM    4  C   UNL     1     -13.289  10.009  72.125  1.00  0.00    -0.368 C  
BRANCH   4   5
HETATM    5  S   UNL     1     -12.818   8.279  71.908  1.00  0.00    -0.345 S  
HETATM    6  O   UNL     1     -11.854   7.933  72.926  1.00  0.00    -0.307 OA 
HETATM    7  O   UNL     1     -14.042   7.535  71.732  1.00  0.00    -0.388 OA 
BRANCH   5   8
HETATM    8  N   UNL     1     -11.956   8.204  70.443  1.00  0.00    -0.464 N  
HETATM    9  H   UNL     1     -12.156   8.777  69.623  1.00  0.00     0.000 HD 
BRANCH   8  10
HETATM   10  C   UNL     1     -10.830   7.147  70.524  1.00  0.00    -0.246 C  
HETATM   11  C   UNL     1      -9.521   7.834  70.916  1.00  0.00    -0.160 C  
HETATM   12  O   UNL     1      -8.587   7.277  71.473  1.00  0.00    -0.117 OA 
HETATM   13  O   UNL     1      -9.495   9.149  70.581  1.00  0.00    -0.218 OA 
BRANCH  10  14
HETATM   14  C   UNL     1     -10.612   6.314  69.247  1.00  0.00    -0.332 C  
BRANCH  14  15
HETATM   15  C   UNL     1      -9.912   7.055  68.136  1.00  0.00    -0.169 A  
HETATM   16  C   UNL     1     -10.659   7.970  67.387  1.00  0.00    -0.337 A  
HETATM   17  C   UNL     1     -10.141   8.499  66.208  1.00  0.00    -0.174 A  
HETATM   18  C   UNL     1      -8.879   8.112  65.750  1.00  0.00    -0.135 A  
HETATM   19  C   UNL     1      -8.582   6.809  67.765  1.00  0.00    -0.121 A  
HETATM   20  C   UNL     1      -8.075   7.318  66.567  1.00  0.00    -0.114 A  
BRANCH  18  21
HETATM   21  O   UNL     1      -8.362   8.433  64.520  1.00  0.00    -0.166 OA 
BRANCH  21  22
HETATM   22  C   UNL     1      -7.758   9.727  64.471  1.00  0.00    -0.137 C  
BRANCH  22  23
HETATM   23  C   UNL     1      -7.981  10.391  63.123  1.00  0.00    -0.125 C  
BRANCH  23  24
HETATM   24  C   UNL     1      -9.461  10.572  62.756  1.00  0.00    -0.353 C  
BRANCH  24  25
HETATM   25  C   UNL     1      -9.980  11.846  63.429  1.00  0.00    -0.435 C  
BRANCH  25  26
HETATM   26  C   UNL     1     -11.403  11.779  64.014  1.00  0.00    -0.461 C  
HETATM   27  C   UNL     1     -11.325  11.881  65.550  1.00  0.00    -0.334 C  
HETATM   28  C   UNL     1     -11.103  13.317  66.024  1.00  0.00    -0.283 C  
HETATM   29  N   UNL     1     -12.192  14.172  65.562  1.00  0.00    -0.416 NA 
HETATM   30  H   UNL     1     -12.131  15.107  65.965  1.00  0.00     0.000 HD 
HETATM   31  C   UNL     1     -12.242  14.216  64.101  1.00  0.00    -0.390 C  
HETATM   32  C   UNL     1     -12.392  12.827  63.476  1.00  0.00    -0.559 C  
ENDBRANCH  25  26
ENDBRANCH  24  25
ENDBRANCH  23  24
ENDBRANCH  22  23
ENDBRANCH  21  22
ENDBRANCH  18  21
ENDBRANCH  14  15
ENDBRANCH  10  14
ENDBRANCH   8  10
ENDBRANCH   5   8
ENDBRANCH   4   5
ENDBRANCH   3   4
ENDBRANCH   2   3
TORSDOF 13
ENDMDL
MODEL      125
REMARK 921   NORMALIZED FREE ENERGY PREDICTED BY IDOCK:   -4.34 KCAL/MOL
REMARK 922        TOTAL FREE ENERGY PREDICTED BY IDOCK:  -10.17 KCAL/MOL
REMARK 923 INTER-LIGAND FREE ENERGY PREDICTED BY IDOCK:   -8.12 KCAL/MOL
REMARK 924 INTRA-LIGAND FREE ENERGY PREDICTED BY IDOCK:   -2.05 KCAL/MOL
REMARK 927      BINDING AFFINITY PREDICTED BY RF-SCORE:    0.00 PKD
ROOT
HETATM    1  C   UNL     1      -8.108  12.457  67.927  1.00  0.00    -0.161 C  
HETATM    2  C   UNL     1      -9.297  11.500  67.957  1.00  0.00    -0.175 C  
ENDROOT
BRANCH   2   3
HETATM    3  C   UNL     1      -8.945  10.265  67.146  1.00  0.00    -0.145 C  
BRANCH   3   4
HETATM    4  C   UNL     1      -8.224   9.136  67.889  1.00  0.00    -0.112 C  
BRANCH   4   5
HETATM    5  S   UNL     1      -9.226   7.662  67.600  1.00  0.00    -0.136 S  
HETATM    6  O   UNL     1     -10.568   8.076  67.264  1.00  0.00    -0.303 OA 
HETATM    7  O   UNL     1      -8.455   6.799  66.738  1.00  0.00    -0.113 OA 
BRANCH   5   8
HETATM    8  N   UNL     1      -9.371   6.886  69.107  1.00  0.00    -0.140 N  
HETATM    9  H   UNL     1      -9.261   5.882  69.255  1.00  0.00     0.000 HD 
BRANCH   8  10
HETATM   10  C   UNL     1      -9.691   7.910  70.221  1.00  0.00    -0.183 C  
HETATM   11  C   UNL     1      -8.558   7.909  71.248  1.00  0.00    -0.125 C  
HETATM   12  O   UNL     1      -8.282   8.852  71.974  1.00  0.00    -0.362 OA 
HETATM   13  O   UNL     1      -7.873   6.738  71.276  1.00  0.00    -0.099 OA 
BRANCH  10  14
HETATM   14  C   UNL     1     -11.038   7.703  70.940  1.00  0.00    -0.275 C  
BRANCH  14  15
HETATM   15  C   UNL     1     -11.871   8.954  71.068  1.00  0.00    -0.324 A  
HETATM   16  C   UNL     1     -11.556  10.038  70.241  1.00  0.00    -0.354 A  
HETATM   17  C   UNL     1     -12.122  11.287  70.478  1.00  0.00    -0.481 A  
HETATM   18  C   UNL     1     -12.997  11.478  71.550  1.00  0.00    -0.380 A  
HETATM   19  C   UNL     1     -12.881   9.111  72.028  1.00  0.00    -0.483 A  
HETATM   20  C   UNL     1     -13.426  10.372  72.282  1.00  0.00    -0.195 A  
BRANCH  18  21
HETATM   21  O   UNL     1     -13.459  12.700  71.972  1.00  0.00    -0.498 OA 
BRANCH  21  22
HETATM   22  C   UNL     1     -12.555  13.776  71.717  1.00  0.00    -0.226 C  
BRANCH  22  23
HETATM   23  C   UNL     1     -12.832  14.423  70.371  1.00  0.00    -0.301 C  
BRANCH  23  24
HETATM   24  C   UNL     1     -11.639  15.200  69.796  1.00  0.00    -0.338 C  
BRANCH  24  25
HETATM   25  C   UNL     1     -11.126  14.461  68.556  1.00  0.00    -0.270 C  
BRANCH  25  26
HETATM   26  C   UNL     1     -11.880  14.727  67.240  1.00  0.00    -0.316 C  
HETATM   27  C   UNL     1     -10.931  15.421  66.244  1.00  0.00    -0.278 C  
HETATM   28  C   UNL     1      -9.960  14.439  65.590  1.00  0.00    -0.337 C  
HETATM   29  N   UNL     1     -10.699  13.403  64.875  1.00  0.00    -0.347 NA 
HETATM   30  H   UNL     1     -10.076  12.805  64.331  1.00  0.00     0.000 HD 
HETATM   31  C   UNL     1     -11.531  12.623  65.791  1.00  0.00    -0.358 C  
HETATM   32  C   UNL     1     -12.514  13.494  66.576  1.00  0.00    -0.309 C  
ENDBRANCH  25  26
ENDBRANCH  24  25
ENDBRANCH  23  24
ENDBRANCH  22  23
ENDBRANCH  21  22
ENDBRANCH  18  21
ENDBRANCH  14  15
ENDBRANCH  10  14
ENDBRANCH   8  10
ENDBRANCH   5   8
ENDBRANCH   4   5
ENDBRANCH   3   4
ENDBRANCH   2   3
TORSDOF 13
ENDMDL
MODEL      126
REMARK 921   NORMALIZED FREE ENERGY PREDICTED BY IDOCK:   -4.33 KCAL/MOL
REMARK 922        TOTAL FREE ENERGY PREDICTED BY IDOCK:  -10.16 KCAL/MOL
REMARK 923 INTER-LIGAND FREE ENERGY PREDICTED BY IDOCK:   -9.30 KCAL/MOL
REMARK 924 INTRA-LIGAND FREE ENERGY PREDICTED BY IDOCK:   -0.85 KCAL/MOL
REMARK 927      BINDING AFFINITY PREDICTED BY RF-SCORE:    0.00 PKD
ROOT
HETATM    1  C   UNL     1      -6.322  16.010  68.904  1.00  0.00    -0.129 C  
HETATM    2  C   UNL     1      -7.444  16.968  68.509  1.00  0.00    -0.221 C  
ENDROOT
BRANCH   2   3
HETATM    3  C   UNL     1      -8.155  16.405  67.291  1.00  0.00    -0.198 C  
BRANCH   3   4
HETATM    4  C   UNL     1      -8.572  17.410  66.212  1.00  0.00    -0.211 C  
BRANCH   4   5
HETATM    5  S   UNL     1     -10.371  17.513  66.331  1.00  0.00    -0.299 S  
HETATM    6  O   UNL     1     -10.710  18.374  67.440  1.00  0.00    -0.416 OA 
HETATM    7  O   UNL     1     -10.862  17.758  64.996  1.00  0.00    -0.774 OA 
BRANCH   5   8
HETATM    8  N   UNL     1     -10.903  15.966  66.798  1.00  0.00    -0.278 N  
HETATM    9  H   UNL     1     -10.948  15.635  67.762  1.00  0.00     0.000 HD 
BRANCH   8  10
HETATM   10  C   UNL     1     -11.310  15.131  65.561  1.00  0.00    -0.274 C  
HETATM   11  C   UNL     1     -12.456  14.193  65.942  1.00  0.00    -0.453 C  
HETATM   12  O   UNL     1     -13.272  13.741  65.151  1.00  0.00    -0.757 OA 
HETATM   13  O   UNL     1     -12.484  13.904  67.267  1.00  0.00    -0.259 OA 
BRANCH  10  14
HETATM   14  C   UNL     1     -10.175  14.320  64.910  1.00  0.00    -0.361 C  
BRANCH  14  15
HETATM   15  C   UNL     1     -10.136  12.869  65.319  1.00  0.00    -0.254 A  
HETATM   16  C   UNL     1      -9.631  12.558  66.586  1.00  0.00    -0.239 A  
HETATM   17  C   UNL     1      -9.347  11.238  66.923  1.00  0.00    -0.190 A  
HETATM   18  C   UNL     1      -9.545  10.211  65.998  1.00  0.00    -0.210 A  
HETATM   19  C   UNL     1     -10.498  11.818  64.463  1.00  0.00    -0.352 A  
HETATM   20  C   UNL     1     -10.184  10.497  64.792  1.00  0.00    -0.373 A  
BRANCH  18  21
HETATM   21  O   UNL     1      -9.128   8.914  66.168  1.00  0.00    -0.174 OA 
BRANCH  21  22
HETATM   22  C   UNL     1      -8.816   8.586  67.524  1.00  0.00    -0.135 C  
BRANCH  22  23
HETATM   23  C   UNL     1      -9.867   7.669  68.126  1.00  0.00    -0.186 C  
BRANCH  23  24
HETATM   24  C   UNL     1      -9.732   7.479  69.643  1.00  0.00    -0.167 C  
BRANCH  24  25
HETATM   25  C   UNL     1     -11.086   7.034  70.204  1.00  0.00    -0.323 C  
BRANCH  25  26
HETATM   26  C   UNL     1     -11.417   7.492  71.636  1.00  0.00    -0.292 C  
HETATM   27  C   UNL     1     -10.901   8.929  71.841  1.00  0.00    -0.433 C  
HETATM   28  C   UNL     1     -11.821   9.970  71.204  1.00  0.00    -0.393 C  
HETATM   29  N   UNL     1     -13.159   9.876  71.778  1.00  0.00    -0.419 NA 
HETATM   30  H   UNL     1     -13.759  10.637  71.458  1.00  0.00     0.000 HD 
HETATM   31  C   UNL     1     -13.756   8.569  71.509  1.00  0.00    -0.318 C  
HETATM   32  C   UNL     1     -12.900   7.414  72.033  1.00  0.00    -0.217 C  
ENDBRANCH  25  26
ENDBRANCH  24  25
ENDBRANCH  23  24
ENDBRANCH  22  23
ENDBRANCH  21  22
ENDBRANCH  18  21
ENDBRANCH  14  15
ENDBRANCH  10  14
ENDBRANCH   8  10
ENDBRANCH   5   8
ENDBRANCH   4   5
ENDBRANCH   3   4
ENDBRANCH   2   3
TORSDOF 13
ENDMDL
MODEL      127
REMARK 921   NORMALIZED FREE ENERGY PREDICTED BY IDOCK:   -4.32 KCAL/MOL
REMARK 922        TOTAL FREE ENERGY PREDICTED BY IDOCK:  -10.14 KCAL/MOL
REMARK 923 INTER-LIGAND FREE ENERGY PREDICTED BY IDOCK:   -8.72 KCAL/MOL
REMARK 924 INTRA-LIGAND FREE ENERGY PREDICTED BY IDOCK:   -1.42 KCAL/MOL
REMARK 927      BINDING AFFINITY PREDICTED BY RF-SCORE:    0.00 PKD
ROOT
HETATM    1  C   UNL     1     -13.028  10.271  71.682  1.00  0.00    -0.570 C  
HETATM    2  C   UNL     1     -11.818  10.513  70.783  1.00  0.00    -0.465 C  
ENDROOT
BRANCH   2   3
HETATM    3  C   UNL     1     -10.933   9.280  70.818  1.00  0.00    -0.349 C  
BRANCH   3   4
HETATM    4  C   UNL     1     -11.385   8.134  71.729  1.00  0.00    -0.278 C  
BRANCH   4   5
HETATM    5  S   UNL     1      -9.900   7.621  72.619  1.00  0.00    -0.230 S  
HETATM    6  O   UNL     1      -8.969   8.725  72.638  1.00  0.00    -0.380 OA 
HETATM    7  O   UNL     1     -10.344   6.976  73.831  1.00  0.00    -0.363 OA 
BRANCH   5   8
HETATM    8  N   UNL     1      -9.155   6.437  71.650  1.00  0.00    -0.144 N  
HETATM    9  H   UNL     1      -8.178   6.458  71.357  1.00  0.00     0.000 HD 
BRANCH   8  10
HETATM   10  C   UNL     1     -10.162   5.323  71.276  1.00  0.00    -0.224 C  
HETATM   11  C   UNL     1      -9.890   4.088  72.135  1.00  0.00    -0.168 C  
HETATM   12  O   UNL     1     -10.723   3.236  72.405  1.00  0.00    -0.006 OA 
HETATM   13  O   UNL     1      -8.609   4.027  72.580  1.00  0.00    -0.098 OA 
BRANCH  10  14
HETATM   14  C   UNL     1     -10.180   4.923  69.789  1.00  0.00    -0.284 C  
BRANCH  14  15
HETATM   15  C   UNL     1      -9.868   6.051  68.839  1.00  0.00    -0.173 A  
HETATM   16  C   UNL     1     -10.941   6.708  68.227  1.00  0.00    -0.321 A  
HETATM   17  C   UNL     1     -10.715   7.584  67.169  1.00  0.00    -0.379 A  
HETATM   18  C   UNL     1      -9.420   7.806  66.696  1.00  0.00    -0.205 A  
HETATM   19  C   UNL     1      -8.562   6.414  68.477  1.00  0.00    -0.122 A  
HETATM   20  C   UNL     1      -8.339   7.271  67.396  1.00  0.00    -0.119 A  
BRANCH  18  21
HETATM   21  O   UNL     1      -9.115   8.503  65.553  1.00  0.00    -0.175 OA 
BRANCH  21  22
HETATM   22  C   UNL     1      -9.708   9.801  65.496  1.00  0.00    -0.312 C  
BRANCH  22  23
HETATM   23  C   UNL     1      -9.584  10.405  64.108  1.00  0.00    -0.381 C  
BRANCH  23  24
HETATM   24  C   UNL     1     -10.462  11.645  63.888  1.00  0.00    -0.433 C  
BRANCH  24  25
HETATM   25  C   UNL     1     -11.313  11.871  65.140  1.00  0.00    -0.328 C  
BRANCH  25  26
HETATM   26  C   UNL     1     -12.253  13.090  65.118  1.00  0.00    -0.507 C  
HETATM   27  C   UNL     1     -12.465  13.593  66.560  1.00  0.00    -0.337 C  
HETATM   28  C   UNL     1     -11.277  14.408  67.069  1.00  0.00    -0.328 C  
HETATM   29  N   UNL     1     -11.056  15.565  66.207  1.00  0.00    -0.240 NA 
HETATM   30  H   UNL     1     -10.347  16.190  66.593  1.00  0.00     0.000 HD 
HETATM   31  C   UNL     1     -10.726  15.150  64.844  1.00  0.00    -0.398 C  
HETATM   32  C   UNL     1     -11.805  14.259  64.225  1.00  0.00    -0.401 C  
ENDBRANCH  25  26
ENDBRANCH  24  25
ENDBRANCH  23  24
ENDBRANCH  22  23
ENDBRANCH  21  22
ENDBRANCH  18  21
ENDBRANCH  14  15
ENDBRANCH  10  14
ENDBRANCH   8  10
ENDBRANCH   5   8
ENDBRANCH   4   5
ENDBRANCH   3   4
ENDBRANCH   2   3
TORSDOF 13
ENDMDL
MODEL      128
REMARK 921   NORMALIZED FREE ENERGY PREDICTED BY IDOCK:   -4.31 KCAL/MOL
REMARK 922        TOTAL FREE ENERGY PREDICTED BY IDOCK:  -10.14 KCAL/MOL
REMARK 923 INTER-LIGAND FREE ENERGY PREDICTED BY IDOCK:   -8.13 KCAL/MOL
REMARK 924 INTRA-LIGAND FREE ENERGY PREDICTED BY IDOCK:   -2.00 KCAL/MOL
REMARK 927      BINDING AFFINITY PREDICTED BY RF-SCORE:    0.00 PKD
ROOT
HETATM    1  C   UNL     1     -11.284  10.545  69.799  1.00  0.00    -0.361 C  
HETATM    2  C   UNL     1     -11.141  10.484  68.280  1.00  0.00    -0.340 C  
ENDROOT
BRANCH   2   3
HETATM    3  C   UNL     1     -11.838  11.693  67.680  1.00  0.00    -0.216 C  
BRANCH   3   4
HETATM    4  C   UNL     1     -11.474  12.050  66.236  1.00  0.00    -0.345 C  
BRANCH   4   5
HETATM    5  S   UNL     1     -12.000  13.765  66.025  1.00  0.00    -0.441 S  
HETATM    6  O   UNL     1     -13.044  13.808  65.028  1.00  0.00    -0.751 OA 
HETATM    7  O   UNL     1     -12.185  14.308  67.349  1.00  0.00    -0.378 OA 
BRANCH   5   8
HETATM    8  N   UNL     1     -10.683  14.579  65.317  1.00  0.00    -0.349 N  
HETATM    9  H   UNL     1     -10.328  14.398  64.377  1.00  0.00     0.000 HD 
BRANCH   8  10
HETATM   10  C   UNL     1     -10.100  15.628  66.292  1.00  0.00    -0.299 C  
HETATM   11  C   UNL     1     -10.668  17.006  65.948  1.00  0.00    -0.139 C  
HETATM   12  O   UNL     1     -10.766  17.930  66.741  1.00  0.00    -0.279 OA 
HETATM   13  O   UNL     1     -11.063  17.106  64.654  1.00  0.00    -1.036 OA 
BRANCH  10  14
HETATM   14  C   UNL     1      -8.562  15.702  66.338  1.00  0.00    -0.319 C  
BRANCH  14  15
HETATM   15  C   UNL     1      -7.920  14.690  67.253  1.00  0.00    -0.223 A  
HETATM   16  C   UNL     1      -6.526  14.703  67.368  1.00  0.00     0.056 A  
HETATM   17  C   UNL     1      -5.866  13.652  67.997  1.00  0.00    -0.132 A  
HETATM   18  C   UNL     1      -6.582  12.566  68.507  1.00  0.00    -0.077 A  
HETATM   19  C   UNL     1      -8.642  13.689  67.920  1.00  0.00    -0.181 A  
HETATM   20  C   UNL     1      -7.975  12.621  68.526  1.00  0.00    -0.093 A  
BRANCH  18  21
HETATM   21  O   UNL     1      -6.015  11.408  68.978  1.00  0.00    -0.047 OA 
BRANCH  21  22
HETATM   22  C   UNL     1      -6.751  10.799  70.040  1.00  0.00    -0.149 C  
BRANCH  22  23
HETATM   23  C   UNL     1      -6.552   9.293  70.058  1.00  0.00    -0.051 C  
BRANCH  23  24
HETATM   24  C   UNL     1      -7.344   8.549  68.974  1.00  0.00    -0.081 C  
BRANCH  24  25
HETATM   25  C   UNL     1      -8.276   7.541  69.653  1.00  0.00    -0.129 C  
BRANCH  25  26
HETATM   26  C   UNL     1      -8.664   6.302  68.825  1.00  0.00    -0.121 C  
HETATM   27  C   UNL     1      -9.875   5.612  69.483  1.00  0.00    -0.238 C  
HETATM   28  C   UNL     1     -11.187   6.334  69.178  1.00  0.00    -0.371 C  
HETATM   29  N   UNL     1     -11.412   6.380  67.737  1.00  0.00    -0.632 NA 
HETATM   30  H   UNL     1     -12.337   6.749  67.512  1.00  0.00     0.000 HD 
HETATM   31  C   UNL     1     -10.354   7.132  67.063  1.00  0.00    -0.298 C  
HETATM   32  C   UNL     1      -8.961   6.561  67.339  1.00  0.00    -0.110 C  
ENDBRANCH  25  26
ENDBRANCH  24  25
ENDBRANCH  23  24
ENDBRANCH  22  23
ENDBRANCH  21  22
ENDBRANCH  18  21
ENDBRANCH  14  15
ENDBRANCH  10  14
ENDBRANCH   8  10
ENDBRANCH   5   8
ENDBRANCH   4   5
ENDBRANCH   3   4
ENDBRANCH   2   3
TORSDOF 13
ENDMDL
MODEL      129
REMARK 921   NORMALIZED FREE ENERGY PREDICTED BY IDOCK:   -4.31 KCAL/MOL
REMARK 922        TOTAL FREE ENERGY PREDICTED BY IDOCK:  -10.13 KCAL/MOL
REMARK 923 INTER-LIGAND FREE ENERGY PREDICTED BY IDOCK:   -8.71 KCAL/MOL
REMARK 924 INTRA-LIGAND FREE ENERGY PREDICTED BY IDOCK:   -1.43 KCAL/MOL
REMARK 927      BINDING AFFINITY PREDICTED BY RF-SCORE:    0.00 PKD
ROOT
HETATM    1  C   UNL     1     -10.117  20.153  67.911  1.00  0.00    -0.533 C  
HETATM    2  C   UNL     1      -9.993  19.562  66.509  1.00  0.00    -0.518 C  
ENDROOT
BRANCH   2   3
HETATM    3  C   UNL     1     -10.185  18.058  66.598  1.00  0.00    -0.375 C  
BRANCH   3   4
HETATM    4  C   UNL     1     -10.637  17.501  67.952  1.00  0.00    -0.390 C  
BRANCH   4   5
HETATM    5  S   UNL     1      -9.200  16.626  68.608  1.00  0.00    -0.254 S  
HETATM    6  O   UNL     1      -8.065  17.518  68.581  1.00  0.00    -0.267 OA 
HETATM    7  O   UNL     1      -9.631  15.974  69.821  1.00  0.00    -0.196 OA 
BRANCH   5   8
HETATM    8  N   UNL     1      -8.830  15.411  67.476  1.00  0.00    -0.176 N  
HETATM    9  H   UNL     1      -8.547  15.584  66.511  1.00  0.00     0.000 HD 
BRANCH   8  10
HETATM   10  C   UNL     1      -8.982  14.008  68.110  1.00  0.00    -0.183 C  
HETATM   11  C   UNL     1      -7.632  13.289  68.073  1.00  0.00    -0.145 C  
HETATM   12  O   UNL     1      -7.302  12.399  68.841  1.00  0.00    -0.100 OA 
HETATM   13  O   UNL     1      -6.819  13.745  67.086  1.00  0.00    -0.141 OA 
BRANCH  10  14
HETATM   14  C   UNL     1     -10.061  13.110  67.476  1.00  0.00    -0.222 C  
BRANCH  14  15
HETATM   15  C   UNL     1     -10.924  12.379  68.473  1.00  0.00    -0.277 A  
HETATM   16  C   UNL     1     -11.609  13.139  69.427  1.00  0.00    -0.360 A  
HETATM   17  C   UNL     1     -12.219  12.515  70.512  1.00  0.00    -0.382 A  
HETATM   18  C   UNL     1     -12.143  11.130  70.670  1.00  0.00    -0.379 A  
HETATM   19  C   UNL     1     -11.002  10.980  68.543  1.00  0.00    -0.276 A  
HETATM   20  C   UNL     1     -11.591  10.359  69.648  1.00  0.00    -0.307 A  
BRANCH  18  21
HETATM   21  O   UNL     1     -12.551  10.448  71.789  1.00  0.00    -0.408 OA 
BRANCH  21  22
HETATM   22  C   UNL     1     -13.571   9.480  71.532  1.00  0.00    -0.323 C  
BRANCH  22  23
HETATM   23  C   UNL     1     -13.071   8.069  71.791  1.00  0.00    -0.360 C  
BRANCH  23  24
HETATM   24  C   UNL     1     -11.739   8.011  72.552  1.00  0.00    -0.446 C  
BRANCH  24  25
HETATM   25  C   UNL     1     -10.671   7.422  71.625  1.00  0.00    -0.239 C  
BRANCH  25  26
HETATM   26  C   UNL     1     -10.987   6.050  71.001  1.00  0.00    -0.350 C  
HETATM   27  C   UNL     1     -11.118   6.207  69.473  1.00  0.00    -0.490 C  
HETATM   28  C   UNL     1      -9.758   6.304  68.783  1.00  0.00    -0.128 C  
HETATM   29  N   UNL     1      -8.970   5.106  69.057  1.00  0.00    -0.098 NA 
HETATM   30  H   UNL     1      -8.108   5.092  68.511  1.00  0.00     0.000 HD 
HETATM   31  C   UNL     1      -8.705   4.966  70.488  1.00  0.00    -0.108 C  
HETATM   32  C   UNL     1      -9.987   4.927  71.321  1.00  0.00    -0.271 C  
ENDBRANCH  25  26
ENDBRANCH  24  25
ENDBRANCH  23  24
ENDBRANCH  22  23
ENDBRANCH  21  22
ENDBRANCH  18  21
ENDBRANCH  14  15
ENDBRANCH  10  14
ENDBRANCH   8  10
ENDBRANCH   5   8
ENDBRANCH   4   5
ENDBRANCH   3   4
ENDBRANCH   2   3
TORSDOF 13
ENDMDL
MODEL      130
REMARK 921   NORMALIZED FREE ENERGY PREDICTED BY IDOCK:   -4.31 KCAL/MOL
REMARK 922        TOTAL FREE ENERGY PREDICTED BY IDOCK:  -10.13 KCAL/MOL
REMARK 923 INTER-LIGAND FREE ENERGY PREDICTED BY IDOCK:   -8.47 KCAL/MOL
REMARK 924 INTRA-LIGAND FREE ENERGY PREDICTED BY IDOCK:   -1.67 KCAL/MOL
REMARK 927      BINDING AFFINITY PREDICTED BY RF-SCORE:    0.00 PKD
ROOT
HETATM    1  C   UNL     1     -12.376  11.444  70.587  1.00  0.00    -0.466 C  
HETATM    2  C   UNL     1     -13.113  10.756  71.734  1.00  0.00    -0.573 C  
ENDROOT
BRANCH   2   3
HETATM    3  C   UNL     1     -12.400   9.454  72.055  1.00  0.00    -0.418 C  
BRANCH   3   4
HETATM    4  C   UNL     1     -10.936   9.345  71.618  1.00  0.00    -0.312 C  
BRANCH   4   5
HETATM    5  S   UNL     1     -10.339   7.801  72.341  1.00  0.00    -0.278 S  
HETATM    6  O   UNL     1      -9.391   8.117  73.384  1.00  0.00    -0.262 OA 
HETATM    7  O   UNL     1     -11.502   6.982  72.589  1.00  0.00    -0.267 OA 
BRANCH   5   8
HETATM    8  N   UNL     1      -9.421   7.036  71.130  1.00  0.00    -0.165 N  
HETATM    9  H   UNL     1      -8.456   7.273  70.898  1.00  0.00     0.000 HD 
BRANCH   8  10
HETATM   10  C   UNL     1     -10.249   5.934  70.430  1.00  0.00    -0.213 C  
HETATM   11  C   UNL     1      -9.458   4.625  70.440  1.00  0.00    -0.171 C  
HETATM   12  O   UNL     1      -9.960   3.513  70.378  1.00  0.00    -0.078 OA 
HETATM   13  O   UNL     1      -8.118   4.820  70.530  1.00  0.00    -0.079 OA 
BRANCH  10  14
HETATM   14  C   UNL     1     -10.693   6.256  68.990  1.00  0.00    -0.362 C  
BRANCH  14  15
HETATM   15  C   UNL     1      -9.998   7.446  68.379  1.00  0.00    -0.177 A  
HETATM   16  C   UNL     1      -8.673   7.286  67.957  1.00  0.00    -0.127 A  
HETATM   17  C   UNL     1      -7.908   8.397  67.614  1.00  0.00    -0.107 A  
HETATM   18  C   UNL     1      -8.445   9.683  67.700  1.00  0.00    -0.125 A  
HETATM   19  C   UNL     1     -10.582   8.719  68.294  1.00  0.00    -0.194 A  
HETATM   20  C   UNL     1      -9.803   9.835  67.976  1.00  0.00    -0.173 A  
BRANCH  18  21
HETATM   21  O   UNL     1      -7.723  10.842  67.560  1.00  0.00    -0.102 OA 
BRANCH  21  22
HETATM   22  C   UNL     1      -8.448  11.897  66.924  1.00  0.00    -0.174 C  
BRANCH  22  23
HETATM   23  C   UNL     1      -8.500  13.137  67.800  1.00  0.00    -0.185 C  
BRANCH  23  24
HETATM   24  C   UNL     1      -9.918  13.673  68.036  1.00  0.00    -0.247 C  
BRANCH  24  25
HETATM   25  C   UNL     1     -10.492  14.146  66.697  1.00  0.00    -0.278 C  
BRANCH  25  26
HETATM   26  C   UNL     1     -11.748  13.412  66.192  1.00  0.00    -0.405 C  
HETATM   27  C   UNL     1     -12.692  14.427  65.519  1.00  0.00    -0.308 C  
HETATM   28  C   UNL     1     -12.235  14.795  64.108  1.00  0.00    -0.295 C  
HETATM   29  N   UNL     1     -12.174  13.600  63.273  1.00  0.00    -1.063 NA 
HETATM   30  H   UNL     1     -11.988  13.833  62.297  1.00  0.00     0.000 HD 
HETATM   31  C   UNL     1     -11.198  12.643  63.793  1.00  0.00    -0.463 C  
HETATM   32  C   UNL     1     -11.491  12.234  65.238  1.00  0.00    -0.399 C  
ENDBRANCH  25  26
ENDBRANCH  24  25
ENDBRANCH  23  24
ENDBRANCH  22  23
ENDBRANCH  21  22
ENDBRANCH  18  21
ENDBRANCH  14  15
ENDBRANCH  10  14
ENDBRANCH   8  10
ENDBRANCH   5   8
ENDBRANCH   4   5
ENDBRANCH   3   4
ENDBRANCH   2   3
TORSDOF 13
ENDMDL
MODEL      131
REMARK 921   NORMALIZED FREE ENERGY PREDICTED BY IDOCK:   -4.31 KCAL/MOL
REMARK 922        TOTAL FREE ENERGY PREDICTED BY IDOCK:  -10.13 KCAL/MOL
REMARK 923 INTER-LIGAND FREE ENERGY PREDICTED BY IDOCK:   -7.38 KCAL/MOL
REMARK 924 INTRA-LIGAND FREE ENERGY PREDICTED BY IDOCK:   -2.75 KCAL/MOL
REMARK 927      BINDING AFFINITY PREDICTED BY RF-SCORE:    0.00 PKD
ROOT
HETATM    1  C   UNL     1     -12.714  10.929  71.283  1.00  0.00    -0.542 C  
HETATM    2  C   UNL     1     -12.404  11.156  69.805  1.00  0.00    -0.315 C  
ENDROOT
BRANCH   2   3
HETATM    3  C   UNL     1     -11.537  12.397  69.677  1.00  0.00    -0.330 C  
BRANCH   3   4
HETATM    4  C   UNL     1     -11.965  13.430  68.631  1.00  0.00    -0.327 C  
BRANCH   4   5
HETATM    5  S   UNL     1     -10.861  13.168  67.226  1.00  0.00    -0.260 S  
HETATM    6  O   UNL     1     -11.195  14.121  66.194  1.00  0.00    -0.315 OA 
HETATM    7  O   UNL     1      -9.526  13.059  67.762  1.00  0.00    -0.195 OA 
BRANCH   5   8
HETATM    8  N   UNL     1     -11.278  11.652  66.575  1.00  0.00    -0.312 N  
HETATM    9  H   UNL     1     -12.228  11.362  66.343  1.00  0.00     0.000 HD 
BRANCH   8  10
HETATM   10  C   UNL     1     -10.018  10.774  66.383  1.00  0.00    -0.216 C  
HETATM   11  C   UNL     1      -9.525  10.909  64.942  1.00  0.00    -0.235 C  
HETATM   12  O   UNL     1      -8.371  10.721  64.586  1.00  0.00    -0.108 OA 
HETATM   13  O   UNL     1     -10.509  11.267  64.079  1.00  0.00    -0.323 OA 
BRANCH  10  14
HETATM   14  C   UNL     1     -10.194   9.284  66.730  1.00  0.00    -0.325 C  
BRANCH  14  15
HETATM   15  C   UNL     1      -9.946   8.952  68.180  1.00  0.00    -0.208 A  
HETATM   16  C   UNL     1     -10.707   7.930  68.757  1.00  0.00    -0.082 A  
HETATM   17  C   UNL     1     -10.698   7.743  70.136  1.00  0.00    -0.242 A  
HETATM   18  C   UNL     1      -9.944   8.580  70.961  1.00  0.00    -0.203 A  
HETATM   19  C   UNL     1      -9.059   9.672  68.994  1.00  0.00    -0.148 A  
HETATM   20  C   UNL     1      -9.073   9.501  70.381  1.00  0.00    -0.296 A  
BRANCH  18  21
HETATM   21  O   UNL     1     -10.012   8.592  72.332  1.00  0.00    -0.302 OA 
BRANCH  21  22
HETATM   22  C   UNL     1     -11.091   7.818  72.861  1.00  0.00    -0.398 C  
BRANCH  22  23
HETATM   23  C   UNL     1     -10.586   6.545  73.518  1.00  0.00    -0.312 C  
BRANCH  23  24
HETATM   24  C   UNL     1     -11.234   5.264  72.973  1.00  0.00    -0.387 C  
BRANCH  24  25
HETATM   25  C   UNL     1     -10.125   4.286  72.576  1.00  0.00    -0.233 C  
BRANCH  25  26
HETATM   26  C   UNL     1      -9.232   4.706  71.394  1.00  0.00    -0.192 C  
HETATM   27  C   UNL     1      -7.780   4.271  71.676  1.00  0.00    -0.074 C  
HETATM   28  C   UNL     1      -7.564   2.780  71.422  1.00  0.00    -0.040 C  
HETATM   29  N   UNL     1      -7.878   2.456  70.035  1.00  0.00    -0.042 NA 
HETATM   30  H   UNL     1      -7.628   1.494  69.807  1.00  0.00     0.000 HD 
HETATM   31  C   UNL     1      -9.283   2.733  69.736  1.00  0.00    -0.135 C  
HETATM   32  C   UNL     1      -9.667   4.187  70.014  1.00  0.00    -0.282 C  
ENDBRANCH  25  26
ENDBRANCH  24  25
ENDBRANCH  23  24
ENDBRANCH  22  23
ENDBRANCH  21  22
ENDBRANCH  18  21
ENDBRANCH  14  15
ENDBRANCH  10  14
ENDBRANCH   8  10
ENDBRANCH   5   8
ENDBRANCH   4   5
ENDBRANCH   3   4
ENDBRANCH   2   3
TORSDOF 13
ENDMDL
MODEL      132
REMARK 921   NORMALIZED FREE ENERGY PREDICTED BY IDOCK:   -4.31 KCAL/MOL
REMARK 922        TOTAL FREE ENERGY PREDICTED BY IDOCK:  -10.13 KCAL/MOL
REMARK 923 INTER-LIGAND FREE ENERGY PREDICTED BY IDOCK:   -7.89 KCAL/MOL
REMARK 924 INTRA-LIGAND FREE ENERGY PREDICTED BY IDOCK:   -2.24 KCAL/MOL
REMARK 927      BINDING AFFINITY PREDICTED BY RF-SCORE:    0.00 PKD
ROOT
HETATM    1  C   UNL     1      -6.671  10.604  67.975  1.00  0.00    -0.064 C  
HETATM    2  C   UNL     1      -7.842  10.648  68.955  1.00  0.00    -0.129 C  
ENDROOT
BRANCH   2   3
HETATM    3  C   UNL     1      -7.659   9.539  69.976  1.00  0.00    -0.134 C  
BRANCH   3   4
HETATM    4  C   UNL     1      -8.907   9.107  70.753  1.00  0.00    -0.239 C  
BRANCH   4   5
HETATM    5  S   UNL     1      -8.304   7.982  72.031  1.00  0.00    -0.152 S  
HETATM    6  O   UNL     1      -6.943   7.615  71.717  1.00  0.00    -0.059 OA 
HETATM    7  O   UNL     1      -8.664   8.566  73.301  1.00  0.00    -0.337 OA 
BRANCH   5   8
HETATM    8  N   UNL     1      -9.198   6.545  71.856  1.00  0.00    -0.149 N  
HETATM    9  H   UNL     1      -8.973   5.663  72.316  1.00  0.00     0.000 HD 
BRANCH   8  10
HETATM   10  C   UNL     1     -10.397   6.759  70.902  1.00  0.00    -0.199 C  
HETATM   11  C   UNL     1     -11.699   6.532  71.671  1.00  0.00    -0.324 C  
HETATM   12  O   UNL     1     -12.776   7.022  71.367  1.00  0.00    -0.373 OA 
HETATM   13  O   UNL     1     -11.542   5.718  72.746  1.00  0.00    -0.281 OA 
BRANCH  10  14
HETATM   14  C   UNL     1     -10.391   5.892  69.630  1.00  0.00    -0.313 C  
BRANCH  14  15
HETATM   15  C   UNL     1     -10.038   6.641  68.370  1.00  0.00    -0.163 A  
HETATM   16  C   UNL     1      -8.818   6.345  67.752  1.00  0.00    -0.112 A  
HETATM   17  C   UNL     1      -8.331   7.163  66.737  1.00  0.00    -0.116 A  
HETATM   18  C   UNL     1      -9.042   8.295  66.334  1.00  0.00    -0.182 A  
HETATM   19  C   UNL     1     -10.828   7.673  67.841  1.00  0.00    -0.105 A  
HETATM   20  C   UNL     1     -10.323   8.509  66.842  1.00  0.00    -0.367 A  
BRANCH  18  21
HETATM   21  O   UNL     1      -8.562   9.255  65.478  1.00  0.00    -0.134 OA 
BRANCH  21  22
HETATM   22  C   UNL     1      -9.497  10.302  65.207  1.00  0.00    -0.240 C  
BRANCH  22  23
HETATM   23  C   UNL     1      -9.720  10.471  63.714  1.00  0.00    -0.385 C  
BRANCH  23  24
HETATM   24  C   UNL     1     -10.636  11.647  63.351  1.00  0.00    -0.472 C  
BRANCH  24  25
HETATM   25  C   UNL     1     -10.328  12.816  64.291  1.00  0.00    -0.402 C  
BRANCH  25  26
HETATM   26  C   UNL     1     -11.459  13.841  64.501  1.00  0.00    -0.401 C  
HETATM   27  C   UNL     1     -12.521  13.238  65.440  1.00  0.00    -0.543 C  
HETATM   28  C   UNL     1     -12.090  13.283  66.906  1.00  0.00    -0.332 C  
HETATM   29  N   UNL     1     -11.845  14.662  67.315  1.00  0.00    -0.431 NA 
HETATM   30  H   UNL     1     -11.673  14.732  68.318  1.00  0.00     0.000 HD 
HETATM   31  C   UNL     1     -10.757  15.256  66.539  1.00  0.00    -0.311 C  
HETATM   32  C   UNL     1     -11.020  15.215  65.032  1.00  0.00    -0.443 C  
ENDBRANCH  25  26
ENDBRANCH  24  25
ENDBRANCH  23  24
ENDBRANCH  22  23
ENDBRANCH  21  22
ENDBRANCH  18  21
ENDBRANCH  14  15
ENDBRANCH  10  14
ENDBRANCH   8  10
ENDBRANCH   5   8
ENDBRANCH   4   5
ENDBRANCH   3   4
ENDBRANCH   2   3
TORSDOF 13
ENDMDL
MODEL      133
REMARK 921   NORMALIZED FREE ENERGY PREDICTED BY IDOCK:   -4.31 KCAL/MOL
REMARK 922        TOTAL FREE ENERGY PREDICTED BY IDOCK:  -10.13 KCAL/MOL
REMARK 923 INTER-LIGAND FREE ENERGY PREDICTED BY IDOCK:   -8.60 KCAL/MOL
REMARK 924 INTRA-LIGAND FREE ENERGY PREDICTED BY IDOCK:   -1.53 KCAL/MOL
REMARK 927      BINDING AFFINITY PREDICTED BY RF-SCORE:    0.00 PKD
ROOT
HETATM    1  C   UNL     1      -7.656  19.770  68.876  1.00  0.00    -0.285 C  
HETATM    2  C   UNL     1      -7.572  20.512  67.544  1.00  0.00    -0.344 C  
ENDROOT
BRANCH   2   3
HETATM    3  C   UNL     1      -8.716  20.048  66.659  1.00  0.00    -0.397 C  
BRANCH   3   4
HETATM    4  C   UNL     1      -8.635  18.616  66.123  1.00  0.00    -0.137 C  
BRANCH   4   5
HETATM    5  S   UNL     1     -10.313  17.962  66.261  1.00  0.00    -0.314 S  
HETATM    6  O   UNL     1     -10.942  18.549  67.420  1.00  0.00    -0.376 OA 
HETATM    7  O   UNL     1     -10.901  18.049  64.946  1.00  0.00    -0.715 OA 
BRANCH   5   8
HETATM    8  N   UNL     1     -10.147  16.311  66.640  1.00  0.00    -0.266 N  
HETATM    9  H   UNL     1      -9.655  15.630  66.061  1.00  0.00     0.000 HD 
BRANCH   8  10
HETATM   10  C   UNL     1     -10.844  15.985  67.982  1.00  0.00    -0.335 C  
HETATM   11  C   UNL     1      -9.860  15.254  68.896  1.00  0.00    -0.221 C  
HETATM   12  O   UNL     1      -9.926  15.245  70.116  1.00  0.00    -0.216 OA 
HETATM   13  O   UNL     1      -8.885  14.605  68.210  1.00  0.00    -0.163 OA 
BRANCH  10  14
HETATM   14  C   UNL     1     -12.145  15.169  67.868  1.00  0.00     0.067 C  
BRANCH  14  15
HETATM   15  C   UNL     1     -12.104  14.078  66.828  1.00  0.00    -0.480 A  
HETATM   16  C   UNL     1     -11.716  12.798  67.238  1.00  0.00    -0.440 A  
HETATM   17  C   UNL     1     -11.427  11.818  66.292  1.00  0.00    -0.296 A  
HETATM   18  C   UNL     1     -11.504  12.103  64.927  1.00  0.00    -0.325 A  
HETATM   19  C   UNL     1     -12.349  14.303  65.466  1.00  0.00    -0.417 A  
HETATM   20  C   UNL     1     -12.030  13.327  64.518  1.00  0.00    -0.449 A  
BRANCH  18  21
HETATM   21  O   UNL     1     -11.067  11.268  63.929  1.00  0.00    -0.380 OA 
BRANCH  21  22
HETATM   22  C   UNL     1      -9.803  11.645  63.378  1.00  0.00    -0.404 C  
BRANCH  22  23
HETATM   23  C   UNL     1      -8.671  10.836  63.988  1.00  0.00    -0.075 C  
BRANCH  23  24
HETATM   24  C   UNL     1      -9.073   9.411  64.393  1.00  0.00    -0.180 C  
BRANCH  24  25
HETATM   25  C   UNL     1      -8.939   9.277  65.913  1.00  0.00    -0.225 C  
BRANCH  25  26
HETATM   26  C   UNL     1      -9.928   8.322  66.606  1.00  0.00    -0.348 C  
HETATM   27  C   UNL     1      -9.360   6.890  66.570  1.00  0.00    -0.197 C  
HETATM   28  C   UNL     1      -8.276   6.672  67.625  1.00  0.00    -0.122 C  
HETATM   29  N   UNL     1      -8.816   6.918  68.958  1.00  0.00    -0.131 NA 
HETATM   30  H   UNL     1      -8.148   6.663  69.686  1.00  0.00     0.000 HD 
HETATM   31  C   UNL     1      -9.263   8.304  69.097  1.00  0.00    -0.151 C  
HETATM   32  C   UNL     1     -10.309   8.691  68.049  1.00  0.00    -0.277 C  
ENDBRANCH  25  26
ENDBRANCH  24  25
ENDBRANCH  23  24
ENDBRANCH  22  23
ENDBRANCH  21  22
ENDBRANCH  18  21
ENDBRANCH  14  15
ENDBRANCH  10  14
ENDBRANCH   8  10
ENDBRANCH   5   8
ENDBRANCH   4   5
ENDBRANCH   3   4
ENDBRANCH   2   3
TORSDOF 13
ENDMDL
MODEL      134
REMARK 921   NORMALIZED FREE ENERGY PREDICTED BY IDOCK:   -4.31 KCAL/MOL
REMARK 922        TOTAL FREE ENERGY PREDICTED BY IDOCK:  -10.12 KCAL/MOL
REMARK 923 INTER-LIGAND FREE ENERGY PREDICTED BY IDOCK:   -7.52 KCAL/MOL
REMARK 924 INTRA-LIGAND FREE ENERGY PREDICTED BY IDOCK:   -2.60 KCAL/MOL
REMARK 927      BINDING AFFINITY PREDICTED BY RF-SCORE:    0.00 PKD
ROOT
HETATM    1  C   UNL     1     -10.804   5.022  72.703  1.00  0.00    -0.286 C  
HETATM    2  C   UNL     1     -10.562   6.443  73.206  1.00  0.00    -0.291 C  
ENDROOT
BRANCH   2   3
HETATM    3  C   UNL     1      -9.883   7.237  72.104  1.00  0.00    -0.185 C  
BRANCH   3   4
HETATM    4  C   UNL     1     -10.069   8.757  72.136  1.00  0.00    -0.292 C  
BRANCH   4   5
HETATM    5  S   UNL     1     -11.227   9.121  70.798  1.00  0.00    -0.295 S  
HETATM    6  O   UNL     1     -12.555   8.746  71.223  1.00  0.00    -0.306 OA 
HETATM    7  O   UNL     1     -10.921  10.454  70.336  1.00  0.00    -0.298 OA 
BRANCH   5   8
HETATM    8  N   UNL     1     -10.848   8.042  69.539  1.00  0.00    -0.387 N  
HETATM    9  H   UNL     1     -11.162   7.072  69.492  1.00  0.00     0.000 HD 
BRANCH   8  10
HETATM   10  C   UNL     1      -9.962   8.731  68.475  1.00  0.00    -0.182 C  
HETATM   11  C   UNL     1     -10.444   8.330  67.080  1.00  0.00    -0.314 C  
HETATM   12  O   UNL     1     -10.272   8.996  66.070  1.00  0.00    -0.225 OA 
HETATM   13  O   UNL     1     -11.096   7.140  67.070  1.00  0.00    -0.345 OA 
BRANCH  10  14
HETATM   14  C   UNL     1      -8.451   8.458  68.596  1.00  0.00    -0.128 C  
BRANCH  14  15
HETATM   15  C   UNL     1      -7.581   9.667  68.364  1.00  0.00    -0.081 A  
HETATM   16  C   UNL     1      -7.701  10.740  69.254  1.00  0.00    -0.129 A  
HETATM   17  C   UNL     1      -7.111  11.965  68.957  1.00  0.00    -0.092 A  
HETATM   18  C   UNL     1      -6.408  12.145  67.763  1.00  0.00    -0.092 A  
HETATM   19  C   UNL     1      -6.729   9.802  67.258  1.00  0.00    -0.074 A  
HETATM   20  C   UNL     1      -6.162  11.041  66.948  1.00  0.00    -0.093 A  
BRANCH  18  21
HETATM   21  O   UNL     1      -5.951  13.353  67.300  1.00  0.00    -0.341 OA 
BRANCH  21  22
HETATM   22  C   UNL     1      -6.422  14.472  68.053  1.00  0.00    -0.150 C  
BRANCH  22  23
HETATM   23  C   UNL     1      -7.587  15.156  67.358  1.00  0.00    -0.232 C  
BRANCH  23  24
HETATM   24  C   UNL     1      -8.760  15.488  68.290  1.00  0.00    -0.170 C  
BRANCH  24  25
HETATM   25  C   UNL     1     -10.031  14.846  67.725  1.00  0.00    -0.222 C  
BRANCH  25  26
HETATM   26  C   UNL     1      -9.846  13.913  66.513  1.00  0.00    -0.296 C  
HETATM   27  C   UNL     1     -10.251  12.480  66.911  1.00  0.00    -0.237 C  
HETATM   28  C   UNL     1     -11.767  12.294  66.933  1.00  0.00    -0.334 C  
HETATM   29  N   UNL     1     -12.328  12.581  65.616  1.00  0.00    -0.638 NA 
HETATM   30  H   UNL     1     -13.320  12.348  65.572  1.00  0.00     0.000 HD 
HETATM   31  C   UNL     1     -12.083  13.970  65.232  1.00  0.00    -0.408 C  
HETATM   32  C   UNL     1     -10.595  14.327  65.235  1.00  0.00    -0.396 C  
ENDBRANCH  25  26
ENDBRANCH  24  25
ENDBRANCH  23  24
ENDBRANCH  22  23
ENDBRANCH  21  22
ENDBRANCH  18  21
ENDBRANCH  14  15
ENDBRANCH  10  14
ENDBRANCH   8  10
ENDBRANCH   5   8
ENDBRANCH   4   5
ENDBRANCH   3   4
ENDBRANCH   2   3
TORSDOF 13
ENDMDL
MODEL      135
REMARK 921   NORMALIZED FREE ENERGY PREDICTED BY IDOCK:   -4.30 KCAL/MOL
REMARK 922        TOTAL FREE ENERGY PREDICTED BY IDOCK:  -10.11 KCAL/MOL
REMARK 923 INTER-LIGAND FREE ENERGY PREDICTED BY IDOCK:   -8.22 KCAL/MOL
REMARK 924 INTRA-LIGAND FREE ENERGY PREDICTED BY IDOCK:   -1.89 KCAL/MOL
REMARK 927      BINDING AFFINITY PREDICTED BY RF-SCORE:    0.00 PKD
ROOT
HETATM    1  C   UNL     1     -12.451  10.074  71.276  1.00  0.00    -0.494 C  
HETATM    2  C   UNL     1     -11.004   9.953  70.803  1.00  0.00    -0.407 C  
ENDROOT
BRANCH   2   3
HETATM    3  C   UNL     1     -10.831  10.797  69.553  1.00  0.00    -0.288 C  
BRANCH   3   4
HETATM    4  C   UNL     1     -12.100  11.416  68.959  1.00  0.00    -0.249 C  
BRANCH   4   5
HETATM    5  S   UNL     1     -11.523  12.774  67.918  1.00  0.00    -0.338 S  
HETATM    6  O   UNL     1     -12.267  13.964  68.259  1.00  0.00    -0.332 OA 
HETATM    7  O   UNL     1     -10.081  12.738  67.951  1.00  0.00    -0.218 OA 
BRANCH   5   8
HETATM    8  N   UNL     1     -12.010  12.393  66.332  1.00  0.00    -0.348 N  
HETATM    9  H   UNL     1     -12.764  11.748  66.097  1.00  0.00     0.000 HD 
BRANCH   8  10
HETATM   10  C   UNL     1     -11.151  13.158  65.298  1.00  0.00    -0.283 C  
HETATM   11  C   UNL     1     -11.867  14.452  64.907  1.00  0.00    -0.417 C  
HETATM   12  O   UNL     1     -11.307  15.450  64.481  1.00  0.00    -0.385 OA 
HETATM   13  O   UNL     1     -13.211  14.385  65.085  1.00  0.00    -0.602 OA 
BRANCH  10  14
HETATM   14  C   UNL     1     -10.788  12.367  64.027  1.00  0.00    -0.441 C  
BRANCH  14  15
HETATM   15  C   UNL     1      -9.778  11.269  64.248  1.00  0.00    -0.295 A  
HETATM   16  C   UNL     1      -9.610  10.320  63.234  1.00  0.00    -0.305 A  
HETATM   17  C   UNL     1      -8.880   9.160  63.474  1.00  0.00    -0.086 A  
HETATM   18  C   UNL     1      -8.321   8.920  64.731  1.00  0.00    -0.175 A  
HETATM   19  C   UNL     1      -9.068  11.106  65.447  1.00  0.00    -0.193 A  
HETATM   20  C   UNL     1      -8.360   9.927  65.695  1.00  0.00    -0.140 A  
BRANCH  18  21
HETATM   21  O   UNL     1      -7.746   7.735  65.117  1.00  0.00    -0.088 OA 
BRANCH  21  22
HETATM   22  C   UNL     1      -8.118   7.318  66.433  1.00  0.00    -0.119 C  
BRANCH  22  23
HETATM   23  C   UNL     1      -9.458   6.604  66.427  1.00  0.00    -0.166 C  
BRANCH  23  24
HETATM   24  C   UNL     1     -10.526   7.276  67.302  1.00  0.00    -0.380 C  
BRANCH  24  25
HETATM   25  C   UNL     1     -10.903   6.318  68.436  1.00  0.00    -0.394 C  
BRANCH  25  26
HETATM   26  C   UNL     1     -10.464   6.729  69.853  1.00  0.00    -0.242 C  
HETATM   27  C   UNL     1     -10.873   5.626  70.850  1.00  0.00    -0.294 C  
HETATM   28  C   UNL     1      -9.925   4.429  70.809  1.00  0.00    -0.177 C  
HETATM   29  N   UNL     1      -8.565   4.854  71.127  1.00  0.00    -0.120 NA 
HETATM   30  H   UNL     1      -7.936   4.057  71.225  1.00  0.00     0.000 HD 
HETATM   31  C   UNL     1      -8.070   5.814  70.141  1.00  0.00    -0.108 C  
HETATM   32  C   UNL     1      -8.969   7.047  70.020  1.00  0.00    -0.142 C  
ENDBRANCH  25  26
ENDBRANCH  24  25
ENDBRANCH  23  24
ENDBRANCH  22  23
ENDBRANCH  21  22
ENDBRANCH  18  21
ENDBRANCH  14  15
ENDBRANCH  10  14
ENDBRANCH   8  10
ENDBRANCH   5   8
ENDBRANCH   4   5
ENDBRANCH   3   4
ENDBRANCH   2   3
TORSDOF 13
ENDMDL
MODEL      136
REMARK 921   NORMALIZED FREE ENERGY PREDICTED BY IDOCK:   -4.30 KCAL/MOL
REMARK 922        TOTAL FREE ENERGY PREDICTED BY IDOCK:  -10.11 KCAL/MOL
REMARK 923 INTER-LIGAND FREE ENERGY PREDICTED BY IDOCK:   -8.37 KCAL/MOL
REMARK 924 INTRA-LIGAND FREE ENERGY PREDICTED BY IDOCK:   -1.74 KCAL/MOL
REMARK 927      BINDING AFFINITY PREDICTED BY RF-SCORE:    0.00 PKD
ROOT
HETATM    1  C   UNL     1      -9.343   9.208  65.999  1.00  0.00    -0.300 C  
HETATM    2  C   UNL     1      -8.286   8.746  66.999  1.00  0.00    -0.103 C  
ENDROOT
BRANCH   2   3
HETATM    3  C   UNL     1      -8.663   7.363  67.498  1.00  0.00    -0.124 C  
BRANCH   3   4
HETATM    4  C   UNL     1      -9.176   7.266  68.938  1.00  0.00    -0.141 C  
BRANCH   4   5
HETATM    5  S   UNL     1     -10.553   6.100  68.875  1.00  0.00    -0.310 S  
HETATM    6  O   UNL     1     -11.364   6.408  67.720  1.00  0.00    -0.266 OA 
HETATM    7  O   UNL     1      -9.995   4.787  69.089  1.00  0.00    -0.191 OA 
BRANCH   5   8
HETATM    8  N   UNL     1     -11.541   6.463  70.212  1.00  0.00    -0.412 N  
HETATM    9  H   UNL     1     -12.438   6.018  70.408  1.00  0.00     0.000 HD 
BRANCH   8  10
HETATM   10  C   UNL     1     -10.891   7.558  71.091  1.00  0.00    -0.238 C  
HETATM   11  C   UNL     1     -10.248   6.905  72.316  1.00  0.00    -0.186 C  
HETATM   12  O   UNL     1      -9.321   7.387  72.949  1.00  0.00    -0.144 OA 
HETATM   13  O   UNL     1     -10.815   5.715  72.638  1.00  0.00    -0.225 OA 
BRANCH  10  14
HETATM   14  C   UNL     1     -11.837   8.686  71.545  1.00  0.00    -0.366 C  
BRANCH  14  15
HETATM   15  C   UNL     1     -11.666   9.979  70.789  1.00  0.00    -0.437 A  
HETATM   16  C   UNL     1     -12.575  11.011  71.044  1.00  0.00    -0.512 A  
HETATM   17  C   UNL     1     -12.619  12.128  70.214  1.00  0.00    -0.040 A  
HETATM   18  C   UNL     1     -11.769  12.225  69.110  1.00  0.00    -0.323 A  
HETATM   19  C   UNL     1     -10.700  10.165  69.789  1.00  0.00    -0.317 A  
HETATM   20  C   UNL     1     -10.765  11.273  68.939  1.00  0.00    -0.246 A  
BRANCH  18  21
HETATM   21  O   UNL     1     -11.860  13.189  68.137  1.00  0.00    -0.336 OA 
BRANCH  21  22
HETATM   22  C   UNL     1     -11.408  12.753  66.853  1.00  0.00    -0.321 C  
BRANCH  22  23
HETATM   23  C   UNL     1     -12.223  13.383  65.737  1.00  0.00    -0.507 C  
BRANCH  23  24
HETATM   24  C   UNL     1     -11.759  14.793  65.346  1.00  0.00    -0.289 C  
BRANCH  24  25
HETATM   25  C   UNL     1     -10.239  14.871  65.513  1.00  0.00    -0.401 C  
BRANCH  25  26
HETATM   26  C   UNL     1      -9.668  16.232  65.955  1.00  0.00    -0.370 C  
HETATM   27  C   UNL     1     -10.506  16.775  67.130  1.00  0.00    -0.299 C  
HETATM   28  C   UNL     1     -10.152  16.098  68.454  1.00  0.00    -0.236 C  
HETATM   29  N   UNL     1      -8.740  16.305  68.762  1.00  0.00    -0.232 NA 
HETATM   30  H   UNL     1      -8.506  15.968  69.696  1.00  0.00     0.000 HD 
HETATM   31  C   UNL     1      -7.885  15.701  67.741  1.00  0.00    -0.143 C  
HETATM   32  C   UNL     1      -8.179  16.236  66.337  1.00  0.00    -0.354 C  
ENDBRANCH  25  26
ENDBRANCH  24  25
ENDBRANCH  23  24
ENDBRANCH  22  23
ENDBRANCH  21  22
ENDBRANCH  18  21
ENDBRANCH  14  15
ENDBRANCH  10  14
ENDBRANCH   8  10
ENDBRANCH   5   8
ENDBRANCH   4   5
ENDBRANCH   3   4
ENDBRANCH   2   3
TORSDOF 13
ENDMDL
MODEL      137
REMARK 921   NORMALIZED FREE ENERGY PREDICTED BY IDOCK:   -4.30 KCAL/MOL
REMARK 922        TOTAL FREE ENERGY PREDICTED BY IDOCK:  -10.11 KCAL/MOL
REMARK 923 INTER-LIGAND FREE ENERGY PREDICTED BY IDOCK:  -10.12 KCAL/MOL
REMARK 924 INTRA-LIGAND FREE ENERGY PREDICTED BY IDOCK:    0.01 KCAL/MOL
REMARK 927      BINDING AFFINITY PREDICTED BY RF-SCORE:    0.00 PKD
ROOT
HETATM    1  C   UNL     1      -8.018  13.202  67.870  1.00  0.00    -0.158 C  
HETATM    2  C   UNL     1      -8.901  14.446  67.812  1.00  0.00    -0.186 C  
ENDROOT
BRANCH   2   3
HETATM    3  C   UNL     1      -8.710  15.113  66.462  1.00  0.00    -0.280 C  
BRANCH   3   4
HETATM    4  C   UNL     1      -9.619  16.306  66.149  1.00  0.00    -0.331 C  
BRANCH   4   5
HETATM    5  S   UNL     1     -11.000  15.617  65.212  1.00  0.00    -0.338 S  
HETATM    6  O   UNL     1     -12.016  15.182  66.141  1.00  0.00    -0.033 OA 
HETATM    7  O   UNL     1     -11.287  16.550  64.149  1.00  0.00    -1.060 OA 
BRANCH   5   8
HETATM    8  N   UNL     1     -10.419  14.187  64.496  1.00  0.00    -0.577 N  
HETATM    9  H   UNL     1      -9.577  14.126  63.922  1.00  0.00     0.000 HD 
BRANCH   8  10
HETATM   10  C   UNL     1     -11.341  12.992  64.833  1.00  0.00    -0.303 C  
HETATM   11  C   UNL     1     -12.342  12.790  63.695  1.00  0.00    -0.463 C  
HETATM   12  O   UNL     1     -12.890  11.730  63.436  1.00  0.00    -0.632 OA 
HETATM   13  O   UNL     1     -12.566  13.924  62.983  1.00  0.00    -0.694 OA 
BRANCH  10  14
HETATM   14  C   UNL     1     -12.097  13.099  66.171  1.00  0.00    -0.479 C  
BRANCH  14  15
HETATM   15  C   UNL     1     -11.662  12.098  67.211  1.00  0.00    -0.369 A  
HETATM   16  C   UNL     1     -11.870  12.420  68.557  1.00  0.00    -0.352 A  
HETATM   17  C   UNL     1     -11.277  11.657  69.559  1.00  0.00    -0.282 A  
HETATM   18  C   UNL     1     -10.457  10.574  69.236  1.00  0.00    -0.235 A  
HETATM   19  C   UNL     1     -10.986  10.909  66.900  1.00  0.00    -0.286 A  
HETATM   20  C   UNL     1     -10.368  10.162  67.907  1.00  0.00    -0.234 A  
BRANCH  18  21
HETATM   21  O   UNL     1      -9.689   9.879  70.137  1.00  0.00    -0.247 OA 
BRANCH  21  22
HETATM   22  C   UNL     1     -10.300   8.674  70.603  1.00  0.00    -0.202 C  
BRANCH  22  23
HETATM   23  C   UNL     1     -11.560   8.966  71.399  1.00  0.00    -0.382 C  
BRANCH  23  24
HETATM   24  C   UNL     1     -12.281   7.708  71.906  1.00  0.00    -0.336 C  
BRANCH  24  25
HETATM   25  C   UNL     1     -11.445   6.481  71.532  1.00  0.00    -0.351 C  
BRANCH  25  26
HETATM   26  C   UNL     1     -10.836   5.685  72.702  1.00  0.00    -0.301 C  
HETATM   27  C   UNL     1      -9.645   4.856  72.185  1.00  0.00    -0.196 C  
HETATM   28  C   UNL     1      -8.388   5.704  71.994  1.00  0.00    -0.122 C  
HETATM   29  N   UNL     1      -8.003   6.322  73.259  1.00  0.00    -0.105 NA 
HETATM   30  H   UNL     1      -7.102   6.795  73.187  1.00  0.00     0.000 HD 
HETATM   31  C   UNL     1      -9.048   7.223  73.744  1.00  0.00    -0.224 C  
HETATM   32  C   UNL     1     -10.396   6.520  73.916  1.00  0.00    -0.356 C  
ENDBRANCH  25  26
ENDBRANCH  24  25
ENDBRANCH  23  24
ENDBRANCH  22  23
ENDBRANCH  21  22
ENDBRANCH  18  21
ENDBRANCH  14  15
ENDBRANCH  10  14
ENDBRANCH   8  10
ENDBRANCH   5   8
ENDBRANCH   4   5
ENDBRANCH   3   4
ENDBRANCH   2   3
TORSDOF 13
ENDMDL
MODEL      138
REMARK 921   NORMALIZED FREE ENERGY PREDICTED BY IDOCK:   -4.29 KCAL/MOL
REMARK 922        TOTAL FREE ENERGY PREDICTED BY IDOCK:  -10.10 KCAL/MOL
REMARK 923 INTER-LIGAND FREE ENERGY PREDICTED BY IDOCK:   -7.80 KCAL/MOL
REMARK 924 INTRA-LIGAND FREE ENERGY PREDICTED BY IDOCK:   -2.29 KCAL/MOL
REMARK 927      BINDING AFFINITY PREDICTED BY RF-SCORE:    0.00 PKD
ROOT
HETATM    1  C   UNL     1      -8.217  10.373  69.247  1.00  0.00    -0.163 C  
HETATM    2  C   UNL     1      -8.219   9.248  70.279  1.00  0.00    -0.187 C  
ENDROOT
BRANCH   2   3
HETATM    3  C   UNL     1      -9.603   8.623  70.311  1.00  0.00    -0.186 C  
BRANCH   3   4
HETATM    4  C   UNL     1      -9.830   7.503  71.331  1.00  0.00    -0.177 C  
BRANCH   4   5
HETATM    5  S   UNL     1     -10.467   6.110  70.374  1.00  0.00    -0.249 S  
HETATM    6  O   UNL     1     -10.620   4.977  71.256  1.00  0.00    -0.179 OA 
HETATM    7  O   UNL     1     -11.563   6.617  69.584  1.00  0.00    -0.324 OA 
BRANCH   5   8
HETATM    8  N   UNL     1      -9.224   5.667  69.300  1.00  0.00    -0.115 N  
HETATM    9  H   UNL     1      -8.351   5.216  69.578  1.00  0.00     0.000 HD 
BRANCH   8  10
HETATM   10  C   UNL     1      -9.597   6.039  67.846  1.00  0.00    -0.116 C  
HETATM   11  C   UNL     1      -9.941   4.766  67.072  1.00  0.00    -0.204 C  
HETATM   12  O   UNL     1     -10.666   4.729  66.089  1.00  0.00    -0.308 OA 
HETATM   13  O   UNL     1      -9.355   3.658  67.592  1.00  0.00    -0.173 OA 
BRANCH  10  14
HETATM   14  C   UNL     1      -8.530   6.839  67.075  1.00  0.00    -0.114 C  
BRANCH  14  15
HETATM   15  C   UNL     1      -9.081   7.980  66.258  1.00  0.00    -0.232 A  
HETATM   16  C   UNL     1      -8.430   8.303  65.062  1.00  0.00    -0.141 A  
HETATM   17  C   UNL     1      -8.738   9.485  64.394  1.00  0.00    -0.235 A  
HETATM   18  C   UNL     1      -9.686  10.369  64.915  1.00  0.00    -0.309 A  
HETATM   19  C   UNL     1     -10.152   8.782  66.679  1.00  0.00    -0.358 A  
HETATM   20  C   UNL     1     -10.439   9.982  66.022  1.00  0.00    -0.145 A  
BRANCH  18  21
HETATM   21  O   UNL     1      -9.924  11.631  64.433  1.00  0.00    -0.251 OA 
BRANCH  21  22
HETATM   22  C   UNL     1     -11.172  11.758  63.749  1.00  0.00    -0.436 C  
BRANCH  22  23
HETATM   23  C   UNL     1     -12.191  12.505  64.592  1.00  0.00    -0.524 C  
BRANCH  23  24
HETATM   24  C   UNL     1     -12.073  14.033  64.503  1.00  0.00    -0.484 C  
BRANCH  24  25
HETATM   25  C   UNL     1     -11.455  14.553  65.804  1.00  0.00    -0.342 C  
BRANCH  25  26
HETATM   26  C   UNL     1     -11.214  13.510  66.912  1.00  0.00    -0.329 C  
HETATM   27  C   UNL     1      -9.711  13.468  67.250  1.00  0.00    -0.236 C  
HETATM   28  C   UNL     1      -9.285  14.637  68.138  1.00  0.00    -0.192 C  
HETATM   29  N   UNL     1     -10.038  14.618  69.388  1.00  0.00    -0.407 NA 
HETATM   30  H   UNL     1      -9.688  15.315  70.047  1.00  0.00     0.000 HD 
HETATM   31  C   UNL     1     -11.470  14.779  69.142  1.00  0.00    -0.299 C  
HETATM   32  C   UNL     1     -12.029  13.709  68.201  1.00  0.00    -0.390 C  
ENDBRANCH  25  26
ENDBRANCH  24  25
ENDBRANCH  23  24
ENDBRANCH  22  23
ENDBRANCH  21  22
ENDBRANCH  18  21
ENDBRANCH  14  15
ENDBRANCH  10  14
ENDBRANCH   8  10
ENDBRANCH   5   8
ENDBRANCH   4   5
ENDBRANCH   3   4
ENDBRANCH   2   3
TORSDOF 13
ENDMDL
MODEL      139
REMARK 921   NORMALIZED FREE ENERGY PREDICTED BY IDOCK:   -4.29 KCAL/MOL
REMARK 922        TOTAL FREE ENERGY PREDICTED BY IDOCK:  -10.09 KCAL/MOL
REMARK 923 INTER-LIGAND FREE ENERGY PREDICTED BY IDOCK:   -8.71 KCAL/MOL
REMARK 924 INTRA-LIGAND FREE ENERGY PREDICTED BY IDOCK:   -1.38 KCAL/MOL
REMARK 927      BINDING AFFINITY PREDICTED BY RF-SCORE:    0.00 PKD
ROOT
HETATM    1  C   UNL     1     -12.256  11.756  63.850  1.00  0.00    -0.403 C  
HETATM    2  C   UNL     1     -11.008  11.219  64.547  1.00  0.00    -0.301 C  
ENDROOT
BRANCH   2   3
HETATM    3  C   UNL     1     -10.400  12.334  65.378  1.00  0.00    -0.298 C  
BRANCH   3   4
HETATM    4  C   UNL     1     -10.092  13.646  64.650  1.00  0.00    -0.197 C  
BRANCH   4   5
HETATM    5  S   UNL     1     -10.970  14.922  65.579  1.00  0.00    -0.369 S  
HETATM    6  O   UNL     1     -10.579  16.215  65.068  1.00  0.00    -0.588 OA 
HETATM    7  O   UNL     1     -12.352  14.512  65.642  1.00  0.00    -0.340 OA 
BRANCH   5   8
HETATM    8  N   UNL     1     -10.346  14.868  67.161  1.00  0.00    -0.257 N  
HETATM    9  H   UNL     1      -9.501  14.366  67.434  1.00  0.00     0.000 HD 
BRANCH   8  10
HETATM   10  C   UNL     1     -11.236  15.685  68.128  1.00  0.00    -0.345 C  
HETATM   11  C   UNL     1     -10.407  16.104  69.343  1.00  0.00    -0.277 C  
HETATM   12  O   UNL     1     -10.650  17.075  70.044  1.00  0.00    -0.124 OA 
HETATM   13  O   UNL     1      -9.354  15.280  69.572  1.00  0.00    -0.240 OA 
BRANCH  10  14
HETATM   14  C   UNL     1     -12.520  14.977  68.600  1.00  0.00     0.216 C  
BRANCH  14  15
HETATM   15  C   UNL     1     -12.277  13.725  69.404  1.00  0.00    -0.325 A  
HETATM   16  C   UNL     1     -11.783  12.601  68.734  1.00  0.00    -0.364 A  
HETATM   17  C   UNL     1     -11.769  11.359  69.363  1.00  0.00    -0.406 A  
HETATM   18  C   UNL     1     -12.261  11.216  70.662  1.00  0.00    -0.397 A  
HETATM   19  C   UNL     1     -12.604  13.608  70.764  1.00  0.00    -0.397 A  
HETATM   20  C   UNL     1     -12.616  12.355  71.384  1.00  0.00    -0.299 A  
BRANCH  18  21
HETATM   21  O   UNL     1     -12.457  10.014  71.295  1.00  0.00    -0.331 OA 
BRANCH  21  22
HETATM   22  C   UNL     1     -11.310   9.163  71.279  1.00  0.00    -0.336 C  
BRANCH  22  23
HETATM   23  C   UNL     1     -11.705   7.707  71.095  1.00  0.00    -0.311 C  
BRANCH  23  24
HETATM   24  C   UNL     1     -10.835   6.949  70.083  1.00  0.00    -0.300 C  
BRANCH  24  25
HETATM   25  C   UNL     1     -10.245   7.958  69.093  1.00  0.00    -0.219 C  
BRANCH  25  26
HETATM   26  C   UNL     1     -10.740   7.858  67.638  1.00  0.00    -0.215 C  
HETATM   27  C   UNL     1      -9.605   8.287  66.687  1.00  0.00    -0.299 C  
HETATM   28  C   UNL     1      -8.562   7.187  66.498  1.00  0.00    -0.129 C  
HETATM   29  N   UNL     1      -9.189   5.988  65.953  1.00  0.00    -0.301 NA 
HETATM   30  H   UNL     1      -8.496   5.281  65.705  1.00  0.00     0.000 HD 
HETATM   31  C   UNL     1     -10.195   5.457  66.871  1.00  0.00    -0.240 C  
HETATM   32  C   UNL     1     -11.279   6.483  67.211  1.00  0.00    -0.314 C  
ENDBRANCH  25  26
ENDBRANCH  24  25
ENDBRANCH  23  24
ENDBRANCH  22  23
ENDBRANCH  21  22
ENDBRANCH  18  21
ENDBRANCH  14  15
ENDBRANCH  10  14
ENDBRANCH   8  10
ENDBRANCH   5   8
ENDBRANCH   4   5
ENDBRANCH   3   4
ENDBRANCH   2   3
TORSDOF 13
ENDMDL
MODEL      140
REMARK 921   NORMALIZED FREE ENERGY PREDICTED BY IDOCK:   -4.28 KCAL/MOL
REMARK 922        TOTAL FREE ENERGY PREDICTED BY IDOCK:  -10.08 KCAL/MOL
REMARK 923 INTER-LIGAND FREE ENERGY PREDICTED BY IDOCK:   -8.30 KCAL/MOL
REMARK 924 INTRA-LIGAND FREE ENERGY PREDICTED BY IDOCK:   -1.77 KCAL/MOL
REMARK 927      BINDING AFFINITY PREDICTED BY RF-SCORE:    0.00 PKD
ROOT
HETATM    1  C   UNL     1      -8.310  11.177  68.109  1.00  0.00    -0.136 C  
HETATM    2  C   UNL     1      -7.353  11.078  69.295  1.00  0.00    -0.113 C  
ENDROOT
BRANCH   2   3
HETATM    3  C   UNL     1      -7.244   9.620  69.708  1.00  0.00    -0.094 C  
BRANCH   3   4
HETATM    4  C   UNL     1      -8.354   9.076  70.612  1.00  0.00    -0.186 C  
BRANCH   4   5
HETATM    5  S   UNL     1      -8.922   7.563  69.807  1.00  0.00    -0.140 S  
HETATM    6  O   UNL     1      -8.847   7.746  68.376  1.00  0.00    -0.131 OA 
HETATM    7  O   UNL     1      -8.261   6.466  70.472  1.00  0.00    -0.115 OA 
BRANCH   5   8
HETATM    8  N   UNL     1     -10.585   7.442  70.147  1.00  0.00    -0.225 N  
HETATM    9  H   UNL     1     -11.269   6.992  69.539  1.00  0.00     0.000 HD 
BRANCH   8  10
HETATM   10  C   UNL     1     -10.916   8.107  71.504  1.00  0.00    -0.243 C  
HETATM   11  C   UNL     1     -10.869   7.050  72.608  1.00  0.00    -0.270 C  
HETATM   12  O   UNL     1     -10.651   7.290  73.786  1.00  0.00    -0.364 OA 
HETATM   13  O   UNL     1     -11.095   5.794  72.145  1.00  0.00    -0.255 OA 
BRANCH  10  14
HETATM   14  C   UNL     1     -12.261   8.854  71.562  1.00  0.00    -0.388 C  
BRANCH  14  15
HETATM   15  C   UNL     1     -12.168  10.326  71.249  1.00  0.00    -0.496 A  
HETATM   16  C   UNL     1     -13.006  11.199  71.950  1.00  0.00    -0.477 A  
HETATM   17  C   UNL     1     -13.139  12.522  71.540  1.00  0.00    -0.373 A  
HETATM   18  C   UNL     1     -12.453  12.991  70.418  1.00  0.00    -0.194 A  
HETATM   19  C   UNL     1     -11.350  10.846  70.235  1.00  0.00    -0.342 A  
HETATM   20  C   UNL     1     -11.507  12.168  69.807  1.00  0.00    -0.261 A  
BRANCH  18  21
HETATM   21  O   UNL     1     -12.657  14.215  69.832  1.00  0.00    -0.311 OA 
BRANCH  21  22
HETATM   22  C   UNL     1     -11.998  14.366  68.573  1.00  0.00    -0.298 C  
BRANCH  22  23
HETATM   23  C   UNL     1     -10.612  14.964  68.743  1.00  0.00    -0.247 C  
BRANCH  23  24
HETATM   24  C   UNL     1      -9.693  14.760  67.531  1.00  0.00    -0.213 C  
BRANCH  24  25
HETATM   25  C   UNL     1     -10.352  13.755  66.581  1.00  0.00    -0.279 C  
BRANCH  25  26
HETATM   26  C   UNL     1     -10.238  14.061  65.076  1.00  0.00    -0.395 C  
HETATM   27  C   UNL     1     -10.160  12.736  64.294  1.00  0.00    -0.277 C  
HETATM   28  C   UNL     1     -11.527  12.071  64.144  1.00  0.00    -0.383 C  
HETATM   29  N   UNL     1     -12.445  12.963  63.444  1.00  0.00    -0.725 NA 
HETATM   30  H   UNL     1     -13.327  12.498  63.224  1.00  0.00     0.000 HD 
HETATM   31  C   UNL     1     -12.660  14.196  64.200  1.00  0.00    -0.069 C  
HETATM   32  C   UNL     1     -11.355  14.941  64.490  1.00  0.00    -0.306 C  
ENDBRANCH  25  26
ENDBRANCH  24  25
ENDBRANCH  23  24
ENDBRANCH  22  23
ENDBRANCH  21  22
ENDBRANCH  18  21
ENDBRANCH  14  15
ENDBRANCH  10  14
ENDBRANCH   8  10
ENDBRANCH   5   8
ENDBRANCH   4   5
ENDBRANCH   3   4
ENDBRANCH   2   3
TORSDOF 13
ENDMDL
MODEL      141
REMARK 921   NORMALIZED FREE ENERGY PREDICTED BY IDOCK:   -4.28 KCAL/MOL
REMARK 922        TOTAL FREE ENERGY PREDICTED BY IDOCK:  -10.07 KCAL/MOL
REMARK 923 INTER-LIGAND FREE ENERGY PREDICTED BY IDOCK:   -8.51 KCAL/MOL
REMARK 924 INTRA-LIGAND FREE ENERGY PREDICTED BY IDOCK:   -1.56 KCAL/MOL
REMARK 927      BINDING AFFINITY PREDICTED BY RF-SCORE:    0.00 PKD
ROOT
HETATM    1  C   UNL     1     -12.458   8.583  72.269  1.00  0.00    -0.448 C  
HETATM    2  C   UNL     1     -11.174   9.153  71.670  1.00  0.00    -0.447 C  
ENDROOT
BRANCH   2   3
HETATM    3  C   UNL     1      -9.998   8.345  72.189  1.00  0.00    -0.376 C  
BRANCH   3   4
HETATM    4  C   UNL     1      -8.867   8.059  71.197  1.00  0.00    -0.140 C  
BRANCH   4   5
HETATM    5  S   UNL     1      -8.907   6.273  70.932  1.00  0.00    -0.136 S  
HETATM    6  O   UNL     1      -7.859   5.667  71.720  1.00  0.00    -0.105 OA 
HETATM    7  O   UNL     1     -10.286   5.867  71.053  1.00  0.00    -0.205 OA 
BRANCH   5   8
HETATM    8  N   UNL     1      -8.439   6.025  69.315  1.00  0.00    -0.114 N  
HETATM    9  H   UNL     1      -7.641   5.459  69.023  1.00  0.00     0.000 HD 
BRANCH   8  10
HETATM   10  C   UNL     1      -9.388   6.772  68.349  1.00  0.00    -0.124 C  
HETATM   11  C   UNL     1      -9.968   5.778  67.342  1.00  0.00    -0.150 C  
HETATM   12  O   UNL     1     -11.029   5.928  66.756  1.00  0.00    -0.299 OA 
HETATM   13  O   UNL     1      -9.178   4.691  67.160  1.00  0.00    -0.118 OA 
BRANCH  10  14
HETATM   14  C   UNL     1      -8.762   7.961  67.597  1.00  0.00    -0.126 C  
BRANCH  14  15
HETATM   15  C   UNL     1      -9.725   9.081  67.294  1.00  0.00    -0.232 A  
HETATM   16  C   UNL     1      -9.713   9.625  66.005  1.00  0.00    -0.331 A  
HETATM   17  C   UNL     1     -10.398  10.806  65.737  1.00  0.00    -0.295 A  
HETATM   18  C   UNL     1     -11.091  11.471  66.751  1.00  0.00    -0.302 A  
HETATM   19  C   UNL     1     -10.565   9.656  68.259  1.00  0.00    -0.268 A  
HETATM   20  C   UNL     1     -11.228  10.858  67.995  1.00  0.00    -0.378 A  
BRANCH  18  21
HETATM   21  O   UNL     1     -11.639  12.724  66.631  1.00  0.00    -0.330 OA 
BRANCH  21  22
HETATM   22  C   UNL     1     -12.415  12.900  65.444  1.00  0.00    -0.454 C  
BRANCH  22  23
HETATM   23  C   UNL     1     -12.348  14.334  64.947  1.00  0.00    -0.435 C  
BRANCH  23  24
HETATM   24  C   UNL     1     -10.922  14.832  64.675  1.00  0.00    -0.332 C  
BRANCH  24  25
HETATM   25  C   UNL     1     -10.783  16.250  65.237  1.00  0.00    -0.349 C  
BRANCH  25  26
HETATM   26  C   UNL     1      -9.681  16.463  66.291  1.00  0.00    -0.332 C  
HETATM   27  C   UNL     1      -9.457  17.974  66.492  1.00  0.00    -0.306 C  
HETATM   28  C   UNL     1     -10.537  18.608  67.367  1.00  0.00    -0.441 C  
HETATM   29  N   UNL     1     -10.560  17.969  68.679  1.00  0.00    -0.350 NA 
HETATM   30  H   UNL     1     -11.188  18.453  69.321  1.00  0.00     0.000 HD 
HETATM   31  C   UNL     1     -10.891  16.549  68.567  1.00  0.00    -0.349 C  
HETATM   32  C   UNL     1      -9.925  15.791  67.653  1.00  0.00    -0.239 C  
ENDBRANCH  25  26
ENDBRANCH  24  25
ENDBRANCH  23  24
ENDBRANCH  22  23
ENDBRANCH  21  22
ENDBRANCH  18  21
ENDBRANCH  14  15
ENDBRANCH  10  14
ENDBRANCH   8  10
ENDBRANCH   5   8
ENDBRANCH   4   5
ENDBRANCH   3   4
ENDBRANCH   2   3
TORSDOF 13
ENDMDL
MODEL      142
REMARK 921   NORMALIZED FREE ENERGY PREDICTED BY IDOCK:   -4.25 KCAL/MOL
REMARK 922        TOTAL FREE ENERGY PREDICTED BY IDOCK:  -10.03 KCAL/MOL
REMARK 923 INTER-LIGAND FREE ENERGY PREDICTED BY IDOCK:   -8.32 KCAL/MOL
REMARK 924 INTRA-LIGAND FREE ENERGY PREDICTED BY IDOCK:   -1.71 KCAL/MOL
REMARK 927      BINDING AFFINITY PREDICTED BY RF-SCORE:    0.00 PKD
ROOT
HETATM    1  C   UNL     1     -10.735   6.086  66.867  1.00  0.00    -0.407 C  
HETATM    2  C   UNL     1     -10.719   7.528  67.368  1.00  0.00    -0.331 C  
ENDROOT
BRANCH   2   3
HETATM    3  C   UNL     1      -9.696   8.309  66.562  1.00  0.00    -0.323 C  
BRANCH   3   4
HETATM    4  C   UNL     1     -10.181   9.607  65.907  1.00  0.00    -0.149 C  
BRANCH   4   5
HETATM    5  S   UNL     1      -8.703  10.629  65.729  1.00  0.00    -0.186 S  
HETATM    6  O   UNL     1      -7.766  10.270  66.768  1.00  0.00    -0.106 OA 
HETATM    7  O   UNL     1      -8.343  10.597  64.331  1.00  0.00    -0.136 OA 
BRANCH   5   8
HETATM    8  N   UNL     1      -9.181  12.219  66.099  1.00  0.00    -0.381 N  
HETATM    9  H   UNL     1      -8.572  13.036  66.043  1.00  0.00     0.000 HD 
BRANCH   8  10
HETATM   10  C   UNL     1     -10.665  12.258  66.533  1.00  0.00    -0.246 C  
HETATM   11  C   UNL     1     -11.511  12.814  65.386  1.00  0.00    -0.327 C  
HETATM   12  O   UNL     1     -12.699  12.579  65.227  1.00  0.00    -0.654 OA 
HETATM   13  O   UNL     1     -10.801  13.607  64.545  1.00  0.00    -0.390 OA 
BRANCH  10  14
HETATM   14  C   UNL     1     -10.957  13.051  67.820  1.00  0.00    -0.273 C  
BRANCH  14  15
HETATM   15  C   UNL     1     -11.209  12.193  69.034  1.00  0.00    -0.314 A  
HETATM   16  C   UNL     1     -10.552  10.961  69.113  1.00  0.00    -0.253 A  
HETATM   17  C   UNL     1     -10.925  10.028  70.076  1.00  0.00    -0.352 A  
HETATM   18  C   UNL     1     -11.968  10.303  70.964  1.00  0.00    -0.385 A  
HETATM   19  C   UNL     1     -12.131  12.530  70.036  1.00  0.00    -0.337 A  
HETATM   20  C   UNL     1     -12.524  11.581  70.984  1.00  0.00    -0.458 A  
BRANCH  18  21
HETATM   21  O   UNL     1     -12.526   9.387  71.820  1.00  0.00    -0.342 OA 
BRANCH  21  22
HETATM   22  C   UNL     1     -12.054   8.053  71.622  1.00  0.00    -0.303 C  
BRANCH  22  23
HETATM   23  C   UNL     1     -11.480   7.474  72.904  1.00  0.00    -0.311 C  
BRANCH  23  24
HETATM   24  C   UNL     1      -9.970   7.698  73.067  1.00  0.00    -0.343 C  
BRANCH  24  25
HETATM   25  C   UNL     1      -9.254   7.113  71.846  1.00  0.00    -0.149 C  
BRANCH  25  26
HETATM   26  C   UNL     1      -8.909   5.613  71.909  1.00  0.00    -0.137 C  
HETATM   27  C   UNL     1     -10.079   4.799  71.323  1.00  0.00    -0.258 C  
HETATM   28  C   UNL     1     -10.090   4.822  69.795  1.00  0.00    -0.219 C  
HETATM   29  N   UNL     1      -8.843   4.272  69.275  1.00  0.00    -0.088 NA 
HETATM   30  H   UNL     1      -8.874   4.164  68.261  1.00  0.00     0.000 HD 
HETATM   31  C   UNL     1      -7.697   5.077  69.697  1.00  0.00    -0.064 C  
HETATM   32  C   UNL     1      -7.597   5.204  71.219  1.00  0.00    -0.095 C  
ENDBRANCH  25  26
ENDBRANCH  24  25
ENDBRANCH  23  24
ENDBRANCH  22  23
ENDBRANCH  21  22
ENDBRANCH  18  21
ENDBRANCH  14  15
ENDBRANCH  10  14
ENDBRANCH   8  10
ENDBRANCH   5   8
ENDBRANCH   4   5
ENDBRANCH   3   4
ENDBRANCH   2   3
TORSDOF 13
ENDMDL
MODEL      143
REMARK 921   NORMALIZED FREE ENERGY PREDICTED BY IDOCK:   -4.25 KCAL/MOL
REMARK 922        TOTAL FREE ENERGY PREDICTED BY IDOCK:  -10.03 KCAL/MOL
REMARK 923 INTER-LIGAND FREE ENERGY PREDICTED BY IDOCK:   -8.30 KCAL/MOL
REMARK 924 INTRA-LIGAND FREE ENERGY PREDICTED BY IDOCK:   -1.72 KCAL/MOL
REMARK 927      BINDING AFFINITY PREDICTED BY RF-SCORE:    0.00 PKD
ROOT
HETATM    1  C   UNL     1      -7.969   9.585  70.412  1.00  0.00    -0.200 C  
HETATM    2  C   UNL     1      -8.691   8.882  71.559  1.00  0.00    -0.232 C  
ENDROOT
BRANCH   2   3
HETATM    3  C   UNL     1     -10.015   8.348  71.042  1.00  0.00    -0.235 C  
BRANCH   3   4
HETATM    4  C   UNL     1     -10.451   6.973  71.556  1.00  0.00    -0.204 C  
BRANCH   4   5
HETATM    5  S   UNL     1     -10.401   5.888  70.113  1.00  0.00    -0.265 S  
HETATM    6  O   UNL     1     -10.081   4.550  70.552  1.00  0.00    -0.222 OA 
HETATM    7  O   UNL     1     -11.583   6.176  69.337  1.00  0.00    -0.372 OA 
BRANCH   5   8
HETATM    8  N   UNL     1      -9.054   6.383  69.197  1.00  0.00    -0.132 N  
HETATM    9  H   UNL     1      -8.100   6.438  69.554  1.00  0.00     0.000 HD 
BRANCH   8  10
HETATM   10  C   UNL     1      -9.475   6.736  67.751  1.00  0.00    -0.118 C  
HETATM   11  C   UNL     1      -9.251   5.522  66.850  1.00  0.00    -0.119 C  
HETATM   12  O   UNL     1      -9.855   5.313  65.808  1.00  0.00    -0.130 OA 
HETATM   13  O   UNL     1      -8.300   4.679  67.327  1.00  0.00    -0.105 OA 
BRANCH  10  14
HETATM   14  C   UNL     1      -8.776   7.966  67.143  1.00  0.00    -0.133 C  
BRANCH  14  15
HETATM   15  C   UNL     1      -9.704   9.108  66.815  1.00  0.00    -0.271 A  
HETATM   16  C   UNL     1      -9.671   9.626  65.516  1.00  0.00    -0.372 A  
HETATM   17  C   UNL     1     -10.319  10.823  65.223  1.00  0.00    -0.327 A  
HETATM   18  C   UNL     1     -10.993  11.529  66.222  1.00  0.00    -0.275 A  
HETATM   19  C   UNL     1     -10.528   9.728  67.766  1.00  0.00    -0.297 A  
HETATM   20  C   UNL     1     -11.153  10.944  67.477  1.00  0.00    -0.375 A  
BRANCH  18  21
HETATM   21  O   UNL     1     -11.502  12.795  66.076  1.00  0.00    -0.315 OA 
BRANCH  21  22
HETATM   22  C   UNL     1     -11.833  13.428  67.314  1.00  0.00    -0.376 C  
BRANCH  22  23
HETATM   23  C   UNL     1     -11.350  14.868  67.345  1.00  0.00    -0.354 C  
BRANCH  23  24
HETATM   24  C   UNL     1     -10.405  15.232  66.191  1.00  0.00    -0.314 C  
BRANCH  24  25
HETATM   25  C   UNL     1      -9.609  16.480  66.586  1.00  0.00    -0.275 C  
BRANCH  25  26
HETATM   26  C   UNL     1     -10.427  17.676  67.107  1.00  0.00    -0.319 C  
HETATM   27  C   UNL     1      -9.894  18.090  68.492  1.00  0.00    -0.383 C  
HETATM   28  C   UNL     1      -8.603  18.902  68.397  1.00  0.00    -0.346 C  
HETATM   29  N   UNL     1      -8.828  20.111  67.612  1.00  0.00    -0.327 NA 
HETATM   30  H   UNL     1      -8.016  20.729  67.634  1.00  0.00     0.000 HD 
HETATM   31  C   UNL     1      -9.219  19.784  66.242  1.00  0.00    -0.388 C  
HETATM   32  C   UNL     1     -10.470  18.905  66.182  1.00  0.00    -0.521 C  
ENDBRANCH  25  26
ENDBRANCH  24  25
ENDBRANCH  23  24
ENDBRANCH  22  23
ENDBRANCH  21  22
ENDBRANCH  18  21
ENDBRANCH  14  15
ENDBRANCH  10  14
ENDBRANCH   8  10
ENDBRANCH   5   8
ENDBRANCH   4   5
ENDBRANCH   3   4
ENDBRANCH   2   3
TORSDOF 13
ENDMDL
MODEL      144
REMARK 921   NORMALIZED FREE ENERGY PREDICTED BY IDOCK:   -4.25 KCAL/MOL
REMARK 922        TOTAL FREE ENERGY PREDICTED BY IDOCK:  -10.02 KCAL/MOL
REMARK 923 INTER-LIGAND FREE ENERGY PREDICTED BY IDOCK:   -8.11 KCAL/MOL
REMARK 924 INTRA-LIGAND FREE ENERGY PREDICTED BY IDOCK:   -1.91 KCAL/MOL
REMARK 927      BINDING AFFINITY PREDICTED BY RF-SCORE:    0.00 PKD
ROOT
HETATM    1  C   UNL     1     -10.743   6.549  66.956  1.00  0.00    -0.434 C  
HETATM    2  C   UNL     1     -10.853   7.317  68.271  1.00  0.00    -0.114 C  
ENDROOT
BRANCH   2   3
HETATM    3  C   UNL     1     -10.271   8.705  68.071  1.00  0.00    -0.261 C  
BRANCH   3   4
HETATM    4  C   UNL     1     -10.895   9.560  66.964  1.00  0.00    -0.055 C  
BRANCH   4   5
HETATM    5  S   UNL     1     -10.798  11.260  67.565  1.00  0.00    -0.262 S  
HETATM    6  O   UNL     1     -12.085  11.633  68.103  1.00  0.00    -0.577 OA 
HETATM    7  O   UNL     1      -9.587  11.356  68.346  1.00  0.00    -0.185 OA 
BRANCH   5   8
HETATM    8  N   UNL     1     -10.598  12.239  66.188  1.00  0.00    -0.243 N  
HETATM    9  H   UNL     1      -9.697  12.538  65.815  1.00  0.00     0.000 HD 
BRANCH   8  10
HETATM   10  C   UNL     1     -11.970  12.612  65.578  1.00  0.00    -0.456 C  
HETATM   11  C   UNL     1     -11.862  12.607  64.052  1.00  0.00    -0.431 C  
HETATM   12  O   UNL     1     -12.802  12.428  63.293  1.00  0.00    -0.696 OA 
HETATM   13  O   UNL     1     -10.596  12.823  63.613  1.00  0.00    -0.393 OA 
BRANCH  10  14
HETATM   14  C   UNL     1     -12.558  13.955  66.048  1.00  0.00    -0.467 C  
BRANCH  14  15
HETATM   15  C   UNL     1     -11.525  15.006  66.369  1.00  0.00    -0.225 A  
HETATM   16  C   UNL     1     -11.373  15.387  67.706  1.00  0.00    -0.308 A  
HETATM   17  C   UNL     1     -10.618  16.511  68.032  1.00  0.00    -0.328 A  
HETATM   18  C   UNL     1     -10.018  17.278  67.032  1.00  0.00    -0.289 A  
HETATM   19  C   UNL     1     -10.777  15.675  65.389  1.00  0.00    -0.424 A  
HETATM   20  C   UNL     1     -10.044  16.819  65.716  1.00  0.00    -0.276 A  
BRANCH  18  21
HETATM   21  O   UNL     1      -9.413  18.493  67.236  1.00  0.00    -0.281 OA 
BRANCH  21  22
HETATM   22  C   UNL     1      -7.988  18.448  67.147  1.00  0.00    -0.231 C  
BRANCH  22  23
HETATM   23  C   UNL     1      -7.338  19.215  68.285  1.00  0.00    -0.322 C  
BRANCH  23  24
HETATM   24  C   UNL     1      -6.311  18.397  69.081  1.00  0.00    -0.258 C  
BRANCH  24  25
HETATM   25  C   UNL     1      -6.822  16.958  69.205  1.00  0.00    -0.238 C  
BRANCH  25  26
HETATM   26  C   UNL     1      -6.015  15.879  68.459  1.00  0.00    -0.102 C  
HETATM   27  C   UNL     1      -5.680  14.733  69.433  1.00  0.00    -0.095 C  
HETATM   28  C   UNL     1      -6.872  13.805  69.666  1.00  0.00     0.049 C  
HETATM   29  N   UNL     1      -7.307  13.221  68.402  1.00  0.00    -0.105 NA 
HETATM   30  H   UNL     1      -8.022  12.506  68.545  1.00  0.00     0.000 HD 
HETATM   31  C   UNL     1      -7.758  14.255  67.471  1.00  0.00    -0.191 C  
HETATM   32  C   UNL     1      -6.680  15.306  67.196  1.00  0.00     0.090 C  
ENDBRANCH  25  26
ENDBRANCH  24  25
ENDBRANCH  23  24
ENDBRANCH  22  23
ENDBRANCH  21  22
ENDBRANCH  18  21
ENDBRANCH  14  15
ENDBRANCH  10  14
ENDBRANCH   8  10
ENDBRANCH   5   8
ENDBRANCH   4   5
ENDBRANCH   3   4
ENDBRANCH   2   3
TORSDOF 13
ENDMDL
MODEL      145
REMARK 921   NORMALIZED FREE ENERGY PREDICTED BY IDOCK:   -4.25 KCAL/MOL
REMARK 922        TOTAL FREE ENERGY PREDICTED BY IDOCK:  -10.02 KCAL/MOL
REMARK 923 INTER-LIGAND FREE ENERGY PREDICTED BY IDOCK:  -10.11 KCAL/MOL
REMARK 924 INTRA-LIGAND FREE ENERGY PREDICTED BY IDOCK:    0.09 KCAL/MOL
REMARK 927      BINDING AFFINITY PREDICTED BY RF-SCORE:    0.00 PKD
ROOT
HETATM    1  C   UNL     1     -12.205  15.419  70.080  1.00  0.00    -0.407 C  
HETATM    2  C   UNL     1     -10.913  16.227  69.973  1.00  0.00    -0.356 C  
ENDROOT
BRANCH   2   3
HETATM    3  C   UNL     1     -10.186  15.810  68.706  1.00  0.00    -0.217 C  
BRANCH   3   4
HETATM    4  C   UNL     1     -11.012  15.780  67.417  1.00  0.00    -0.279 C  
BRANCH   4   5
HETATM    5  S   UNL     1      -9.801  15.816  66.077  1.00  0.00    -0.364 S  
HETATM    6  O   UNL     1      -9.495  17.193  65.769  1.00  0.00    -0.525 OA 
HETATM    7  O   UNL     1      -8.773  14.863  66.421  1.00  0.00    -0.230 OA 
BRANCH   5   8
HETATM    8  N   UNL     1     -10.606  15.227  64.698  1.00  0.00    -0.568 N  
HETATM    9  H   UNL     1     -10.835  15.788  63.877  1.00  0.00     0.000 HD 
BRANCH   8  10
HETATM   10  C   UNL     1     -10.941  13.725  64.859  1.00  0.00    -0.375 C  
HETATM   11  C   UNL     1     -12.454  13.532  64.748  1.00  0.00    -0.355 C  
HETATM   12  O   UNL     1     -12.995  12.493  64.402  1.00  0.00    -0.748 OA 
HETATM   13  O   UNL     1     -13.153  14.648  65.076  1.00  0.00    -0.426 OA 
BRANCH  10  14
HETATM   14  C   UNL     1     -10.432  13.071  66.157  1.00  0.00    -0.289 C  
BRANCH  14  15
HETATM   15  C   UNL     1     -10.333  11.568  66.096  1.00  0.00    -0.287 A  
HETATM   16  C   UNL     1     -10.970  10.829  67.098  1.00  0.00    -0.324 A  
HETATM   17  C   UNL     1     -10.716   9.467  67.233  1.00  0.00    -0.258 A  
HETATM   18  C   UNL     1      -9.811   8.826  66.384  1.00  0.00    -0.282 A  
HETATM   19  C   UNL     1      -9.565  10.885  65.141  1.00  0.00    -0.291 A  
HETATM   20  C   UNL     1      -9.288   9.524  65.297  1.00  0.00    -0.317 A  
BRANCH  18  21
HETATM   21  O   UNL     1      -9.359   7.541  66.552  1.00  0.00    -0.172 OA 
BRANCH  21  22
HETATM   22  C   UNL     1      -9.243   7.146  67.920  1.00  0.00    -0.129 C  
BRANCH  22  23
HETATM   23  C   UNL     1     -10.253   6.068  68.272  1.00  0.00    -0.218 C  
BRANCH  23  24
HETATM   24  C   UNL     1     -10.417   5.836  69.780  1.00  0.00    -0.363 C  
BRANCH  24  25
HETATM   25  C   UNL     1     -11.705   6.522  70.244  1.00  0.00    -0.430 C  
BRANCH  25  26
HETATM   26  C   UNL     1     -11.668   7.176  71.637  1.00  0.00    -0.324 C  
HETATM   27  C   UNL     1     -10.567   8.253  71.663  1.00  0.00    -0.306 C  
HETATM   28  C   UNL     1     -11.004   9.544  70.972  1.00  0.00    -0.353 C  
HETATM   29  N   UNL     1     -12.191  10.086  71.627  1.00  0.00    -0.392 NA 
HETATM   30  H   UNL     1     -12.432  11.008  71.263  1.00  0.00     0.000 HD 
HETATM   31  C   UNL     1     -13.316   9.157  71.529  1.00  0.00    -0.355 C  
HETATM   32  C   UNL     1     -12.996   7.783  72.122  1.00  0.00    -0.166 C  
ENDBRANCH  25  26
ENDBRANCH  24  25
ENDBRANCH  23  24
ENDBRANCH  22  23
ENDBRANCH  21  22
ENDBRANCH  18  21
ENDBRANCH  14  15
ENDBRANCH  10  14
ENDBRANCH   8  10
ENDBRANCH   5   8
ENDBRANCH   4   5
ENDBRANCH   3   4
ENDBRANCH   2   3
TORSDOF 13
ENDMDL
MODEL      146
REMARK 921   NORMALIZED FREE ENERGY PREDICTED BY IDOCK:   -4.24 KCAL/MOL
REMARK 922        TOTAL FREE ENERGY PREDICTED BY IDOCK:  -10.01 KCAL/MOL
REMARK 923 INTER-LIGAND FREE ENERGY PREDICTED BY IDOCK:   -7.48 KCAL/MOL
REMARK 924 INTRA-LIGAND FREE ENERGY PREDICTED BY IDOCK:   -2.53 KCAL/MOL
REMARK 927      BINDING AFFINITY PREDICTED BY RF-SCORE:    0.00 PKD
ROOT
HETATM    1  C   UNL     1      -7.330   9.586  69.872  1.00  0.00    -0.103 C  
HETATM    2  C   UNL     1      -8.807   9.941  69.722  1.00  0.00    -0.229 C  
ENDROOT
BRANCH   2   3
HETATM    3  C   UNL     1      -9.633   8.889  70.442  1.00  0.00    -0.227 C  
BRANCH   3   4
HETATM    4  C   UNL     1     -11.150   8.948  70.240  1.00  0.00    -0.228 C  
BRANCH   4   5
HETATM    5  S   UNL     1     -11.846   7.952  71.576  1.00  0.00    -0.299 S  
HETATM    6  O   UNL     1     -12.276   8.836  72.634  1.00  0.00    -0.333 OA 
HETATM    7  O   UNL     1     -12.743   7.003  70.962  1.00  0.00    -0.367 OA 
BRANCH   5   8
HETATM    8  N   UNL     1     -10.546   7.076  72.238  1.00  0.00    -0.208 N  
HETATM    9  H   UNL     1      -9.746   7.495  72.713  1.00  0.00     0.000 HD 
BRANCH   8  10
HETATM   10  C   UNL     1     -10.743   5.557  72.021  1.00  0.00    -0.234 C  
HETATM   11  C   UNL     1     -11.037   4.890  73.365  1.00  0.00    -0.342 C  
HETATM   12  O   UNL     1     -11.648   3.840  73.497  1.00  0.00    -0.183 OA 
HETATM   13  O   UNL     1     -10.547   5.589  74.420  1.00  0.00    -0.252 OA 
BRANCH  10  14
HETATM   14  C   UNL     1      -9.572   4.832  71.331  1.00  0.00    -0.224 C  
BRANCH  14  15
HETATM   15  C   UNL     1      -9.324   5.268  69.909  1.00  0.00    -0.190 A  
HETATM   16  C   UNL     1      -8.004   5.523  69.524  1.00  0.00    -0.094 A  
HETATM   17  C   UNL     1      -7.738   6.154  68.312  1.00  0.00    -0.103 A  
HETATM   18  C   UNL     1      -8.782   6.555  67.475  1.00  0.00    -0.114 A  
HETATM   19  C   UNL     1     -10.354   5.512  68.988  1.00  0.00    -0.304 A  
HETATM   20  C   UNL     1     -10.086   6.172  67.786  1.00  0.00    -0.177 A  
BRANCH  18  21
HETATM   21  O   UNL     1      -8.631   7.339  66.359  1.00  0.00    -0.125 OA 
BRANCH  21  22
HETATM   22  C   UNL     1      -8.935   8.718  66.581  1.00  0.00    -0.139 C  
BRANCH  22  23
HETATM   23  C   UNL     1      -9.521   9.361  65.336  1.00  0.00    -0.322 C  
BRANCH  23  24
HETATM   24  C   UNL     1      -9.462  10.895  65.341  1.00  0.00    -0.254 C  
BRANCH  24  25
HETATM   25  C   UNL     1     -10.386  11.417  66.446  1.00  0.00    -0.284 C  
BRANCH  25  26
HETATM   26  C   UNL     1     -10.008  12.773  67.070  1.00  0.00    -0.231 C  
HETATM   27  C   UNL     1     -10.467  13.907  66.134  1.00  0.00    -0.297 C  
HETATM   28  C   UNL     1     -11.968  14.176  66.245  1.00  0.00    -0.429 C  
HETATM   29  N   UNL     1     -12.312  14.544  67.615  1.00  0.00    -0.585 NA 
HETATM   30  H   UNL     1     -13.284  14.845  67.690  1.00  0.00     0.000 HD 
HETATM   31  C   UNL     1     -12.012  13.454  68.543  1.00  0.00    -0.328 C  
HETATM   32  C   UNL     1     -10.544  13.024  68.489  1.00  0.00    -0.274 C  
ENDBRANCH  25  26
ENDBRANCH  24  25
ENDBRANCH  23  24
ENDBRANCH  22  23
ENDBRANCH  21  22
ENDBRANCH  18  21
ENDBRANCH  14  15
ENDBRANCH  10  14
ENDBRANCH   8  10
ENDBRANCH   5   8
ENDBRANCH   4   5
ENDBRANCH   3   4
ENDBRANCH   2   3
TORSDOF 13
ENDMDL
MODEL      147
REMARK 921   NORMALIZED FREE ENERGY PREDICTED BY IDOCK:   -4.23 KCAL/MOL
REMARK 922        TOTAL FREE ENERGY PREDICTED BY IDOCK:   -9.99 KCAL/MOL
REMARK 923 INTER-LIGAND FREE ENERGY PREDICTED BY IDOCK:   -8.75 KCAL/MOL
REMARK 924 INTRA-LIGAND FREE ENERGY PREDICTED BY IDOCK:   -1.24 KCAL/MOL
REMARK 927      BINDING AFFINITY PREDICTED BY RF-SCORE:    0.00 PKD
ROOT
HETATM    1  C   UNL     1      -8.652   3.751  64.807  1.00  0.00    -0.109 C  
HETATM    2  C   UNL     1      -9.133   5.085  65.373  1.00  0.00    -0.157 C  
ENDROOT
BRANCH   2   3
HETATM    3  C   UNL     1     -10.134   4.808  66.481  1.00  0.00    -0.286 C  
BRANCH   3   4
HETATM    4  C   UNL     1      -9.567   4.626  67.892  1.00  0.00    -0.157 C  
BRANCH   4   5
HETATM    5  S   UNL     1     -10.130   6.071  68.819  1.00  0.00    -0.185 S  
HETATM    6  O   UNL     1      -8.988   6.682  69.457  1.00  0.00    -0.138 OA 
HETATM    7  O   UNL     1     -11.002   6.813  67.941  1.00  0.00    -0.252 OA 
BRANCH   5   8
HETATM    8  N   UNL     1     -11.078   5.471  70.098  1.00  0.00    -0.155 N  
HETATM    9  H   UNL     1     -11.723   4.684  70.022  1.00  0.00     0.000 HD 
BRANCH   8  10
HETATM   10  C   UNL     1     -10.830   6.283  71.391  1.00  0.00    -0.261 C  
HETATM   11  C   UNL     1     -10.119   5.397  72.414  1.00  0.00    -0.182 C  
HETATM   12  O   UNL     1      -9.413   5.815  73.319  1.00  0.00    -0.142 OA 
HETATM   13  O   UNL     1     -10.348   4.074  72.215  1.00  0.00    -0.175 OA 
BRANCH  10  14
HETATM   14  C   UNL     1     -12.086   6.904  72.032  1.00  0.00    -0.331 C  
BRANCH  14  15
HETATM   15  C   UNL     1     -12.353   8.329  71.618  1.00  0.00    -0.349 A  
HETATM   16  C   UNL     1     -11.344   9.011  70.930  1.00  0.00    -0.351 A  
HETATM   17  C   UNL     1     -11.434  10.387  70.738  1.00  0.00    -0.422 A  
HETATM   18  C   UNL     1     -12.521  11.105  71.242  1.00  0.00    -0.360 A  
HETATM   19  C   UNL     1     -13.521   9.025  71.964  1.00  0.00    -0.498 A  
HETATM   20  C   UNL     1     -13.596  10.410  71.796  1.00  0.00    -0.246 A  
BRANCH  18  21
HETATM   21  O   UNL     1     -12.611  12.474  71.264  1.00  0.00    -0.345 OA 
BRANCH  21  22
HETATM   22  C   UNL     1     -13.296  12.987  72.408  1.00  0.00    -0.460 C  
BRANCH  22  23
HETATM   23  C   UNL     1     -13.355  14.504  72.383  1.00  0.00    -0.526 C  
BRANCH  23  24
HETATM   24  C   UNL     1     -11.984  15.179  72.241  1.00  0.00    -0.485 C  
BRANCH  24  25
HETATM   25  C   UNL     1     -11.898  15.828  70.857  1.00  0.00    -0.451 C  
BRANCH  25  26
HETATM   26  C   UNL     1     -10.593  15.595  70.072  1.00  0.00    -0.342 C  
HETATM   27  C   UNL     1     -10.682  14.248  69.329  1.00  0.00    -0.194 C  
HETATM   28  C   UNL     1     -11.530  14.341  68.061  1.00  0.00    -0.314 C  
HETATM   29  N   UNL     1     -10.964  15.331  67.150  1.00  0.00    -0.330 NA 
HETATM   30  H   UNL     1     -11.441  15.327  66.248  1.00  0.00     0.000 HD 
HETATM   31  C   UNL     1     -10.966  16.663  67.754  1.00  0.00    -0.234 C  
HETATM   32  C   UNL     1     -10.206  16.706  69.082  1.00  0.00    -0.309 C  
ENDBRANCH  25  26
ENDBRANCH  24  25
ENDBRANCH  23  24
ENDBRANCH  22  23
ENDBRANCH  21  22
ENDBRANCH  18  21
ENDBRANCH  14  15
ENDBRANCH  10  14
ENDBRANCH   8  10
ENDBRANCH   5   8
ENDBRANCH   4   5
ENDBRANCH   3   4
ENDBRANCH   2   3
TORSDOF 13
ENDMDL
MODEL      148
REMARK 921   NORMALIZED FREE ENERGY PREDICTED BY IDOCK:   -4.22 KCAL/MOL
REMARK 922        TOTAL FREE ENERGY PREDICTED BY IDOCK:   -9.97 KCAL/MOL
REMARK 923 INTER-LIGAND FREE ENERGY PREDICTED BY IDOCK:   -8.96 KCAL/MOL
REMARK 924 INTRA-LIGAND FREE ENERGY PREDICTED BY IDOCK:   -1.02 KCAL/MOL
REMARK 927      BINDING AFFINITY PREDICTED BY RF-SCORE:    0.00 PKD
ROOT
HETATM    1  C   UNL     1      -7.418   6.714  72.310  1.00  0.00    -0.094 C  
HETATM    2  C   UNL     1      -7.911   8.117  72.658  1.00  0.00    -0.199 C  
ENDROOT
BRANCH   2   3
HETATM    3  C   UNL     1      -9.409   8.056  72.903  1.00  0.00    -0.338 C  
BRANCH   3   4
HETATM    4  C   UNL     1     -10.169   6.906  72.236  1.00  0.00    -0.186 C  
BRANCH   4   5
HETATM    5  S   UNL     1     -11.573   7.683  71.407  1.00  0.00    -0.282 S  
HETATM    6  O   UNL     1     -12.148   6.732  70.485  1.00  0.00    -0.386 OA 
HETATM    7  O   UNL     1     -12.359   8.323  72.434  1.00  0.00    -0.353 OA 
BRANCH   5   8
HETATM    8  N   UNL     1     -10.920   8.908  70.423  1.00  0.00    -0.240 N  
HETATM    9  H   UNL     1     -11.022   9.908  70.598  1.00  0.00     0.000 HD 
BRANCH   8  10
HETATM   10  C   UNL     1     -10.152   8.298  69.226  1.00  0.00    -0.199 C  
HETATM   11  C   UNL     1      -8.714   8.819  69.233  1.00  0.00    -0.135 C  
HETATM   12  O   UNL     1      -7.766   8.236  68.729  1.00  0.00    -0.108 OA 
HETATM   13  O   UNL     1      -8.588  10.013  69.865  1.00  0.00    -0.194 OA 
BRANCH  10  14
HETATM   14  C   UNL     1     -10.783   8.544  67.843  1.00  0.00    -0.148 C  
BRANCH  14  15
HETATM   15  C   UNL     1     -10.768   9.986  67.402  1.00  0.00    -0.336 A  
HETATM   16  C   UNL     1     -11.512  10.906  68.149  1.00  0.00    -0.368 A  
HETATM   17  C   UNL     1     -11.733  12.190  67.658  1.00  0.00    -0.386 A  
HETATM   18  C   UNL     1     -11.231  12.570  66.412  1.00  0.00    -0.306 A  
HETATM   19  C   UNL     1     -10.122  10.429  66.239  1.00  0.00    -0.292 A  
HETATM   20  C   UNL     1     -10.369  11.708  65.735  1.00  0.00    -0.292 A  
BRANCH  18  21
HETATM   21  O   UNL     1     -11.547  13.740  65.767  1.00  0.00    -0.317 OA 
BRANCH  21  22
HETATM   22  C   UNL     1     -10.437  14.344  65.098  1.00  0.00    -0.415 C  
BRANCH  22  23
HETATM   23  C   UNL     1     -10.229  15.777  65.557  1.00  0.00    -0.407 C  
BRANCH  23  24
HETATM   24  C   UNL     1      -9.905  15.911  67.051  1.00  0.00    -0.236 C  
BRANCH  24  25
HETATM   25  C   UNL     1     -10.602  17.163  67.593  1.00  0.00    -0.343 C  
BRANCH  25  26
HETATM   26  C   UNL     1      -9.712  18.170  68.345  1.00  0.00    -0.363 C  
HETATM   27  C   UNL     1      -8.282  18.106  67.775  1.00  0.00    -0.245 C  
HETATM   28  C   UNL     1      -8.154  18.853  66.448  1.00  0.00    -0.292 C  
HETATM   29  N   UNL     1      -8.516  20.256  66.624  1.00  0.00    -0.492 NA 
HETATM   30  H   UNL     1      -8.324  20.802  65.784  1.00  0.00     0.000 HD 
HETATM   31  C   UNL     1      -9.909  20.390  67.049  1.00  0.00    -0.453 C  
HETATM   32  C   UNL     1     -10.205  19.626  68.341  1.00  0.00    -0.553 C  
ENDBRANCH  25  26
ENDBRANCH  24  25
ENDBRANCH  23  24
ENDBRANCH  22  23
ENDBRANCH  21  22
ENDBRANCH  18  21
ENDBRANCH  14  15
ENDBRANCH  10  14
ENDBRANCH   8  10
ENDBRANCH   5   8
ENDBRANCH   4   5
ENDBRANCH   3   4
ENDBRANCH   2   3
TORSDOF 13
ENDMDL
MODEL      149
REMARK 921   NORMALIZED FREE ENERGY PREDICTED BY IDOCK:   -4.22 KCAL/MOL
REMARK 922        TOTAL FREE ENERGY PREDICTED BY IDOCK:   -9.97 KCAL/MOL
REMARK 923 INTER-LIGAND FREE ENERGY PREDICTED BY IDOCK:   -9.20 KCAL/MOL
REMARK 924 INTRA-LIGAND FREE ENERGY PREDICTED BY IDOCK:   -0.77 KCAL/MOL
REMARK 927      BINDING AFFINITY PREDICTED BY RF-SCORE:    0.00 PKD
ROOT
HETATM    1  C   UNL     1     -11.994  12.757  63.338  1.00  0.00    -0.613 C  
HETATM    2  C   UNL     1     -10.750  12.314  64.105  1.00  0.00    -0.412 C  
ENDROOT
BRANCH   2   3
HETATM    3  C   UNL     1     -11.013  12.479  65.591  1.00  0.00    -0.323 C  
BRANCH   3   4
HETATM    4  C   UNL     1      -9.901  13.132  66.418  1.00  0.00    -0.279 C  
BRANCH   4   5
HETATM    5  S   UNL     1     -10.713  14.454  67.344  1.00  0.00    -0.284 S  
HETATM    6  O   UNL     1      -9.884  15.636  67.281  1.00  0.00    -0.223 OA 
HETATM    7  O   UNL     1     -12.094  14.466  66.925  1.00  0.00    -0.425 OA 
BRANCH   5   8
HETATM    8  N   UNL     1     -10.676  13.979  68.977  1.00  0.00    -0.305 N  
HETATM    9  H   UNL     1      -9.824  13.813  69.513  1.00  0.00     0.000 HD 
BRANCH   8  10
HETATM   10  C   UNL     1     -12.110  13.833  69.537  1.00  0.00    -0.334 C  
HETATM   11  C   UNL     1     -12.507  15.128  70.248  1.00  0.00    -0.342 C  
HETATM   12  O   UNL     1     -13.659  15.504  70.407  1.00  0.00    -0.228 OA 
HETATM   13  O   UNL     1     -11.438  15.834  70.694  1.00  0.00    -0.324 OA 
BRANCH  10  14
HETATM   14  C   UNL     1     -12.331  12.637  70.482  1.00  0.00    -0.350 C  
BRANCH  14  15
HETATM   15  C   UNL     1     -11.858  11.316  69.931  1.00  0.00    -0.436 A  
HETATM   16  C   UNL     1     -11.555  10.298  70.841  1.00  0.00    -0.454 A  
HETATM   17  C   UNL     1     -10.890   9.152  70.415  1.00  0.00    -0.285 A  
HETATM   18  C   UNL     1     -10.504   9.010  69.080  1.00  0.00    -0.225 A  
HETATM   19  C   UNL     1     -11.626  11.090  68.566  1.00  0.00    -0.380 A  
HETATM   20  C   UNL     1     -10.933   9.951  68.145  1.00  0.00    -0.261 A  
BRANCH  18  21
HETATM   21  O   UNL     1      -9.692   8.011  68.604  1.00  0.00    -0.154 OA 
BRANCH  21  22
HETATM   22  C   UNL     1     -10.404   6.848  68.176  1.00  0.00    -0.190 C  
BRANCH  22  23
HETATM   23  C   UNL     1      -9.599   5.585  68.427  1.00  0.00    -0.155 C  
BRANCH  23  24
HETATM   24  C   UNL     1     -10.116   4.740  69.599  1.00  0.00    -0.275 C  
BRANCH  24  25
HETATM   25  C   UNL     1      -9.643   5.378  70.909  1.00  0.00    -0.226 C  
BRANCH  25  26
HETATM   26  C   UNL     1     -10.490   5.080  72.160  1.00  0.00    -0.274 C  
HETATM   27  C   UNL     1      -9.573   5.062  73.399  1.00  0.00    -0.147 C  
HETATM   28  C   UNL     1      -9.213   6.469  73.872  1.00  0.00    -0.155 C  
HETATM   29  N   UNL     1     -10.423   7.212  74.207  1.00  0.00    -0.523 NA 
HETATM   30  H   UNL     1     -10.205   8.111  74.639  1.00  0.00     0.000 HD 
HETATM   31  C   UNL     1     -11.284   7.372  73.036  1.00  0.00    -0.297 C  
HETATM   32  C   UNL     1     -11.672   6.032  72.406  1.00  0.00    -0.322 C  
ENDBRANCH  25  26
ENDBRANCH  24  25
ENDBRANCH  23  24
ENDBRANCH  22  23
ENDBRANCH  21  22
ENDBRANCH  18  21
ENDBRANCH  14  15
ENDBRANCH  10  14
ENDBRANCH   8  10
ENDBRANCH   5   8
ENDBRANCH   4   5
ENDBRANCH   3   4
ENDBRANCH   2   3
TORSDOF 13
ENDMDL
MODEL      150
REMARK 921   NORMALIZED FREE ENERGY PREDICTED BY IDOCK:   -4.20 KCAL/MOL
REMARK 922        TOTAL FREE ENERGY PREDICTED BY IDOCK:   -9.94 KCAL/MOL
REMARK 923 INTER-LIGAND FREE ENERGY PREDICTED BY IDOCK:   -8.78 KCAL/MOL
REMARK 924 INTRA-LIGAND FREE ENERGY PREDICTED BY IDOCK:   -1.15 KCAL/MOL
REMARK 927      BINDING AFFINITY PREDICTED BY RF-SCORE:    0.00 PKD
ROOT
HETATM    1  C   UNL     1      -7.236  19.135  68.656  1.00  0.00    -0.356 C  
HETATM    2  C   UNL     1      -7.031  19.638  67.229  1.00  0.00    -0.233 C  
ENDROOT
BRANCH   2   3
HETATM    3  C   UNL     1      -8.115  19.045  66.346  1.00  0.00    -0.308 C  
BRANCH   3   4
HETATM    4  C   UNL     1      -8.198  17.516  66.291  1.00  0.00    -0.240 C  
BRANCH   4   5
HETATM    5  S   UNL     1      -9.953  17.130  66.469  1.00  0.00    -0.313 S  
HETATM    6  O   UNL     1     -10.546  18.086  67.375  1.00  0.00    -0.386 OA 
HETATM    7  O   UNL     1     -10.468  16.917  65.138  1.00  0.00    -0.663 OA 
BRANCH   5   8
HETATM    8  N   UNL     1     -10.028  15.642  67.292  1.00  0.00    -0.234 N  
HETATM    9  H   UNL     1      -9.215  15.090  67.567  1.00  0.00     0.000 HD 
BRANCH   8  10
HETATM   10  C   UNL     1     -11.497  15.242  67.567  1.00  0.00    -0.265 C  
HETATM   11  C   UNL     1     -11.617  14.715  68.998  1.00  0.00    -0.298 C  
HETATM   12  O   UNL     1     -12.646  14.731  69.656  1.00  0.00    -0.200 OA 
HETATM   13  O   UNL     1     -10.448  14.221  69.477  1.00  0.00    -0.107 OA 
BRANCH  10  14
HETATM   14  C   UNL     1     -12.095  14.215  66.588  1.00  0.00    -0.480 C  
BRANCH  14  15
HETATM   15  C   UNL     1     -11.344  12.909  66.524  1.00  0.00    -0.361 A  
HETATM   16  C   UNL     1     -11.807  11.849  67.310  1.00  0.00    -0.222 A  
HETATM   17  C   UNL     1     -11.025  10.709  67.479  1.00  0.00    -0.371 A  
HETATM   18  C   UNL     1      -9.766  10.616  66.881  1.00  0.00    -0.179 A  
HETATM   19  C   UNL     1     -10.163  12.736  65.786  1.00  0.00    -0.302 A  
HETATM   20  C   UNL     1      -9.368  11.603  65.980  1.00  0.00    -0.241 A  
BRANCH  18  21
HETATM   21  O   UNL     1      -8.853   9.623  67.133  1.00  0.00    -0.131 OA 
BRANCH  21  22
HETATM   22  C   UNL     1      -7.771  10.037  67.970  1.00  0.00    -0.089 C  
BRANCH  22  23
HETATM   23  C   UNL     1      -8.217  10.189  69.414  1.00  0.00    -0.171 C  
BRANCH  23  24
HETATM   24  C   UNL     1      -8.764   8.897  70.036  1.00  0.00    -0.151 C  
BRANCH  24  25
HETATM   25  C   UNL     1     -10.267   9.066  70.274  1.00  0.00    -0.235 C  
BRANCH  25  26
HETATM   26  C   UNL     1     -10.735   9.042  71.741  1.00  0.00    -0.437 C  
HETATM   27  C   UNL     1     -12.174   9.589  71.823  1.00  0.00    -0.465 C  
HETATM   28  C   UNL     1     -13.211   8.556  71.384  1.00  0.00    -0.220 C  
HETATM   29  N   UNL     1     -13.122   7.367  72.227  1.00  0.00    -0.502 NA 
HETATM   30  H   UNL     1     -13.881   6.713  72.034  1.00  0.00     0.000 HD 
HETATM   31  C   UNL     1     -11.814   6.728  72.099  1.00  0.00    -0.290 C  
HETATM   32  C   UNL     1     -10.661   7.675  72.440  1.00  0.00    -0.333 C  
ENDBRANCH  25  26
ENDBRANCH  24  25
ENDBRANCH  23  24
ENDBRANCH  22  23
ENDBRANCH  21  22
ENDBRANCH  18  21
ENDBRANCH  14  15
ENDBRANCH  10  14
ENDBRANCH   8  10
ENDBRANCH   5   8
ENDBRANCH   4   5
ENDBRANCH   3   4
ENDBRANCH   2   3
TORSDOF 13
ENDMDL
MODEL      151
REMARK 921   NORMALIZED FREE ENERGY PREDICTED BY IDOCK:   -4.19 KCAL/MOL
REMARK 922        TOTAL FREE ENERGY PREDICTED BY IDOCK:   -9.91 KCAL/MOL
REMARK 923 INTER-LIGAND FREE ENERGY PREDICTED BY IDOCK:   -8.32 KCAL/MOL
REMARK 924 INTRA-LIGAND FREE ENERGY PREDICTED BY IDOCK:   -1.59 KCAL/MOL
REMARK 927      BINDING AFFINITY PREDICTED BY RF-SCORE:    0.00 PKD
ROOT
HETATM    1  C   UNL     1      -7.220   4.041  67.183  1.00  0.00    -0.068 C  
HETATM    2  C   UNL     1      -7.681   3.988  68.638  1.00  0.00    -0.058 C  
ENDROOT
BRANCH   2   3
HETATM    3  C   UNL     1      -9.180   4.222  68.680  1.00  0.00    -0.197 C  
BRANCH   3   4
HETATM    4  C   UNL     1      -9.841   4.206  70.062  1.00  0.00    -0.175 C  
BRANCH   4   5
HETATM    5  S   UNL     1     -10.371   5.908  70.355  1.00  0.00    -0.251 S  
HETATM    6  O   UNL     1     -11.582   6.148  69.606  1.00  0.00    -0.407 OA 
HETATM    7  O   UNL     1     -10.298   6.126  71.779  1.00  0.00    -0.202 OA 
BRANCH   5   8
HETATM    8  N   UNL     1      -9.199   6.900  69.622  1.00  0.00    -0.146 N  
HETATM    9  H   UNL     1      -8.191   6.787  69.735  1.00  0.00     0.000 HD 
BRANCH   8  10
HETATM   10  C   UNL     1      -9.870   7.996  68.762  1.00  0.00    -0.172 C  
HETATM   11  C   UNL     1      -9.380   7.874  67.318  1.00  0.00    -0.148 C  
HETATM   12  O   UNL     1     -10.002   8.265  66.342  1.00  0.00    -0.252 OA 
HETATM   13  O   UNL     1      -8.166   7.276  67.222  1.00  0.00    -0.113 OA 
BRANCH  10  14
HETATM   14  C   UNL     1      -9.664   9.441  69.255  1.00  0.00    -0.173 C  
BRANCH  14  15
HETATM   15  C   UNL     1     -10.869  10.043  69.932  1.00  0.00    -0.328 A  
HETATM   16  C   UNL     1     -11.315  11.291  69.487  1.00  0.00    -0.362 A  
HETATM   17  C   UNL     1     -12.260  12.001  70.222  1.00  0.00    -0.348 A  
HETATM   18  C   UNL     1     -12.762  11.485  71.419  1.00  0.00    -0.364 A  
HETATM   19  C   UNL     1     -11.505   9.455  71.036  1.00  0.00    -0.403 A  
HETATM   20  C   UNL     1     -12.432  10.182  71.788  1.00  0.00    -0.455 A  
BRANCH  18  21
HETATM   21  O   UNL     1     -13.550  12.182  72.300  1.00  0.00    -0.432 OA 
BRANCH  21  22
HETATM   22  C   UNL     1     -13.907  13.488  71.842  1.00  0.00    -0.335 C  
BRANCH  22  23
HETATM   23  C   UNL     1     -12.973  14.545  72.404  1.00  0.00    -0.469 C  
BRANCH  23  24
HETATM   24  C   UNL     1     -12.810  15.775  71.501  1.00  0.00    -0.512 C  
BRANCH  24  25
HETATM   25  C   UNL     1     -11.453  15.689  70.796  1.00  0.00    -0.409 C  
BRANCH  25  26
HETATM   26  C   UNL     1     -11.436  16.048  69.299  1.00  0.00    -0.350 C  
HETATM   27  C   UNL     1     -10.418  17.180  69.060  1.00  0.00    -0.321 C  
HETATM   28  C   UNL     1      -8.978  16.670  69.044  1.00  0.00    -0.204 C  
HETATM   29  N   UNL     1      -8.811  15.674  67.990  1.00  0.00    -0.168 NA 
HETATM   30  H   UNL     1      -7.833  15.406  67.879  1.00  0.00     0.000 HD 
HETATM   31  C   UNL     1      -9.665  14.510  68.226  1.00  0.00    -0.218 C  
HETATM   32  C   UNL     1     -11.145  14.882  68.339  1.00  0.00    -0.282 C  
ENDBRANCH  25  26
ENDBRANCH  24  25
ENDBRANCH  23  24
ENDBRANCH  22  23
ENDBRANCH  21  22
ENDBRANCH  18  21
ENDBRANCH  14  15
ENDBRANCH  10  14
ENDBRANCH   8  10
ENDBRANCH   5   8
ENDBRANCH   4   5
ENDBRANCH   3   4
ENDBRANCH   2   3
TORSDOF 13
ENDMDL
MODEL      152
REMARK 921   NORMALIZED FREE ENERGY PREDICTED BY IDOCK:   -4.18 KCAL/MOL
REMARK 922        TOTAL FREE ENERGY PREDICTED BY IDOCK:   -9.89 KCAL/MOL
REMARK 923 INTER-LIGAND FREE ENERGY PREDICTED BY IDOCK:   -8.74 KCAL/MOL
REMARK 924 INTRA-LIGAND FREE ENERGY PREDICTED BY IDOCK:   -1.15 KCAL/MOL
REMARK 927      BINDING AFFINITY PREDICTED BY RF-SCORE:    0.00 PKD
ROOT
HETATM    1  C   UNL     1      -9.589   3.159  72.354  1.00  0.00    -0.195 C  
HETATM    2  C   UNL     1      -8.563   3.731  71.377  1.00  0.00    -0.113 C  
ENDROOT
BRANCH   2   3
HETATM    3  C   UNL     1      -9.081   5.059  70.854  1.00  0.00    -0.181 C  
BRANCH   3   4
HETATM    4  C   UNL     1     -10.222   4.999  69.834  1.00  0.00    -0.270 C  
BRANCH   4   5
HETATM    5  S   UNL     1     -10.193   6.598  68.995  1.00  0.00    -0.189 S  
HETATM    6  O   UNL     1      -8.967   7.278  69.343  1.00  0.00    -0.140 OA 
HETATM    7  O   UNL     1     -10.568   6.353  67.623  1.00  0.00    -0.203 OA 
BRANCH   5   8
HETATM    8  N   UNL     1     -11.427   7.528  69.706  1.00  0.00    -0.469 N  
HETATM    9  H   UNL     1     -12.393   7.559  69.377  1.00  0.00     0.000 HD 
BRANCH   8  10
HETATM   10  C   UNL     1     -10.886   8.320  70.920  1.00  0.00    -0.230 C  
HETATM   11  C   UNL     1     -11.302   7.612  72.210  1.00  0.00    -0.306 C  
HETATM   12  O   UNL     1     -10.707   7.705  73.273  1.00  0.00    -0.386 OA 
HETATM   13  O   UNL     1     -12.417   6.853  72.059  1.00  0.00    -0.312 OA 
BRANCH  10  14
HETATM   14  C   UNL     1     -11.309   9.799  70.985  1.00  0.00    -0.460 C  
BRANCH  14  15
HETATM   15  C   UNL     1     -11.057  10.572  69.715  1.00  0.00    -0.354 A  
HETATM   16  C   UNL     1      -9.734  10.701  69.278  1.00  0.00    -0.181 A  
HETATM   17  C   UNL     1      -9.417  11.596  68.261  1.00  0.00    -0.191 A  
HETATM   18  C   UNL     1     -10.408  12.387  67.675  1.00  0.00    -0.216 A  
HETATM   19  C   UNL     1     -12.068  11.237  69.005  1.00  0.00    -0.325 A  
HETATM   20  C   UNL     1     -11.743  12.156  68.003  1.00  0.00    -0.409 A  
BRANCH  18  21
HETATM   21  O   UNL     1     -10.170  13.418  66.802  1.00  0.00    -0.252 OA 
BRANCH  21  22
HETATM   22  C   UNL     1     -10.835  14.633  67.153  1.00  0.00    -0.303 C  
BRANCH  22  23
HETATM   23  C   UNL     1      -9.848  15.775  67.319  1.00  0.00    -0.230 C  
BRANCH  23  24
HETATM   24  C   UNL     1      -9.672  16.635  66.060  1.00  0.00    -0.306 C  
BRANCH  24  25
HETATM   25  C   UNL     1     -10.480  17.924  66.230  1.00  0.00    -0.320 C  
BRANCH  25  26
HETATM   26  C   UNL     1      -9.678  19.239  66.238  1.00  0.00    -0.430 C  
HETATM   27  C   UNL     1     -10.066  20.062  67.482  1.00  0.00    -0.565 C  
HETATM   28  C   UNL     1      -9.394  19.543  68.752  1.00  0.00    -0.363 C  
HETATM   29  N   UNL     1      -7.943  19.588  68.607  1.00  0.00    -0.358 NA 
HETATM   30  H   UNL     1      -7.470  19.361  69.482  1.00  0.00     0.000 HD 
HETATM   31  C   UNL     1      -7.497  18.724  67.514  1.00  0.00    -0.228 C  
HETATM   32  C   UNL     1      -8.149  19.085  66.177  1.00  0.00    -0.260 C  
ENDBRANCH  25  26
ENDBRANCH  24  25
ENDBRANCH  23  24
ENDBRANCH  22  23
ENDBRANCH  21  22
ENDBRANCH  18  21
ENDBRANCH  14  15
ENDBRANCH  10  14
ENDBRANCH   8  10
ENDBRANCH   5   8
ENDBRANCH   4   5
ENDBRANCH   3   4
ENDBRANCH   2   3
TORSDOF 13
ENDMDL
MODEL      153
REMARK 921   NORMALIZED FREE ENERGY PREDICTED BY IDOCK:   -4.17 KCAL/MOL
REMARK 922        TOTAL FREE ENERGY PREDICTED BY IDOCK:   -9.88 KCAL/MOL
REMARK 923 INTER-LIGAND FREE ENERGY PREDICTED BY IDOCK:   -7.81 KCAL/MOL
REMARK 924 INTRA-LIGAND FREE ENERGY PREDICTED BY IDOCK:   -2.07 KCAL/MOL
REMARK 927      BINDING AFFINITY PREDICTED BY RF-SCORE:    0.00 PKD
ROOT
HETATM    1  C   UNL     1      -9.315   2.563  71.170  1.00  0.00    -0.212 C  
HETATM    2  C   UNL     1      -8.441   3.758  70.796  1.00  0.00    -0.100 C  
ENDROOT
BRANCH   2   3
HETATM    3  C   UNL     1      -9.239   5.030  71.019  1.00  0.00    -0.191 C  
BRANCH   3   4
HETATM    4  C   UNL     1     -10.572   5.146  70.275  1.00  0.00    -0.160 C  
BRANCH   4   5
HETATM    5  S   UNL     1     -10.321   6.451  69.052  1.00  0.00    -0.222 S  
HETATM    6  O   UNL     1      -8.902   6.619  68.842  1.00  0.00    -0.131 OA 
HETATM    7  O   UNL     1     -11.228   6.180  67.963  1.00  0.00    -0.310 OA 
BRANCH   5   8
HETATM    8  N   UNL     1     -10.828   7.897  69.794  1.00  0.00    -0.340 N  
HETATM    9  H   UNL     1     -11.799   8.203  69.863  1.00  0.00     0.000 HD 
BRANCH   8  10
HETATM   10  C   UNL     1      -9.616   8.681  70.348  1.00  0.00    -0.173 C  
HETATM   11  C   UNL     1      -9.635   8.625  71.877  1.00  0.00    -0.307 C  
HETATM   12  O   UNL     1      -8.648   8.747  72.585  1.00  0.00    -0.411 OA 
HETATM   13  O   UNL     1     -10.878   8.421  72.381  1.00  0.00    -0.330 OA 
BRANCH  10  14
HETATM   14  C   UNL     1      -9.512  10.147  69.888  1.00  0.00    -0.150 C  
BRANCH  14  15
HETATM   15  C   UNL     1     -10.115  10.416  68.532  1.00  0.00    -0.186 A  
HETATM   16  C   UNL     1      -9.418   9.966  67.405  1.00  0.00    -0.173 A  
HETATM   17  C   UNL     1      -9.794  10.390  66.134  1.00  0.00    -0.278 A  
HETATM   18  C   UNL     1     -10.858  11.279  65.968  1.00  0.00    -0.213 A  
HETATM   19  C   UNL     1     -11.287  11.164  68.345  1.00  0.00    -0.357 A  
HETATM   20  C   UNL     1     -11.644  11.611  67.070  1.00  0.00    -0.268 A  
BRANCH  18  21
HETATM   21  O   UNL     1     -11.186  11.892  64.784  1.00  0.00    -0.308 OA 
BRANCH  21  22
HETATM   22  C   UNL     1     -12.407  12.632  64.840  1.00  0.00    -0.498 C  
BRANCH  22  23
HETATM   23  C   UNL     1     -12.195  14.081  64.436  1.00  0.00    -0.457 C  
BRANCH  23  24
HETATM   24  C   UNL     1     -10.802  14.625  64.782  1.00  0.00    -0.402 C  
BRANCH  24  25
HETATM   25  C   UNL     1     -10.909  15.475  66.052  1.00  0.00    -0.301 C  
BRANCH  25  26
HETATM   26  C   UNL     1     -10.502  14.791  67.370  1.00  0.00    -0.256 C  
HETATM   27  C   UNL     1      -9.064  14.253  67.238  1.00  0.00    -0.221 C  
HETATM   28  C   UNL     1      -8.018  15.357  67.387  1.00  0.00    -0.188 C  
HETATM   29  N   UNL     1      -8.150  16.001  68.690  1.00  0.00    -0.175 NA 
HETATM   30  H   UNL     1      -7.388  16.659  68.862  1.00  0.00     0.000 HD 
HETATM   31  C   UNL     1      -9.457  16.641  68.830  1.00  0.00    -0.251 C  
HETATM   32  C   UNL     1     -10.615  15.660  68.633  1.00  0.00    -0.243 C  
ENDBRANCH  25  26
ENDBRANCH  24  25
ENDBRANCH  23  24
ENDBRANCH  22  23
ENDBRANCH  21  22
ENDBRANCH  18  21
ENDBRANCH  14  15
ENDBRANCH  10  14
ENDBRANCH   8  10
ENDBRANCH   5   8
ENDBRANCH   4   5
ENDBRANCH   3   4
ENDBRANCH   2   3
TORSDOF 13
ENDMDL
MODEL      154
REMARK 921   NORMALIZED FREE ENERGY PREDICTED BY IDOCK:   -4.16 KCAL/MOL
REMARK 922        TOTAL FREE ENERGY PREDICTED BY IDOCK:   -9.87 KCAL/MOL
REMARK 923 INTER-LIGAND FREE ENERGY PREDICTED BY IDOCK:   -7.84 KCAL/MOL
REMARK 924 INTRA-LIGAND FREE ENERGY PREDICTED BY IDOCK:   -2.03 KCAL/MOL
REMARK 927      BINDING AFFINITY PREDICTED BY RF-SCORE:    0.00 PKD
ROOT
HETATM    1  C   UNL     1     -12.974  11.818  71.408  1.00  0.00    -0.408 C  
HETATM    2  C   UNL     1     -12.073  11.214  70.334  1.00  0.00    -0.475 C  
ENDROOT
BRANCH   2   3
HETATM    3  C   UNL     1     -11.955  12.205  69.188  1.00  0.00    -0.311 C  
BRANCH   3   4
HETATM    4  C   UNL     1     -11.867  11.617  67.777  1.00  0.00    -0.176 C  
BRANCH   4   5
HETATM    5  S   UNL     1     -11.793  13.044  66.672  1.00  0.00    -0.379 S  
HETATM    6  O   UNL     1     -12.630  12.782  65.525  1.00  0.00    -0.611 OA 
HETATM    7  O   UNL     1     -11.972  14.215  67.496  1.00  0.00    -0.383 OA 
BRANCH   5   8
HETATM    8  N   UNL     1     -10.207  13.085  66.058  1.00  0.00    -0.282 N  
HETATM    9  H   UNL     1      -9.966  13.292  65.089  1.00  0.00     0.000 HD 
BRANCH   8  10
HETATM   10  C   UNL     1      -9.181  12.766  67.171  1.00  0.00    -0.219 C  
HETATM   11  C   UNL     1      -8.489  14.059  67.605  1.00  0.00    -0.191 C  
HETATM   12  O   UNL     1      -7.980  14.236  68.701  1.00  0.00    -0.136 OA 
HETATM   13  O   UNL     1      -8.497  15.011  66.638  1.00  0.00    -0.248 OA 
BRANCH  10  14
HETATM   14  C   UNL     1      -8.120  11.711  66.806  1.00  0.00    -0.150 C  
BRANCH  14  15
HETATM   15  C   UNL     1      -8.569  10.285  67.002  1.00  0.00    -0.129 A  
HETATM   16  C   UNL     1      -8.331   9.688  68.245  1.00  0.00    -0.117 A  
HETATM   17  C   UNL     1      -8.500   8.316  68.406  1.00  0.00    -0.129 A  
HETATM   18  C   UNL     1      -8.893   7.517  67.331  1.00  0.00    -0.127 A  
HETATM   19  C   UNL     1      -9.132   9.508  65.979  1.00  0.00    -0.220 A  
HETATM   20  C   UNL     1      -9.273   8.126  66.136  1.00  0.00    -0.230 A  
BRANCH  18  21
HETATM   21  O   UNL     1      -8.910   6.145  67.342  1.00  0.00    -0.109 OA 
BRANCH  21  22
HETATM   22  C   UNL     1      -9.571   5.588  68.480  1.00  0.00    -0.127 C  
BRANCH  22  23
HETATM   23  C   UNL     1     -11.021   6.036  68.551  1.00  0.00    -0.350 C  
BRANCH  23  24
HETATM   24  C   UNL     1     -11.499   6.376  69.969  1.00  0.00    -0.496 C  
BRANCH  24  25
HETATM   25  C   UNL     1     -10.481   5.827  70.973  1.00  0.00    -0.307 C  
BRANCH  25  26
HETATM   26  C   UNL     1     -10.444   6.510  72.353  1.00  0.00    -0.229 C  
HETATM   27  C   UNL     1      -9.037   6.349  72.960  1.00  0.00    -0.133 C  
HETATM   28  C   UNL     1      -8.030   7.324  72.353  1.00  0.00    -0.096 C  
HETATM   29  N   UNL     1      -8.469   8.699  72.570  1.00  0.00    -0.403 NA 
HETATM   30  H   UNL     1      -7.757   9.371  72.282  1.00  0.00     0.000 HD 
HETATM   31  C   UNL     1      -9.749   8.953  71.910  1.00  0.00    -0.279 C  
HETATM   32  C   UNL     1     -10.848   7.994  72.371  1.00  0.00    -0.392 C  
ENDBRANCH  25  26
ENDBRANCH  24  25
ENDBRANCH  23  24
ENDBRANCH  22  23
ENDBRANCH  21  22
ENDBRANCH  18  21
ENDBRANCH  14  15
ENDBRANCH  10  14
ENDBRANCH   8  10
ENDBRANCH   5   8
ENDBRANCH   4   5
ENDBRANCH   3   4
ENDBRANCH   2   3
TORSDOF 13
ENDMDL
MODEL      155
REMARK 921   NORMALIZED FREE ENERGY PREDICTED BY IDOCK:   -4.15 KCAL/MOL
REMARK 922        TOTAL FREE ENERGY PREDICTED BY IDOCK:   -9.85 KCAL/MOL
REMARK 923 INTER-LIGAND FREE ENERGY PREDICTED BY IDOCK:   -8.09 KCAL/MOL
REMARK 924 INTRA-LIGAND FREE ENERGY PREDICTED BY IDOCK:   -1.77 KCAL/MOL
REMARK 927      BINDING AFFINITY PREDICTED BY RF-SCORE:    0.00 PKD
ROOT
HETATM    1  C   UNL     1     -12.936  10.677  70.772  1.00  0.00    -0.396 C  
HETATM    2  C   UNL     1     -11.581  10.361  70.143  1.00  0.00    -0.392 C  
ENDROOT
BRANCH   2   3
HETATM    3  C   UNL     1     -11.349  11.318  68.987  1.00  0.00    -0.344 C  
BRANCH   3   4
HETATM    4  C   UNL     1     -11.746  12.780  69.213  1.00  0.00    -0.319 C  
BRANCH   4   5
HETATM    5  S   UNL     1     -11.482  13.594  67.622  1.00  0.00    -0.346 S  
HETATM    6  O   UNL     1     -12.524  14.575  67.429  1.00  0.00    -0.129 OA 
HETATM    7  O   UNL     1     -10.083  13.943  67.563  1.00  0.00    -0.239 OA 
BRANCH   5   8
HETATM    8  N   UNL     1     -11.767  12.411  66.433  1.00  0.00    -0.400 N  
HETATM    9  H   UNL     1     -12.228  11.517  66.603  1.00  0.00     0.000 HD 
BRANCH   8  10
HETATM   10  C   UNL     1     -11.230  12.877  65.059  1.00  0.00    -0.293 C  
HETATM   11  C   UNL     1     -12.397  13.001  64.078  1.00  0.00    -0.363 C  
HETATM   12  O   UNL     1     -12.400  13.728  63.096  1.00  0.00    -0.726 OA 
HETATM   13  O   UNL     1     -13.451  12.214  64.410  1.00  0.00    -0.675 OA 
BRANCH  10  14
HETATM   14  C   UNL     1     -10.133  11.988  64.443  1.00  0.00    -0.298 C  
BRANCH  14  15
HETATM   15  C   UNL     1      -9.514  11.009  65.409  1.00  0.00    -0.257 A  
HETATM   16  C   UNL     1     -10.059   9.723  65.477  1.00  0.00    -0.242 A  
HETATM   17  C   UNL     1      -9.695   8.861  66.508  1.00  0.00    -0.322 A  
HETATM   18  C   UNL     1      -8.795   9.273  67.493  1.00  0.00    -0.118 A  
HETATM   19  C   UNL     1      -8.482  11.351  66.296  1.00  0.00    -0.138 A  
HETATM   20  C   UNL     1      -8.140  10.495  67.346  1.00  0.00    -0.111 A  
BRANCH  18  21
HETATM   21  O   UNL     1      -8.516   8.571  68.639  1.00  0.00    -0.128 OA 
BRANCH  21  22
HETATM   22  C   UNL     1      -8.081   9.392  69.724  1.00  0.00    -0.133 C  
BRANCH  22  23
HETATM   23  C   UNL     1      -8.229   8.673  71.054  1.00  0.00    -0.179 C  
BRANCH  23  24
HETATM   24  C   UNL     1      -9.297   7.571  71.051  1.00  0.00    -0.157 C  
BRANCH  24  25
HETATM   25  C   UNL     1      -8.700   6.313  70.415  1.00  0.00    -0.146 C  
BRANCH  25  26
HETATM   26  C   UNL     1      -9.696   5.206  70.022  1.00  0.00    -0.275 C  
HETATM   27  C   UNL     1     -11.116   5.802  69.959  1.00  0.00    -0.329 C  
HETATM   28  C   UNL     1     -11.355   6.593  68.674  1.00  0.00    -0.058 C  
HETATM   29  N   UNL     1     -11.167   5.732  67.512  1.00  0.00    -0.206 NA 
HETATM   30  H   UNL     1     -11.437   6.202  66.648  1.00  0.00     0.000 HD 
HETATM   31  C   UNL     1      -9.795   5.229  67.445  1.00  0.00    -0.160 C  
HETATM   32  C   UNL     1      -9.387   4.468  68.709  1.00  0.00    -0.206 C  
ENDBRANCH  25  26
ENDBRANCH  24  25
ENDBRANCH  23  24
ENDBRANCH  22  23
ENDBRANCH  21  22
ENDBRANCH  18  21
ENDBRANCH  14  15
ENDBRANCH  10  14
ENDBRANCH   8  10
ENDBRANCH   5   8
ENDBRANCH   4   5
ENDBRANCH   3   4
ENDBRANCH   2   3
TORSDOF 13
ENDMDL
MODEL      156
REMARK 921   NORMALIZED FREE ENERGY PREDICTED BY IDOCK:   -4.15 KCAL/MOL
REMARK 922        TOTAL FREE ENERGY PREDICTED BY IDOCK:   -9.85 KCAL/MOL
REMARK 923 INTER-LIGAND FREE ENERGY PREDICTED BY IDOCK:   -8.76 KCAL/MOL
REMARK 924 INTRA-LIGAND FREE ENERGY PREDICTED BY IDOCK:   -1.09 KCAL/MOL
REMARK 927      BINDING AFFINITY PREDICTED BY RF-SCORE:    0.00 PKD
ROOT
HETATM    1  C   UNL     1      -9.500   2.810  64.994  1.00  0.00    -0.086 C  
HETATM    2  C   UNL     1      -8.978   3.832  66.001  1.00  0.00    -0.136 C  
ENDROOT
BRANCH   2   3
HETATM    3  C   UNL     1     -10.114   4.769  66.372  1.00  0.00    -0.291 C  
BRANCH   3   4
HETATM    4  C   UNL     1     -10.314   5.052  67.864  1.00  0.00    -0.035 C  
BRANCH   4   5
HETATM    5  S   UNL     1     -10.239   6.849  68.021  1.00  0.00    -0.189 S  
HETATM    6  O   UNL     1      -8.934   7.214  68.520  1.00  0.00    -0.128 OA 
HETATM    7  O   UNL     1     -10.768   7.395  66.794  1.00  0.00    -0.319 OA 
BRANCH   5   8
HETATM    8  N   UNL     1     -11.317   7.260  69.271  1.00  0.00    -0.467 N  
HETATM    9  H   UNL     1     -12.301   7.494  69.135  1.00  0.00     0.000 HD 
BRANCH   8  10
HETATM   10  C   UNL     1     -10.601   7.229  70.643  1.00  0.00    -0.226 C  
HETATM   11  C   UNL     1     -11.535   6.611  71.684  1.00  0.00    -0.288 C  
HETATM   12  O   UNL     1     -11.159   6.055  72.706  1.00  0.00    -0.248 OA 
HETATM   13  O   UNL     1     -12.846   6.738  71.359  1.00  0.00    -0.335 OA 
BRANCH  10  14
HETATM   14  C   UNL     1     -10.092   8.591  71.151  1.00  0.00    -0.263 C  
BRANCH  14  15
HETATM   15  C   UNL     1     -10.971   9.759  70.784  1.00  0.00    -0.406 A  
HETATM   16  C   UNL     1     -10.604  10.532  69.677  1.00  0.00    -0.281 A  
HETATM   17  C   UNL     1     -11.230  11.752  69.436  1.00  0.00    -0.300 A  
HETATM   18  C   UNL     1     -12.219  12.226  70.301  1.00  0.00    -0.262 A  
HETATM   19  C   UNL     1     -12.082  10.156  71.543  1.00  0.00    -0.442 A  
HETATM   20  C   UNL     1     -12.689  11.394  71.316  1.00  0.00    -0.498 A  
BRANCH  18  21
HETATM   21  O   UNL     1     -12.761  13.486  70.252  1.00  0.00    -0.193 OA 
BRANCH  21  22
HETATM   22  C   UNL     1     -12.410  14.306  71.369  1.00  0.00    -0.353 C  
BRANCH  22  23
HETATM   23  C   UNL     1     -11.162  15.123  71.083  1.00  0.00    -0.329 C  
BRANCH  23  24
HETATM   24  C   UNL     1     -11.367  16.226  70.036  1.00  0.00    -0.276 C  
BRANCH  24  25
HETATM   25  C   UNL     1     -10.737  15.772  68.716  1.00  0.00    -0.253 C  
BRANCH  25  26
HETATM   26  C   UNL     1      -9.584  16.637  68.175  1.00  0.00    -0.228 C  
HETATM   27  C   UNL     1      -9.335  16.282  66.696  1.00  0.00    -0.272 C  
HETATM   28  C   UNL     1     -10.367  16.921  65.767  1.00  0.00    -0.283 C  
HETATM   29  N   UNL     1     -10.333  18.374  65.902  1.00  0.00    -0.601 NA 
HETATM   30  H   UNL     1     -10.925  18.830  65.208  1.00  0.00     0.000 HD 
HETATM   31  C   UNL     1     -10.683  18.784  67.262  1.00  0.00    -0.425 C  
HETATM   32  C   UNL     1      -9.769  18.157  68.317  1.00  0.00    -0.344 C  
ENDBRANCH  25  26
ENDBRANCH  24  25
ENDBRANCH  23  24
ENDBRANCH  22  23
ENDBRANCH  21  22
ENDBRANCH  18  21
ENDBRANCH  14  15
ENDBRANCH  10  14
ENDBRANCH   8  10
ENDBRANCH   5   8
ENDBRANCH   4   5
ENDBRANCH   3   4
ENDBRANCH   2   3
TORSDOF 13
ENDMDL
MODEL      157
REMARK 921   NORMALIZED FREE ENERGY PREDICTED BY IDOCK:   -4.15 KCAL/MOL
REMARK 922        TOTAL FREE ENERGY PREDICTED BY IDOCK:   -9.84 KCAL/MOL
REMARK 923 INTER-LIGAND FREE ENERGY PREDICTED BY IDOCK:   -8.63 KCAL/MOL
REMARK 924 INTRA-LIGAND FREE ENERGY PREDICTED BY IDOCK:   -1.22 KCAL/MOL
REMARK 927      BINDING AFFINITY PREDICTED BY RF-SCORE:    0.00 PKD
ROOT
HETATM    1  C   UNL     1      -7.350   6.754  71.785  1.00  0.00    -0.085 C  
HETATM    2  C   UNL     1      -7.199   6.207  70.368  1.00  0.00    -0.086 C  
ENDROOT
BRANCH   2   3
HETATM    3  C   UNL     1      -8.486   6.474  69.606  1.00  0.00    -0.131 C  
BRANCH   3   4
HETATM    4  C   UNL     1      -9.668   7.010  70.419  1.00  0.00    -0.176 C  
BRANCH   4   5
HETATM    5  S   UNL     1     -10.057   8.615  69.688  1.00  0.00    -0.207 S  
HETATM    6  O   UNL     1      -9.333   9.637  70.408  1.00  0.00    -0.251 OA 
HETATM    7  O   UNL     1      -9.940   8.459  68.258  1.00  0.00    -0.174 OA 
BRANCH   5   8
HETATM    8  N   UNL     1     -11.696   8.909  70.040  1.00  0.00    -0.444 N  
HETATM    9  H   UNL     1     -12.426   8.196  70.042  1.00  0.00     0.000 HD 
BRANCH   8  10
HETATM   10  C   UNL     1     -11.928  10.406  70.355  1.00  0.00    -0.320 C  
HETATM   11  C   UNL     1     -13.074  10.537  71.359  1.00  0.00    -0.410 C  
HETATM   12  O   UNL     1     -13.220  11.481  72.122  1.00  0.00    -0.505 OA 
HETATM   13  O   UNL     1     -13.930   9.485  71.324  1.00  0.00    -0.240 OA 
BRANCH  10  14
HETATM   14  C   UNL     1     -12.208  11.301  69.134  1.00  0.00    -0.251 C  
BRANCH  14  15
HETATM   15  C   UNL     1     -11.465  12.613  69.143  1.00  0.00    -0.359 A  
HETATM   16  C   UNL     1     -12.087  13.714  69.742  1.00  0.00    -0.396 A  
HETATM   17  C   UNL     1     -11.564  14.992  69.570  1.00  0.00    -0.337 A  
HETATM   18  C   UNL     1     -10.425  15.195  68.788  1.00  0.00    -0.234 A  
HETATM   19  C   UNL     1     -10.228  12.801  68.509  1.00  0.00    -0.206 A  
HETATM   20  C   UNL     1      -9.721  14.089  68.314  1.00  0.00    -0.225 A  
BRANCH  18  21
HETATM   21  O   UNL     1      -9.944  16.425  68.412  1.00  0.00    -0.225 OA 
BRANCH  21  22
HETATM   22  C   UNL     1     -10.774  17.101  67.465  1.00  0.00    -0.276 C  
BRANCH  22  23
HETATM   23  C   UNL     1     -10.784  18.600  67.710  1.00  0.00    -0.394 C  
BRANCH  23  24
HETATM   24  C   UNL     1     -10.217  19.425  66.546  1.00  0.00    -0.544 C  
BRANCH  24  25
HETATM   25  C   UNL     1      -8.972  20.170  67.035  1.00  0.00    -0.453 C  
BRANCH  25  26
HETATM   26  C   UNL     1      -7.629  19.435  66.877  1.00  0.00    -0.261 C  
HETATM   27  C   UNL     1      -6.525  20.460  66.549  1.00  0.00    -0.266 C  
HETATM   28  C   UNL     1      -6.060  21.225  67.788  1.00  0.00    -0.339 C  
HETATM   29  N   UNL     1      -5.541  20.296  68.786  1.00  0.00    -0.247 NA 
HETATM   30  H   UNL     1      -5.114  20.788  69.571  1.00  0.00     0.000 HD 
HETATM   31  C   UNL     1      -6.581  19.369  69.233  1.00  0.00    -0.326 C  
HETATM   32  C   UNL     1      -7.196  18.576  68.077  1.00  0.00    -0.257 C  
ENDBRANCH  25  26
ENDBRANCH  24  25
ENDBRANCH  23  24
ENDBRANCH  22  23
ENDBRANCH  21  22
ENDBRANCH  18  21
ENDBRANCH  14  15
ENDBRANCH  10  14
ENDBRANCH   8  10
ENDBRANCH   5   8
ENDBRANCH   4   5
ENDBRANCH   3   4
ENDBRANCH   2   3
TORSDOF 13
ENDMDL
MODEL      158
REMARK 921   NORMALIZED FREE ENERGY PREDICTED BY IDOCK:   -4.14 KCAL/MOL
REMARK 922        TOTAL FREE ENERGY PREDICTED BY IDOCK:   -9.83 KCAL/MOL
REMARK 923 INTER-LIGAND FREE ENERGY PREDICTED BY IDOCK:   -8.02 KCAL/MOL
REMARK 924 INTRA-LIGAND FREE ENERGY PREDICTED BY IDOCK:   -1.81 KCAL/MOL
REMARK 927      BINDING AFFINITY PREDICTED BY RF-SCORE:    0.00 PKD
ROOT
HETATM    1  C   UNL     1     -11.270   4.374  73.473  1.00  0.00    -0.375 C  
HETATM    2  C   UNL     1     -10.538   5.293  72.497  1.00  0.00    -0.276 C  
ENDROOT
BRANCH   2   3
HETATM    3  C   UNL     1      -9.878   4.438  71.429  1.00  0.00    -0.262 C  
BRANCH   3   4
HETATM    4  C   UNL     1      -8.930   5.154  70.463  1.00  0.00    -0.134 C  
BRANCH   4   5
HETATM    5  S   UNL     1      -9.582   4.807  68.815  1.00  0.00    -0.165 S  
HETATM    6  O   UNL     1      -9.742   3.378  68.674  1.00  0.00    -0.116 OA 
HETATM    7  O   UNL     1     -10.676   5.723  68.600  1.00  0.00    -0.246 OA 
BRANCH   5   8
HETATM    8  N   UNL     1      -8.346   5.219  67.721  1.00  0.00    -0.099 N  
HETATM    9  H   UNL     1      -7.360   5.312  67.968  1.00  0.00     0.000 HD 
BRANCH   8  10
HETATM   10  C   UNL     1      -8.921   5.436  66.301  1.00  0.00    -0.137 C  
HETATM   11  C   UNL     1      -8.589   4.222  65.432  1.00  0.00    -0.120 C  
HETATM   12  O   UNL     1      -9.231   3.877  64.452  1.00  0.00    -0.131 OA 
HETATM   13  O   UNL     1      -7.491   3.549  65.863  1.00  0.00    -0.074 OA 
BRANCH  10  14
HETATM   14  C   UNL     1      -8.456   6.721  65.590  1.00  0.00    -0.142 C  
BRANCH  14  15
HETATM   15  C   UNL     1      -8.842   7.995  66.297  1.00  0.00    -0.191 A  
HETATM   16  C   UNL     1      -7.814   8.820  66.768  1.00  0.00    -0.097 A  
HETATM   17  C   UNL     1      -8.101   9.873  67.631  1.00  0.00    -0.110 A  
HETATM   18  C   UNL     1      -9.412  10.111  68.050  1.00  0.00    -0.145 A  
HETATM   19  C   UNL     1     -10.170   8.347  66.581  1.00  0.00    -0.335 A  
HETATM   20  C   UNL     1     -10.452   9.387  67.470  1.00  0.00    -0.343 A  
BRANCH  18  21
HETATM   21  O   UNL     1      -9.768  11.001  69.033  1.00  0.00    -0.196 OA 
BRANCH  21  22
HETATM   22  C   UNL     1     -11.167  11.004  69.325  1.00  0.00    -0.257 C  
BRANCH  22  23
HETATM   23  C   UNL     1     -11.715  12.419  69.393  1.00  0.00    -0.384 C  
BRANCH  23  24
HETATM   24  C   UNL     1     -11.187  13.344  68.288  1.00  0.00    -0.310 C  
BRANCH  24  25
HETATM   25  C   UNL     1     -11.734  12.860  66.942  1.00  0.00    -0.445 C  
BRANCH  25  26
HETATM   26  C   UNL     1     -10.833  13.091  65.714  1.00  0.00    -0.292 C  
HETATM   27  C   UNL     1     -11.128  12.008  64.659  1.00  0.00    -0.375 C  
HETATM   28  C   UNL     1     -12.411  12.294  63.879  1.00  0.00    -0.509 C  
HETATM   29  N   UNL     1     -12.309  13.581  63.200  1.00  0.00    -1.024 NA 
HETATM   30  H   UNL     1     -13.102  13.741  62.577  1.00  0.00     0.000 HD 
HETATM   31  C   UNL     1     -12.151  14.672  64.161  1.00  0.00    -0.320 C  
HETATM   32  C   UNL     1     -10.933  14.483  65.068  1.00  0.00    -0.408 C  
ENDBRANCH  25  26
ENDBRANCH  24  25
ENDBRANCH  23  24
ENDBRANCH  22  23
ENDBRANCH  21  22
ENDBRANCH  18  21
ENDBRANCH  14  15
ENDBRANCH  10  14
ENDBRANCH   8  10
ENDBRANCH   5   8
ENDBRANCH   4   5
ENDBRANCH   3   4
ENDBRANCH   2   3
TORSDOF 13
ENDMDL
MODEL      159
REMARK 921   NORMALIZED FREE ENERGY PREDICTED BY IDOCK:   -4.14 KCAL/MOL
REMARK 922        TOTAL FREE ENERGY PREDICTED BY IDOCK:   -9.83 KCAL/MOL
REMARK 923 INTER-LIGAND FREE ENERGY PREDICTED BY IDOCK:   -7.22 KCAL/MOL
REMARK 924 INTRA-LIGAND FREE ENERGY PREDICTED BY IDOCK:   -2.61 KCAL/MOL
REMARK 927      BINDING AFFINITY PREDICTED BY RF-SCORE:    0.00 PKD
ROOT
HETATM    1  C   UNL     1      -7.792   9.582  70.131  1.00  0.00    -0.168 C  
HETATM    2  C   UNL     1      -7.404   9.661  68.656  1.00  0.00    -0.074 C  
ENDROOT
BRANCH   2   3
HETATM    3  C   UNL     1      -8.533  10.332  67.894  1.00  0.00    -0.118 C  
BRANCH   3   4
HETATM    4  C   UNL     1      -9.957   9.885  68.238  1.00  0.00    -0.151 C  
BRANCH   4   5
HETATM    5  S   UNL     1     -10.817  11.389  68.746  1.00  0.00    -0.221 S  
HETATM    6  O   UNL     1      -9.930  12.513  68.557  1.00  0.00    -0.219 OA 
HETATM    7  O   UNL     1     -12.127  11.341  68.145  1.00  0.00    -0.635 OA 
BRANCH   5   8
HETATM    8  N   UNL     1     -11.021  11.270  70.431  1.00  0.00    -0.264 N  
HETATM    9  H   UNL     1     -10.844  12.028  71.092  1.00  0.00     0.000 HD 
BRANCH   8  10
HETATM   10  C   UNL     1     -11.512   9.857  70.825  1.00  0.00    -0.354 C  
HETATM   11  C   UNL     1     -12.955   9.945  71.322  1.00  0.00    -0.395 C  
HETATM   12  O   UNL     1     -13.754   9.021  71.293  1.00  0.00    -0.318 OA 
HETATM   13  O   UNL     1     -13.272  11.172  71.808  1.00  0.00    -0.442 OA 
BRANCH  10  14
HETATM   14  C   UNL     1     -10.650   9.127  71.871  1.00  0.00    -0.303 C  
BRANCH  14  15
HETATM   15  C   UNL     1     -10.580   7.632  71.684  1.00  0.00    -0.233 A  
HETATM   16  C   UNL     1     -10.071   6.864  72.736  1.00  0.00    -0.199 A  
HETATM   17  C   UNL     1      -9.758   5.522  72.536  1.00  0.00    -0.173 A  
HETATM   18  C   UNL     1      -9.931   4.932  71.282  1.00  0.00    -0.201 A  
HETATM   19  C   UNL     1     -10.915   6.991  70.482  1.00  0.00    -0.297 A  
HETATM   20  C   UNL     1     -10.573   5.652  70.275  1.00  0.00    -0.370 A  
BRANCH  18  21
HETATM   21  O   UNL     1      -9.485   3.680  70.940  1.00  0.00    -0.139 OA 
BRANCH  21  22
HETATM   22  C   UNL     1      -9.034   3.581  69.587  1.00  0.00    -0.110 C  
BRANCH  22  23
HETATM   23  C   UNL     1      -7.522   3.685  69.500  1.00  0.00    -0.052 C  
BRANCH  23  24
HETATM   24  C   UNL     1      -7.023   4.496  68.295  1.00  0.00    -0.056 C  
BRANCH  24  25
HETATM   25  C   UNL     1      -7.916   5.729  68.132  1.00  0.00    -0.104 C  
BRANCH  25  26
HETATM   26  C   UNL     1      -8.352   6.072  66.695  1.00  0.00    -0.111 C  
HETATM   27  C   UNL     1      -8.653   4.768  65.932  1.00  0.00    -0.119 C  
HETATM   28  C   UNL     1     -10.016   4.184  66.299  1.00  0.00    -0.166 C  
HETATM   29  N   UNL     1     -11.072   5.146  65.997  1.00  0.00    -0.772 NA 
HETATM   30  H   UNL     1     -11.999   4.737  66.120  1.00  0.00     0.000 HD 
HETATM   31  C   UNL     1     -10.912   6.367  66.787  1.00  0.00    -0.251 C  
HETATM   32  C   UNL     1      -9.549   7.029  66.574  1.00  0.00    -0.201 C  
ENDBRANCH  25  26
ENDBRANCH  24  25
ENDBRANCH  23  24
ENDBRANCH  22  23
ENDBRANCH  21  22
ENDBRANCH  18  21
ENDBRANCH  14  15
ENDBRANCH  10  14
ENDBRANCH   8  10
ENDBRANCH   5   8
ENDBRANCH   4   5
ENDBRANCH   3   4
ENDBRANCH   2   3
TORSDOF 13
ENDMDL
MODEL      160
REMARK 921   NORMALIZED FREE ENERGY PREDICTED BY IDOCK:   -4.13 KCAL/MOL
REMARK 922        TOTAL FREE ENERGY PREDICTED BY IDOCK:   -9.81 KCAL/MOL
REMARK 923 INTER-LIGAND FREE ENERGY PREDICTED BY IDOCK:   -8.40 KCAL/MOL
REMARK 924 INTRA-LIGAND FREE ENERGY PREDICTED BY IDOCK:   -1.41 KCAL/MOL
REMARK 927      BINDING AFFINITY PREDICTED BY RF-SCORE:    0.00 PKD
ROOT
HETATM    1  C   UNL     1      -7.347   7.870  73.577  1.00  0.00    -0.166 C  
HETATM    2  C   UNL     1      -6.840   6.983  72.441  1.00  0.00    -0.061 C  
ENDROOT
BRANCH   2   3
HETATM    3  C   UNL     1      -7.978   6.755  71.461  1.00  0.00    -0.102 C  
BRANCH   3   4
HETATM    4  C   UNL     1      -9.394   7.034  71.974  1.00  0.00    -0.139 C  
BRANCH   4   5
HETATM    5  S   UNL     1     -10.086   8.240  70.821  1.00  0.00    -0.194 S  
HETATM    6  O   UNL     1      -9.326   9.463  70.922  1.00  0.00    -0.252 OA 
HETATM    7  O   UNL     1     -10.268   7.555  69.564  1.00  0.00    -0.196 OA 
BRANCH   5   8
HETATM    8  N   UNL     1     -11.630   8.633  71.419  1.00  0.00    -0.277 N  
HETATM    9  H   UNL     1     -12.215   8.005  71.972  1.00  0.00     0.000 HD 
BRANCH   8  10
HETATM   10  C   UNL     1     -12.026  10.071  71.009  1.00  0.00    -0.376 C  
HETATM   11  C   UNL     1     -13.105  10.587  71.962  1.00  0.00    -0.406 C  
HETATM   12  O   UNL     1     -13.314  11.769  72.194  1.00  0.00    -0.497 OA 
HETATM   13  O   UNL     1     -13.821   9.589  72.538  1.00  0.00    -0.409 OA 
BRANCH  10  14
HETATM   14  C   UNL     1     -12.503  10.234  69.553  1.00  0.00     0.245 C  
BRANCH  14  15
HETATM   15  C   UNL     1     -11.539  10.979  68.665  1.00  0.00    -0.385 A  
HETATM   16  C   UNL     1     -11.219  12.298  69.006  1.00  0.00    -0.319 A  
HETATM   17  C   UNL     1     -10.535  13.108  68.105  1.00  0.00    -0.255 A  
HETATM   18  C   UNL     1     -10.174  12.623  66.846  1.00  0.00    -0.234 A  
HETATM   19  C   UNL     1     -11.020  10.447  67.475  1.00  0.00    -0.358 A  
HETATM   20  C   UNL     1     -10.359  11.271  66.560  1.00  0.00    -0.284 A  
BRANCH  18  21
HETATM   21  O   UNL     1      -9.665  13.392  65.829  1.00  0.00    -0.230 OA 
BRANCH  21  22
HETATM   22  C   UNL     1     -10.579  13.594  64.750  1.00  0.00    -0.422 C  
BRANCH  22  23
HETATM   23  C   UNL     1     -11.567  14.704  65.063  1.00  0.00    -0.385 C  
BRANCH  23  24
HETATM   24  C   UNL     1     -11.084  16.102  64.651  1.00  0.00    -0.310 C  
BRANCH  24  25
HETATM   25  C   UNL     1     -10.194  16.661  65.766  1.00  0.00    -0.328 C  
BRANCH  25  26
HETATM   26  C   UNL     1     -10.746  17.873  66.539  1.00  0.00    -0.122 C  
HETATM   27  C   UNL     1     -10.288  17.788  68.008  1.00  0.00    -0.395 C  
HETATM   28  C   UNL     1      -8.835  18.225  68.187  1.00  0.00    -0.295 C  
HETATM   29  N   UNL     1      -8.665  19.601  67.732  1.00  0.00    -0.316 NA 
HETATM   30  H   UNL     1      -7.734  19.957  67.952  1.00  0.00     0.000 HD 
HETATM   31  C   UNL     1      -8.968  19.725  66.307  1.00  0.00    -0.376 C  
HETATM   32  C   UNL     1     -10.381  19.251  65.963  1.00  0.00    -0.556 C  
ENDBRANCH  25  26
ENDBRANCH  24  25
ENDBRANCH  23  24
ENDBRANCH  22  23
ENDBRANCH  21  22
ENDBRANCH  18  21
ENDBRANCH  14  15
ENDBRANCH  10  14
ENDBRANCH   8  10
ENDBRANCH   5   8
ENDBRANCH   4   5
ENDBRANCH   3   4
ENDBRANCH   2   3
TORSDOF 13
ENDMDL
MODEL      161
REMARK 921   NORMALIZED FREE ENERGY PREDICTED BY IDOCK:   -4.12 KCAL/MOL
REMARK 922        TOTAL FREE ENERGY PREDICTED BY IDOCK:   -9.80 KCAL/MOL
REMARK 923 INTER-LIGAND FREE ENERGY PREDICTED BY IDOCK:   -7.57 KCAL/MOL
REMARK 924 INTRA-LIGAND FREE ENERGY PREDICTED BY IDOCK:   -2.23 KCAL/MOL
REMARK 927      BINDING AFFINITY PREDICTED BY RF-SCORE:    0.00 PKD
ROOT
HETATM    1  C   UNL     1      -7.488   9.404  68.839  1.00  0.00    -0.074 C  
HETATM    2  C   UNL     1      -8.006   9.851  70.204  1.00  0.00    -0.181 C  
ENDROOT
BRANCH   2   3
HETATM    3  C   UNL     1      -9.477   9.485  70.306  1.00  0.00    -0.307 C  
BRANCH   3   4
HETATM    4  C   UNL     1      -9.937   8.845  71.619  1.00  0.00    -0.327 C  
BRANCH   4   5
HETATM    5  S   UNL     1     -10.595   7.229  71.153  1.00  0.00    -0.223 S  
HETATM    6  O   UNL     1     -10.421   6.322  72.264  1.00  0.00    -0.192 OA 
HETATM    7  O   UNL     1     -11.887   7.464  70.555  1.00  0.00    -0.254 OA 
BRANCH   5   8
HETATM    8  N   UNL     1      -9.567   6.633  69.935  1.00  0.00    -0.155 N  
HETATM    9  H   UNL     1      -8.627   6.983  69.748  1.00  0.00     0.000 HD 
BRANCH   8  10
HETATM   10  C   UNL     1     -10.253   5.490  69.151  1.00  0.00    -0.239 C  
HETATM   11  C   UNL     1      -9.262   4.339  68.968  1.00  0.00    -0.145 C  
HETATM   12  O   UNL     1      -9.581   3.172  68.799  1.00  0.00    -0.157 OA 
HETATM   13  O   UNL     1      -7.968   4.745  69.014  1.00  0.00    -0.074 OA 
BRANCH  10  14
HETATM   14  C   UNL     1     -10.839   5.887  67.783  1.00  0.00    -0.326 C  
BRANCH  14  15
HETATM   15  C   UNL     1     -10.074   6.975  67.073  1.00  0.00    -0.298 A  
HETATM   16  C   UNL     1     -10.598   8.272  67.106  1.00  0.00    -0.340 A  
HETATM   17  C   UNL     1     -10.075   9.260  66.276  1.00  0.00    -0.322 A  
HETATM   18  C   UNL     1      -9.035   8.967  65.392  1.00  0.00    -0.200 A  
HETATM   19  C   UNL     1      -8.919   6.735  66.314  1.00  0.00    -0.170 A  
HETATM   20  C   UNL     1      -8.415   7.721  65.462  1.00  0.00    -0.146 A  
BRANCH  18  21
HETATM   21  O   UNL     1      -8.579   9.816  64.414  1.00  0.00    -0.159 OA 
BRANCH  21  22
HETATM   22  C   UNL     1      -9.143  11.127  64.483  1.00  0.00    -0.054 C  
BRANCH  22  23
HETATM   23  C   UNL     1     -10.110  11.373  63.337  1.00  0.00    -0.444 C  
BRANCH  23  24
HETATM   24  C   UNL     1     -11.061  12.555  63.569  1.00  0.00    -0.497 C  
BRANCH  24  25
HETATM   25  C   UNL     1     -10.460  13.464  64.645  1.00  0.00    -0.428 C  
BRANCH  25  26
HETATM   26  C   UNL     1     -11.459  14.169  65.581  1.00  0.00    -0.325 C  
HETATM   27  C   UNL     1     -12.262  13.107  66.358  1.00  0.00    -0.396 C  
HETATM   28  C   UNL     1     -11.464  12.511  67.516  1.00  0.00    -0.336 C  
HETATM   29  N   UNL     1     -11.072  13.563  68.449  1.00  0.00    -0.259 NA 
HETATM   30  H   UNL     1     -10.643  13.178  69.291  1.00  0.00     0.000 HD 
HETATM   31  C   UNL     1     -10.201  14.543  67.801  1.00  0.00    -0.226 C  
HETATM   32  C   UNL     1     -10.848  15.178  66.568  1.00  0.00    -0.317 C  
ENDBRANCH  25  26
ENDBRANCH  24  25
ENDBRANCH  23  24
ENDBRANCH  22  23
ENDBRANCH  21  22
ENDBRANCH  18  21
ENDBRANCH  14  15
ENDBRANCH  10  14
ENDBRANCH   8  10
ENDBRANCH   5   8
ENDBRANCH   4   5
ENDBRANCH   3   4
ENDBRANCH   2   3
TORSDOF 13
ENDMDL
MODEL      162
REMARK 921   NORMALIZED FREE ENERGY PREDICTED BY IDOCK:   -4.11 KCAL/MOL
REMARK 922        TOTAL FREE ENERGY PREDICTED BY IDOCK:   -9.78 KCAL/MOL
REMARK 923 INTER-LIGAND FREE ENERGY PREDICTED BY IDOCK:   -6.94 KCAL/MOL
REMARK 924 INTRA-LIGAND FREE ENERGY PREDICTED BY IDOCK:   -2.83 KCAL/MOL
REMARK 927      BINDING AFFINITY PREDICTED BY RF-SCORE:    0.00 PKD
ROOT
HETATM    1  C   UNL     1      -6.600  11.642  69.400  1.00  0.00    -0.115 C  
HETATM    2  C   UNL     1      -6.963  12.428  68.142  1.00  0.00    -0.087 C  
ENDROOT
BRANCH   2   3
HETATM    3  C   UNL     1      -8.474  12.560  68.072  1.00  0.00    -0.173 C  
BRANCH   3   4
HETATM    4  C   UNL     1      -9.293  11.341  68.507  1.00  0.00    -0.182 C  
BRANCH   4   5
HETATM    5  S   UNL     1     -10.999  11.926  68.605  1.00  0.00    -0.243 S  
HETATM    6  O   UNL     1     -11.016  13.344  68.335  1.00  0.00    -0.247 OA 
HETATM    7  O   UNL     1     -11.801  10.994  67.848  1.00  0.00    -0.600 OA 
BRANCH   5   8
HETATM    8  N   UNL     1     -11.453  11.784  70.239  1.00  0.00    -0.510 N  
HETATM    9  H   UNL     1     -11.446  12.552  70.911  1.00  0.00     0.000 HD 
BRANCH   8  10
HETATM   10  C   UNL     1     -11.878  10.333  70.565  1.00  0.00    -0.329 C  
HETATM   11  C   UNL     1     -13.126  10.360  71.449  1.00  0.00    -0.413 C  
HETATM   12  O   UNL     1     -13.941   9.453  71.522  1.00  0.00    -0.290 OA 
HETATM   13  O   UNL     1     -13.244  11.510  72.159  1.00  0.00    -0.505 OA 
BRANCH  10  14
HETATM   14  C   UNL     1     -10.795   9.462  71.228  1.00  0.00    -0.431 C  
BRANCH  14  15
HETATM   15  C   UNL     1     -10.318   8.311  70.378  1.00  0.00    -0.214 A  
HETATM   16  C   UNL     1     -11.237   7.715  69.508  1.00  0.00     0.063 A  
HETATM   17  C   UNL     1     -10.930   6.510  68.884  1.00  0.00    -0.376 A  
HETATM   18  C   UNL     1      -9.711   5.873  69.129  1.00  0.00    -0.140 A  
HETATM   19  C   UNL     1      -9.033   7.760  70.481  1.00  0.00    -0.150 A  
HETATM   20  C   UNL     1      -8.738   6.535  69.876  1.00  0.00    -0.140 A  
BRANCH  18  21
HETATM   21  O   UNL     1      -9.393   4.606  68.708  1.00  0.00    -0.121 OA 
BRANCH  21  22
HETATM   22  C   UNL     1      -9.664   4.375  67.324  1.00  0.00    -0.184 C  
BRANCH  22  23
HETATM   23  C   UNL     1      -8.394   4.439  66.494  1.00  0.00    -0.105 C  
BRANCH  23  24
HETATM   24  C   UNL     1      -7.692   5.804  66.535  1.00  0.00    -0.100 C  
BRANCH  24  25
HETATM   25  C   UNL     1      -8.593   6.838  65.855  1.00  0.00    -0.153 C  
BRANCH  25  26
HETATM   26  C   UNL     1      -8.755   8.187  66.579  1.00  0.00    -0.160 C  
HETATM   27  C   UNL     1      -7.365   8.819  66.790  1.00  0.00    -0.082 C  
HETATM   28  C   UNL     1      -6.826   9.468  65.516  1.00  0.00    -0.085 C  
HETATM   29  N   UNL     1      -7.739  10.511  65.059  1.00  0.00    -0.302 NA 
HETATM   30  H   UNL     1      -7.345  11.041  64.281  1.00  0.00     0.000 HD 
HETATM   31  C   UNL     1      -9.048   9.953  64.723  1.00  0.00    -0.237 C  
HETATM   32  C   UNL     1      -9.685   9.202  65.895  1.00  0.00    -0.336 C  
ENDBRANCH  25  26
ENDBRANCH  24  25
ENDBRANCH  23  24
ENDBRANCH  22  23
ENDBRANCH  21  22
ENDBRANCH  18  21
ENDBRANCH  14  15
ENDBRANCH  10  14
ENDBRANCH   8  10
ENDBRANCH   5   8
ENDBRANCH   4   5
ENDBRANCH   3   4
ENDBRANCH   2   3
TORSDOF 13
ENDMDL
MODEL      163
REMARK 921   NORMALIZED FREE ENERGY PREDICTED BY IDOCK:   -4.11 KCAL/MOL
REMARK 922        TOTAL FREE ENERGY PREDICTED BY IDOCK:   -9.77 KCAL/MOL
REMARK 923 INTER-LIGAND FREE ENERGY PREDICTED BY IDOCK:   -8.02 KCAL/MOL
REMARK 924 INTRA-LIGAND FREE ENERGY PREDICTED BY IDOCK:   -1.75 KCAL/MOL
REMARK 927      BINDING AFFINITY PREDICTED BY RF-SCORE:    0.00 PKD
ROOT
HETATM    1  C   UNL     1     -10.513   5.767  68.282  1.00  0.00    -0.281 C  
HETATM    2  C   UNL     1     -10.926   6.657  67.112  1.00  0.00    -0.478 C  
ENDROOT
BRANCH   2   3
HETATM    3  C   UNL     1     -10.575   8.095  67.450  1.00  0.00    -0.325 C  
BRANCH   3   4
HETATM    4  C   UNL     1     -10.741   8.518  68.913  1.00  0.00    -0.073 C  
BRANCH   4   5
HETATM    5  S   UNL     1     -11.052  10.296  68.861  1.00  0.00    -0.211 S  
HETATM    6  O   UNL     1     -11.350  10.672  67.498  1.00  0.00    -0.408 OA 
HETATM    7  O   UNL     1     -11.951  10.593  69.949  1.00  0.00    -0.288 OA 
BRANCH   5   8
HETATM    8  N   UNL     1      -9.564  11.046  69.206  1.00  0.00    -0.421 N  
HETATM    9  H   UNL     1      -9.124  11.064  70.126  1.00  0.00     0.000 HD 
BRANCH   8  10
HETATM   10  C   UNL     1      -8.970  11.696  67.934  1.00  0.00    -0.170 C  
HETATM   11  C   UNL     1      -8.015  10.708  67.262  1.00  0.00    -0.116 C  
HETATM   12  O   UNL     1      -7.733  10.718  66.074  1.00  0.00    -0.153 OA 
HETATM   13  O   UNL     1      -7.500   9.800  68.129  1.00  0.00    -0.080 OA 
BRANCH  10  14
HETATM   14  C   UNL     1      -8.251  13.040  68.153  1.00  0.00    -0.157 C  
BRANCH  14  15
HETATM   15  C   UNL     1      -9.163  14.240  68.142  1.00  0.00    -0.202 A  
HETATM   16  C   UNL     1     -10.043  14.384  67.064  1.00  0.00    -0.256 A  
HETATM   17  C   UNL     1     -10.729  15.580  66.875  1.00  0.00    -0.317 A  
HETATM   18  C   UNL     1     -10.537  16.655  67.746  1.00  0.00    -0.342 A  
HETATM   19  C   UNL     1      -9.110  15.256  69.108  1.00  0.00    -0.236 A  
HETATM   20  C   UNL     1      -9.778  16.466  68.900  1.00  0.00    -0.257 A  
BRANCH  18  21
HETATM   21  O   UNL     1     -11.022  17.922  67.542  1.00  0.00    -0.304 OA 
BRANCH  21  22
HETATM   22  C   UNL     1     -10.284  18.670  66.573  1.00  0.00    -0.412 C  
BRANCH  22  23
HETATM   23  C   UNL     1     -10.121  20.118  67.001  1.00  0.00    -0.599 C  
BRANCH  23  24
HETATM   24  C   UNL     1      -8.661  20.547  67.201  1.00  0.00    -0.364 C  
BRANCH  24  25
HETATM   25  C   UNL     1      -7.990  19.567  68.168  1.00  0.00    -0.353 C  
BRANCH  25  26
HETATM   26  C   UNL     1      -6.485  19.319  67.957  1.00  0.00    -0.249 C  
HETATM   27  C   UNL     1      -6.182  17.824  68.177  1.00  0.00    -0.173 C  
HETATM   28  C   UNL     1      -6.580  16.970  66.974  1.00  0.00    -0.202 C  
HETATM   29  N   UNL     1      -5.862  17.413  65.784  1.00  0.00    -0.138 NA 
HETATM   30  H   UNL     1      -6.018  16.784  64.995  1.00  0.00     0.000 HD 
HETATM   31  C   UNL     1      -6.203  18.794  65.448  1.00  0.00    -0.282 C  
HETATM   32  C   UNL     1      -5.922  19.765  66.597  1.00  0.00    -0.170 C  
ENDBRANCH  25  26
ENDBRANCH  24  25
ENDBRANCH  23  24
ENDBRANCH  22  23
ENDBRANCH  21  22
ENDBRANCH  18  21
ENDBRANCH  14  15
ENDBRANCH  10  14
ENDBRANCH   8  10
ENDBRANCH   5   8
ENDBRANCH   4   5
ENDBRANCH   3   4
ENDBRANCH   2   3
TORSDOF 13
ENDMDL
MODEL      164
REMARK 921   NORMALIZED FREE ENERGY PREDICTED BY IDOCK:   -4.11 KCAL/MOL
REMARK 922        TOTAL FREE ENERGY PREDICTED BY IDOCK:   -9.77 KCAL/MOL
REMARK 923 INTER-LIGAND FREE ENERGY PREDICTED BY IDOCK:   -8.92 KCAL/MOL
REMARK 924 INTRA-LIGAND FREE ENERGY PREDICTED BY IDOCK:   -0.84 KCAL/MOL
REMARK 927      BINDING AFFINITY PREDICTED BY RF-SCORE:    0.00 PKD
ROOT
HETATM    1  C   UNL     1     -12.449  15.365  73.197  1.00  0.00    -0.572 C  
HETATM    2  C   UNL     1     -13.088  14.170  72.492  1.00  0.00    -0.554 C  
ENDROOT
BRANCH   2   3
HETATM    3  C   UNL     1     -12.586  14.127  71.060  1.00  0.00    -0.439 C  
BRANCH   3   4
HETATM    4  C   UNL     1     -12.763  15.403  70.230  1.00  0.00    -0.298 C  
BRANCH   4   5
HETATM    5  S   UNL     1     -11.528  15.289  68.916  1.00  0.00    -0.352 S  
HETATM    6  O   UNL     1     -11.313  16.609  68.372  1.00  0.00    -0.321 OA 
HETATM    7  O   UNL     1     -10.444  14.490  69.434  1.00  0.00    -0.212 OA 
BRANCH   5   8
HETATM    8  N   UNL     1     -12.259  14.409  67.657  1.00  0.00    -0.623 N  
HETATM    9  H   UNL     1     -13.038  13.761  67.778  1.00  0.00     0.000 HD 
BRANCH   8  10
HETATM   10  C   UNL     1     -11.580  14.724  66.303  1.00  0.00    -0.298 C  
HETATM   11  C   UNL     1     -12.567  14.451  65.168  1.00  0.00    -0.315 C  
HETATM   12  O   UNL     1     -12.522  14.983  64.069  1.00  0.00    -0.796 OA 
HETATM   13  O   UNL     1     -13.519  13.544  65.504  1.00  0.00    -0.438 OA 
BRANCH  10  14
HETATM   14  C   UNL     1     -10.263  13.971  66.034  1.00  0.00    -0.313 C  
BRANCH  14  15
HETATM   15  C   UNL     1     -10.399  12.470  66.027  1.00  0.00    -0.277 A  
HETATM   16  C   UNL     1     -10.695  11.834  67.237  1.00  0.00    -0.279 A  
HETATM   17  C   UNL     1     -10.593  10.449  67.344  1.00  0.00    -0.321 A  
HETATM   18  C   UNL     1     -10.180   9.681  66.253  1.00  0.00    -0.216 A  
HETATM   19  C   UNL     1     -10.157  11.680  64.893  1.00  0.00    -0.303 A  
HETATM   20  C   UNL     1     -10.028  10.294  65.010  1.00  0.00    -0.393 A  
BRANCH  18  21
HETATM   21  O   UNL     1      -9.876   8.344  66.310  1.00  0.00    -0.245 OA 
BRANCH  21  22
HETATM   22  C   UNL     1      -9.205   7.958  67.512  1.00  0.00    -0.136 C  
BRANCH  22  23
HETATM   23  C   UNL     1      -8.435   6.662  67.323  1.00  0.00    -0.120 C  
BRANCH  23  24
HETATM   24  C   UNL     1      -9.320   5.408  67.324  1.00  0.00    -0.118 C  
BRANCH  24  25
HETATM   25  C   UNL     1      -9.819   5.162  68.751  1.00  0.00    -0.235 C  
BRANCH  25  26
HETATM   26  C   UNL     1      -8.737   5.016  69.838  1.00  0.00    -0.122 C  
HETATM   27  C   UNL     1      -9.303   5.506  71.185  1.00  0.00    -0.181 C  
HETATM   28  C   UNL     1     -10.222   4.472  71.837  1.00  0.00    -0.171 C  
HETATM   29  N   UNL     1      -9.493   3.229  72.070  1.00  0.00    -0.124 NA 
HETATM   30  H   UNL     1     -10.047   2.566  72.612  1.00  0.00     0.000 HD 
HETATM   31  C   UNL     1      -9.033   2.646  70.810  1.00  0.00    -0.094 C  
HETATM   32  C   UNL     1      -8.151   3.604  70.007  1.00  0.00    -0.059 C  
ENDBRANCH  25  26
ENDBRANCH  24  25
ENDBRANCH  23  24
ENDBRANCH  22  23
ENDBRANCH  21  22
ENDBRANCH  18  21
ENDBRANCH  14  15
ENDBRANCH  10  14
ENDBRANCH   8  10
ENDBRANCH   5   8
ENDBRANCH   4   5
ENDBRANCH   3   4
ENDBRANCH   2   3
TORSDOF 13
ENDMDL
MODEL      165
REMARK 921   NORMALIZED FREE ENERGY PREDICTED BY IDOCK:   -4.10 KCAL/MOL
REMARK 922        TOTAL FREE ENERGY PREDICTED BY IDOCK:   -9.76 KCAL/MOL
REMARK 923 INTER-LIGAND FREE ENERGY PREDICTED BY IDOCK:   -8.28 KCAL/MOL
REMARK 924 INTRA-LIGAND FREE ENERGY PREDICTED BY IDOCK:   -1.48 KCAL/MOL
REMARK 927      BINDING AFFINITY PREDICTED BY RF-SCORE:    0.00 PKD
ROOT
HETATM    1  C   UNL     1      -6.729   9.597  70.694  1.00  0.00    -0.116 C  
HETATM    2  C   UNL     1      -7.525  10.103  69.494  1.00  0.00    -0.133 C  
ENDROOT
BRANCH   2   3
HETATM    3  C   UNL     1      -8.820   9.314  69.405  1.00  0.00    -0.149 C  
BRANCH   3   4
HETATM    4  C   UNL     1     -10.117  10.092  69.648  1.00  0.00    -0.236 C  
BRANCH   4   5
HETATM    5  S   UNL     1     -10.932  10.172  68.039  1.00  0.00    -0.240 S  
HETATM    6  O   UNL     1     -10.876   8.863  67.429  1.00  0.00    -0.218 OA 
HETATM    7  O   UNL     1     -12.180  10.868  68.239  1.00  0.00    -0.526 OA 
BRANCH   5   8
HETATM    8  N   UNL     1      -9.947  11.154  67.059  1.00  0.00    -0.189 N  
HETATM    9  H   UNL     1      -9.303  11.863  67.410  1.00  0.00     0.000 HD 
BRANCH   8  10
HETATM   10  C   UNL     1     -10.163  10.826  65.562  1.00  0.00    -0.266 C  
HETATM   11  C   UNL     1      -8.865  10.266  64.977  1.00  0.00    -0.187 C  
HETATM   12  O   UNL     1      -8.807   9.531  64.003  1.00  0.00    -0.216 OA 
HETATM   13  O   UNL     1      -7.763  10.670  65.658  1.00  0.00    -0.153 OA 
BRANCH  10  14
HETATM   14  C   UNL     1     -10.656  11.999  64.694  1.00  0.00    -0.351 C  
BRANCH  14  15
HETATM   15  C   UNL     1     -10.828  13.296  65.444  1.00  0.00    -0.304 A  
HETATM   16  C   UNL     1      -9.731  14.161  65.516  1.00  0.00    -0.166 A  
HETATM   17  C   UNL     1      -9.751  15.247  66.387  1.00  0.00    -0.308 A  
HETATM   18  C   UNL     1     -10.856  15.476  67.210  1.00  0.00    -0.313 A  
HETATM   19  C   UNL     1     -11.998  13.633  66.140  1.00  0.00    -0.453 A  
HETATM   20  C   UNL     1     -12.005  14.706  67.036  1.00  0.00    -0.301 A  
BRANCH  18  21
HETATM   21  O   UNL     1     -10.897  16.402  68.223  1.00  0.00    -0.318 OA 
BRANCH  21  22
HETATM   22  C   UNL     1     -10.105  17.565  67.970  1.00  0.00    -0.332 C  
BRANCH  22  23
HETATM   23  C   UNL     1     -10.879  18.596  67.167  1.00  0.00    -0.341 C  
BRANCH  23  24
HETATM   24  C   UNL     1     -10.189  19.965  67.083  1.00  0.00    -0.579 C  
BRANCH  24  25
HETATM   25  C   UNL     1      -8.981  19.963  68.024  1.00  0.00    -0.352 C  
BRANCH  25  26
HETATM   26  C   UNL     1      -7.605  20.195  67.372  1.00  0.00    -0.334 C  
HETATM   27  C   UNL     1      -6.509  19.597  68.276  1.00  0.00    -0.286 C  
HETATM   28  C   UNL     1      -6.413  18.078  68.141  1.00  0.00    -0.191 C  
HETATM   29  N   UNL     1      -6.118  17.714  66.759  1.00  0.00    -0.154 NA 
HETATM   30  H   UNL     1      -5.930  16.715  66.666  1.00  0.00     0.000 HD 
HETATM   31  C   UNL     1      -7.188  18.147  65.861  1.00  0.00    -0.240 C  
HETATM   32  C   UNL     1      -7.448  19.653  65.942  1.00  0.00    -0.327 C  
ENDBRANCH  25  26
ENDBRANCH  24  25
ENDBRANCH  23  24
ENDBRANCH  22  23
ENDBRANCH  21  22
ENDBRANCH  18  21
ENDBRANCH  14  15
ENDBRANCH  10  14
ENDBRANCH   8  10
ENDBRANCH   5   8
ENDBRANCH   4   5
ENDBRANCH   3   4
ENDBRANCH   2   3
TORSDOF 13
ENDMDL
MODEL      166
REMARK 921   NORMALIZED FREE ENERGY PREDICTED BY IDOCK:   -4.10 KCAL/MOL
REMARK 922        TOTAL FREE ENERGY PREDICTED BY IDOCK:   -9.76 KCAL/MOL
REMARK 923 INTER-LIGAND FREE ENERGY PREDICTED BY IDOCK:   -9.46 KCAL/MOL
REMARK 924 INTRA-LIGAND FREE ENERGY PREDICTED BY IDOCK:   -0.31 KCAL/MOL
REMARK 927      BINDING AFFINITY PREDICTED BY RF-SCORE:    0.00 PKD
ROOT
HETATM    1  C   UNL     1      -5.206   8.919  72.853  1.00  0.00    -0.071 C  
HETATM    2  C   UNL     1      -5.708   7.708  73.637  1.00  0.00    -0.049 C  
ENDROOT
BRANCH   2   3
HETATM    3  C   UNL     1      -6.761   6.996  72.806  1.00  0.00    -0.068 C  
BRANCH   3   4
HETATM    4  C   UNL     1      -8.138   6.812  73.451  1.00  0.00    -0.102 C  
BRANCH   4   5
HETATM    5  S   UNL     1      -9.298   7.631  72.335  1.00  0.00    -0.173 S  
HETATM    6  O   UNL     1      -8.921   9.020  72.217  1.00  0.00    -0.360 OA 
HETATM    7  O   UNL     1      -9.436   6.776  71.180  1.00  0.00    -0.163 OA 
BRANCH   5   8
HETATM    8  N   UNL     1     -10.796   7.649  73.141  1.00  0.00    -0.399 N  
HETATM    9  H   UNL     1     -10.955   7.274  74.077  1.00  0.00     0.000 HD 
BRANCH   8  10
HETATM   10  C   UNL     1     -11.883   8.312  72.263  1.00  0.00    -0.388 C  
HETATM   11  C   UNL     1     -12.967   7.283  71.939  1.00  0.00    -0.250 C  
HETATM   12  O   UNL     1     -14.123   7.562  71.661  1.00  0.00    -0.411 OA 
HETATM   13  O   UNL     1     -12.514   6.005  71.994  1.00  0.00    -0.164 OA 
BRANCH  10  14
HETATM   14  C   UNL     1     -11.375   8.953  70.957  1.00  0.00    -0.350 C  
BRANCH  14  15
HETATM   15  C   UNL     1     -11.934  10.327  70.683  1.00  0.00    -0.436 A  
HETATM   16  C   UNL     1     -11.599  10.939  69.471  1.00  0.00    -0.384 A  
HETATM   17  C   UNL     1     -11.880  12.287  69.266  1.00  0.00    -0.363 A  
HETATM   18  C   UNL     1     -12.484  13.047  70.270  1.00  0.00    -0.147 A  
HETATM   19  C   UNL     1     -12.696  11.048  71.614  1.00  0.00    -0.483 A  
HETATM   20  C   UNL     1     -12.951  12.408  71.418  1.00  0.00    -0.348 A  
BRANCH  18  21
HETATM   21  O   UNL     1     -12.634  14.411  70.234  1.00  0.00    -0.345 OA 
BRANCH  21  22
HETATM   22  C   UNL     1     -11.592  15.122  70.907  1.00  0.00    -0.338 C  
BRANCH  22  23
HETATM   23  C   UNL     1     -10.663  15.806  69.920  1.00  0.00    -0.332 C  
BRANCH  23  24
HETATM   24  C   UNL     1     -11.324  16.148  68.577  1.00  0.00    -0.359 C  
BRANCH  24  25
HETATM   25  C   UNL     1     -10.320  16.925  67.721  1.00  0.00    -0.327 C  
BRANCH  25  26
HETATM   26  C   UNL     1     -10.044  18.381  68.142  1.00  0.00    -0.408 C  
HETATM   27  C   UNL     1      -8.551  18.696  67.927  1.00  0.00    -0.305 C  
HETATM   28  C   UNL     1      -8.223  18.966  66.459  1.00  0.00    -0.297 C  
HETATM   29  N   UNL     1      -9.006  20.096  65.969  1.00  0.00    -0.576 NA 
HETATM   30  H   UNL     1      -8.718  20.373  65.030  1.00  0.00     0.000 HD 
HETATM   31  C   UNL     1     -10.438  19.810  66.032  1.00  0.00    -0.506 C  
HETATM   32  C   UNL     1     -10.904  19.448  67.444  1.00  0.00    -0.555 C  
ENDBRANCH  25  26
ENDBRANCH  24  25
ENDBRANCH  23  24
ENDBRANCH  22  23
ENDBRANCH  21  22
ENDBRANCH  18  21
ENDBRANCH  14  15
ENDBRANCH  10  14
ENDBRANCH   8  10
ENDBRANCH   5   8
ENDBRANCH   4   5
ENDBRANCH   3   4
ENDBRANCH   2   3
TORSDOF 13
ENDMDL
MODEL      167
REMARK 921   NORMALIZED FREE ENERGY PREDICTED BY IDOCK:   -4.10 KCAL/MOL
REMARK 922        TOTAL FREE ENERGY PREDICTED BY IDOCK:   -9.75 KCAL/MOL
REMARK 923 INTER-LIGAND FREE ENERGY PREDICTED BY IDOCK:   -7.32 KCAL/MOL
REMARK 924 INTRA-LIGAND FREE ENERGY PREDICTED BY IDOCK:   -2.43 KCAL/MOL
REMARK 927      BINDING AFFINITY PREDICTED BY RF-SCORE:    0.00 PKD
ROOT
HETATM    1  C   UNL     1     -12.378  12.378  63.382  1.00  0.00    -0.603 C  
HETATM    2  C   UNL     1     -12.249  13.724  64.093  1.00  0.00    -0.443 C  
ENDROOT
BRANCH   2   3
HETATM    3  C   UNL     1     -12.712  13.559  65.529  1.00  0.00    -0.493 C  
BRANCH   3   4
HETATM    4  C   UNL     1     -11.856  14.226  66.610  1.00  0.00    -0.421 C  
BRANCH   4   5
HETATM    5  S   UNL     1     -11.192  12.867  67.596  1.00  0.00    -0.296 S  
HETATM    6  O   UNL     1     -11.139  13.284  68.978  1.00  0.00    -0.255 OA 
HETATM    7  O   UNL     1     -11.893  11.675  67.185  1.00  0.00    -0.608 OA 
BRANCH   5   8
HETATM    8  N   UNL     1      -9.566  12.693  67.127  1.00  0.00    -0.202 N  
HETATM    9  H   UNL     1      -9.182  13.012  66.237  1.00  0.00     0.000 HD 
BRANCH   8  10
HETATM   10  C   UNL     1      -8.749  11.986  68.235  1.00  0.00    -0.178 C  
HETATM   11  C   UNL     1      -7.383  12.662  68.363  1.00  0.00    -0.118 C  
HETATM   12  O   UNL     1      -6.700  12.652  69.375  1.00  0.00    -0.097 OA 
HETATM   13  O   UNL     1      -6.995  13.287  67.222  1.00  0.00    -0.138 OA 
BRANCH  10  14
HETATM   14  C   UNL     1      -8.559  10.470  68.047  1.00  0.00    -0.121 C  
BRANCH  14  15
HETATM   15  C   UNL     1      -9.143   9.630  69.155  1.00  0.00    -0.154 A  
HETATM   16  C   UNL     1     -10.462   9.185  69.013  1.00  0.00    -0.238 A  
HETATM   17  C   UNL     1     -11.131   8.620  70.096  1.00  0.00    -0.199 A  
HETATM   18  C   UNL     1     -10.501   8.503  71.337  1.00  0.00    -0.237 A  
HETATM   19  C   UNL     1      -8.463   9.349  70.349  1.00  0.00    -0.247 A  
HETATM   20  C   UNL     1      -9.145   8.807  71.442  1.00  0.00    -0.313 A  
BRANCH  18  21
HETATM   21  O   UNL     1     -11.130   8.131  72.499  1.00  0.00    -0.334 OA 
BRANCH  21  22
HETATM   22  C   UNL     1     -10.727   6.849  72.984  1.00  0.00    -0.297 C  
BRANCH  22  23
HETATM   23  C   UNL     1     -11.014   5.758  71.966  1.00  0.00    -0.317 C  
BRANCH  23  24
HETATM   24  C   UNL     1      -9.801   4.873  71.645  1.00  0.00    -0.245 C  
BRANCH  24  25
HETATM   25  C   UNL     1      -9.640   4.796  70.124  1.00  0.00    -0.265 C  
BRANCH  25  26
HETATM   26  C   UNL     1      -8.731   5.858  69.478  1.00  0.00    -0.116 C  
HETATM   27  C   UNL     1      -7.258   5.492  69.743  1.00  0.00    -0.065 C  
HETATM   28  C   UNL     1      -6.763   4.380  68.818  1.00  0.00    -0.046 C  
HETATM   29  N   UNL     1      -6.890   4.793  67.424  1.00  0.00    -0.055 NA 
HETATM   30  H   UNL     1      -6.456   4.119  66.792  1.00  0.00     0.000 HD 
HETATM   31  C   UNL     1      -8.289   5.038  67.074  1.00  0.00    -0.107 C  
HETATM   32  C   UNL     1      -8.944   6.089  67.973  1.00  0.00    -0.112 C  
ENDBRANCH  25  26
ENDBRANCH  24  25
ENDBRANCH  23  24
ENDBRANCH  22  23
ENDBRANCH  21  22
ENDBRANCH  18  21
ENDBRANCH  14  15
ENDBRANCH  10  14
ENDBRANCH   8  10
ENDBRANCH   5   8
ENDBRANCH   4   5
ENDBRANCH   3   4
ENDBRANCH   2   3
TORSDOF 13
ENDMDL
MODEL      168
REMARK 921   NORMALIZED FREE ENERGY PREDICTED BY IDOCK:   -4.08 KCAL/MOL
REMARK 922        TOTAL FREE ENERGY PREDICTED BY IDOCK:   -9.72 KCAL/MOL
REMARK 923 INTER-LIGAND FREE ENERGY PREDICTED BY IDOCK:   -7.97 KCAL/MOL
REMARK 924 INTRA-LIGAND FREE ENERGY PREDICTED BY IDOCK:   -1.75 KCAL/MOL
REMARK 927      BINDING AFFINITY PREDICTED BY RF-SCORE:    0.00 PKD
ROOT
HETATM    1  C   UNL     1      -9.664   4.771  73.329  1.00  0.00    -0.156 C  
HETATM    2  C   UNL     1      -9.544   5.856  72.262  1.00  0.00    -0.165 C  
ENDROOT
BRANCH   2   3
HETATM    3  C   UNL     1      -8.080   6.232  72.117  1.00  0.00    -0.109 C  
BRANCH   3   4
HETATM    4  C   UNL     1      -7.664   6.887  70.796  1.00  0.00    -0.092 C  
BRANCH   4   5
HETATM    5  S   UNL     1      -7.351   8.618  71.203  1.00  0.00    -0.097 S  
HETATM    6  O   UNL     1      -7.421   8.774  72.637  1.00  0.00    -0.345 OA 
HETATM    7  O   UNL     1      -6.189   9.018  70.446  1.00  0.00    -0.037 OA 
BRANCH   5   8
HETATM    8  N   UNL     1      -8.681   9.493  70.601  1.00  0.00    -0.237 N  
HETATM    9  H   UNL     1      -8.965  10.416  70.931  1.00  0.00     0.000 HD 
BRANCH   8  10
HETATM   10  C   UNL     1      -9.401   8.697  69.487  1.00  0.00    -0.153 C  
HETATM   11  C   UNL     1      -8.899   9.173  68.123  1.00  0.00    -0.129 C  
HETATM   12  O   UNL     1      -8.919   8.498  67.105  1.00  0.00    -0.127 OA 
HETATM   13  O   UNL     1      -8.418  10.441  68.152  1.00  0.00    -0.117 OA 
BRANCH  10  14
HETATM   14  C   UNL     1     -10.939   8.759  69.520  1.00  0.00    -0.080 C  
BRANCH  14  15
HETATM   15  C   UNL     1     -11.497   9.881  70.359  1.00  0.00    -0.372 A  
HETATM   16  C   UNL     1     -12.193   9.543  71.525  1.00  0.00    -0.468 A  
HETATM   17  C   UNL     1     -12.931  10.508  72.205  1.00  0.00    -0.366 A  
HETATM   18  C   UNL     1     -12.999  11.818  71.725  1.00  0.00    -0.361 A  
HETATM   19  C   UNL     1     -11.426  11.231  69.985  1.00  0.00    -0.359 A  
HETATM   20  C   UNL     1     -12.191  12.191  70.652  1.00  0.00    -0.392 A  
BRANCH  18  21
HETATM   21  O   UNL     1     -13.838  12.787  72.216  1.00  0.00    -0.480 OA 
BRANCH  21  22
HETATM   22  C   UNL     1     -13.543  14.100  71.735  1.00  0.00    -0.399 C  
BRANCH  22  23
HETATM   23  C   UNL     1     -12.580  14.823  72.661  1.00  0.00    -0.443 C  
BRANCH  23  24
HETATM   24  C   UNL     1     -11.687  15.850  71.950  1.00  0.00    -0.590 C  
BRANCH  24  25
HETATM   25  C   UNL     1     -11.916  15.737  70.440  1.00  0.00    -0.385 C  
BRANCH  25  26
HETATM   26  C   UNL     1     -10.835  16.357  69.536  1.00  0.00    -0.338 C  
HETATM   27  C   UNL     1      -9.559  15.495  69.608  1.00  0.00    -0.264 C  
HETATM   28  C   UNL     1      -9.667  14.230  68.759  1.00  0.00    -0.173 C  
HETATM   29  N   UNL     1      -9.905  14.581  67.363  1.00  0.00    -0.225 NA 
HETATM   30  H   UNL     1      -9.861  13.761  66.756  1.00  0.00     0.000 HD 
HETATM   31  C   UNL     1     -11.171  15.297  67.209  1.00  0.00    -0.306 C  
HETATM   32  C   UNL     1     -11.236  16.564  68.066  1.00  0.00    -0.202 C  
ENDBRANCH  25  26
ENDBRANCH  24  25
ENDBRANCH  23  24
ENDBRANCH  22  23
ENDBRANCH  21  22
ENDBRANCH  18  21
ENDBRANCH  14  15
ENDBRANCH  10  14
ENDBRANCH   8  10
ENDBRANCH   5   8
ENDBRANCH   4   5
ENDBRANCH   3   4
ENDBRANCH   2   3
TORSDOF 13
ENDMDL
MODEL      169
REMARK 921   NORMALIZED FREE ENERGY PREDICTED BY IDOCK:   -4.06 KCAL/MOL
REMARK 922        TOTAL FREE ENERGY PREDICTED BY IDOCK:   -9.69 KCAL/MOL
REMARK 923 INTER-LIGAND FREE ENERGY PREDICTED BY IDOCK:   -7.19 KCAL/MOL
REMARK 924 INTRA-LIGAND FREE ENERGY PREDICTED BY IDOCK:   -2.50 KCAL/MOL
REMARK 927      BINDING AFFINITY PREDICTED BY RF-SCORE:    0.00 PKD
ROOT
HETATM    1  C   UNL     1     -10.066  18.760  66.702  1.00  0.00    -0.418 C  
HETATM    2  C   UNL     1      -9.563  17.461  66.077  1.00  0.00    -0.141 C  
ENDROOT
BRANCH   2   3
HETATM    3  C   UNL     1      -9.210  16.492  67.191  1.00  0.00    -0.226 C  
BRANCH   3   4
HETATM    4  C   UNL     1      -9.993  16.632  68.500  1.00  0.00    -0.261 C  
BRANCH   4   5
HETATM    5  S   UNL     1     -11.119  15.220  68.533  1.00  0.00    -0.298 S  
HETATM    6  O   UNL     1     -12.155  15.479  69.505  1.00  0.00    -0.344 OA 
HETATM    7  O   UNL     1     -11.423  14.900  67.159  1.00  0.00    -0.352 OA 
BRANCH   5   8
HETATM    8  N   UNL     1     -10.228  13.921  69.177  1.00  0.00    -0.433 N  
HETATM    9  H   UNL     1      -9.600  13.990  69.979  1.00  0.00     0.000 HD 
BRANCH   8  10
HETATM   10  C   UNL     1     -10.498  12.623  68.380  1.00  0.00    -0.238 C  
HETATM   11  C   UNL     1     -11.686  11.889  69.003  1.00  0.00    -0.331 C  
HETATM   12  O   UNL     1     -12.411  11.110  68.401  1.00  0.00    -0.556 OA 
HETATM   13  O   UNL     1     -11.865  12.190  70.314  1.00  0.00    -0.329 OA 
BRANCH  10  14
HETATM   14  C   UNL     1      -9.302  11.661  68.261  1.00  0.00    -0.191 C  
BRANCH  14  15
HETATM   15  C   UNL     1      -8.920  11.320  66.843  1.00  0.00    -0.163 A  
HETATM   16  C   UNL     1      -9.948  11.161  65.908  1.00  0.00    -0.285 A  
HETATM   17  C   UNL     1      -9.678  10.614  64.656  1.00  0.00    -0.360 A  
HETATM   18  C   UNL     1      -8.386  10.203  64.325  1.00  0.00    -0.171 A  
HETATM   19  C   UNL     1      -7.599  11.070  66.440  1.00  0.00    -0.135 A  
HETATM   20  C   UNL     1      -7.336  10.495  65.195  1.00  0.00    -0.029 A  
BRANCH  18  21
HETATM   21  O   UNL     1      -8.057   9.493  63.197  1.00  0.00    -0.132 OA 
BRANCH  21  22
HETATM   22  C   UNL     1      -7.018   8.534  63.405  1.00  0.00    -0.089 C  
BRANCH  22  23
HETATM   23  C   UNL     1      -7.584   7.191  63.837  1.00  0.00    -0.109 C  
BRANCH  23  24
HETATM   24  C   UNL     1      -7.342   6.861  65.316  1.00  0.00    -0.084 C  
BRANCH  24  25
HETATM   25  C   UNL     1      -8.690   6.567  65.979  1.00  0.00    -0.155 C  
BRANCH  25  26
HETATM   26  C   UNL     1      -9.291   7.695  66.838  1.00  0.00    -0.203 C  
HETATM   27  C   UNL     1     -10.757   7.353  67.171  1.00  0.00    -0.400 C  
HETATM   28  C   UNL     1     -10.870   6.321  68.292  1.00  0.00    -0.319 C  
HETATM   29  N   UNL     1     -10.229   6.823  69.503  1.00  0.00    -0.178 NA 
HETATM   30  H   UNL     1     -10.395   6.207  70.299  1.00  0.00     0.000 HD 
HETATM   31  C   UNL     1      -8.801   7.052  69.287  1.00  0.00    -0.139 C  
HETATM   32  C   UNL     1      -8.530   8.021  68.134  1.00  0.00    -0.123 C  
ENDBRANCH  25  26
ENDBRANCH  24  25
ENDBRANCH  23  24
ENDBRANCH  22  23
ENDBRANCH  21  22
ENDBRANCH  18  21
ENDBRANCH  14  15
ENDBRANCH  10  14
ENDBRANCH   8  10
ENDBRANCH   5   8
ENDBRANCH   4   5
ENDBRANCH   3   4
ENDBRANCH   2   3
TORSDOF 13
ENDMDL
MODEL      170
REMARK 921   NORMALIZED FREE ENERGY PREDICTED BY IDOCK:   -4.05 KCAL/MOL
REMARK 922        TOTAL FREE ENERGY PREDICTED BY IDOCK:   -9.67 KCAL/MOL
REMARK 923 INTER-LIGAND FREE ENERGY PREDICTED BY IDOCK:   -8.62 KCAL/MOL
REMARK 924 INTRA-LIGAND FREE ENERGY PREDICTED BY IDOCK:   -1.06 KCAL/MOL
REMARK 927      BINDING AFFINITY PREDICTED BY RF-SCORE:    0.00 PKD
ROOT
HETATM    1  C   UNL     1     -11.930  15.983  72.452  1.00  0.00    -0.644 C  
HETATM    2  C   UNL     1     -12.509  14.857  71.598  1.00  0.00    -0.395 C  
ENDROOT
BRANCH   2   3
HETATM    3  C   UNL     1     -11.893  14.935  70.212  1.00  0.00    -0.358 C  
BRANCH   3   4
HETATM    4  C   UNL     1     -10.709  15.891  70.038  1.00  0.00    -0.339 C  
BRANCH   4   5
HETATM    5  S   UNL     1     -10.091  15.582  68.369  1.00  0.00    -0.217 S  
HETATM    6  O   UNL     1     -10.898  16.330  67.433  1.00  0.00    -0.313 OA 
HETATM    7  O   UNL     1      -8.656  15.725  68.425  1.00  0.00    -0.163 OA 
BRANCH   5   8
HETATM    8  N   UNL     1     -10.432  13.949  68.035  1.00  0.00    -0.238 N  
HETATM    9  H   UNL     1     -10.379  13.193  68.719  1.00  0.00     0.000 HD 
BRANCH   8  10
HETATM   10  C   UNL     1     -10.832  13.765  66.552  1.00  0.00    -0.287 C  
HETATM   11  C   UNL     1     -12.036  12.827  66.467  1.00  0.00    -0.358 C  
HETATM   12  O   UNL     1     -12.842  12.817  65.548  1.00  0.00    -0.531 OA 
HETATM   13  O   UNL     1     -12.128  11.989  67.531  1.00  0.00    -0.555 OA 
BRANCH  10  14
HETATM   14  C   UNL     1      -9.713  13.254  65.625  1.00  0.00    -0.101 C  
BRANCH  14  15
HETATM   15  C   UNL     1      -9.221  11.867  65.955  1.00  0.00    -0.147 A  
HETATM   16  C   UNL     1      -9.805  10.788  65.283  1.00  0.00    -0.329 A  
HETATM   17  C   UNL     1      -9.569   9.485  65.713  1.00  0.00    -0.337 A  
HETATM   18  C   UNL     1      -8.761   9.240  66.826  1.00  0.00    -0.127 A  
HETATM   19  C   UNL     1      -8.274  11.605  66.957  1.00  0.00    -0.170 A  
HETATM   20  C   UNL     1      -8.062  10.298  67.404  1.00  0.00    -0.110 A  
BRANCH  18  21
HETATM   21  O   UNL     1      -8.617   8.016  67.431  1.00  0.00    -0.124 OA 
BRANCH  21  22
HETATM   22  C   UNL     1      -9.173   7.958  68.747  1.00  0.00    -0.143 C  
BRANCH  22  23
HETATM   23  C   UNL     1     -10.646   8.329  68.741  1.00  0.00    -0.152 C  
BRANCH  23  24
HETATM   24  C   UNL     1     -11.056   9.262  69.889  1.00  0.00    -0.200 C  
BRANCH  24  25
HETATM   25  C   UNL     1     -10.111   9.031  71.071  1.00  0.00    -0.352 C  
BRANCH  25  26
HETATM   26  C   UNL     1     -10.761   8.564  72.386  1.00  0.00    -0.376 C  
HETATM   27  C   UNL     1     -12.227   8.174  72.116  1.00  0.00    -0.398 C  
HETATM   28  C   UNL     1     -12.348   6.796  71.466  1.00  0.00    -0.358 C  
HETATM   29  N   UNL     1     -11.755   5.780  72.329  1.00  0.00    -0.257 NA 
HETATM   30  H   UNL     1     -11.929   4.839  71.976  1.00  0.00     0.000 HD 
HETATM   31  C   UNL     1     -10.326   6.026  72.526  1.00  0.00    -0.195 C  
HETATM   32  C   UNL     1     -10.045   7.412  73.110  1.00  0.00    -0.342 C  
ENDBRANCH  25  26
ENDBRANCH  24  25
ENDBRANCH  23  24
ENDBRANCH  22  23
ENDBRANCH  21  22
ENDBRANCH  18  21
ENDBRANCH  14  15
ENDBRANCH  10  14
ENDBRANCH   8  10
ENDBRANCH   5   8
ENDBRANCH   4   5
ENDBRANCH   3   4
ENDBRANCH   2   3
TORSDOF 13
ENDMDL
MODEL      171
REMARK 921   NORMALIZED FREE ENERGY PREDICTED BY IDOCK:   -4.04 KCAL/MOL
REMARK 922        TOTAL FREE ENERGY PREDICTED BY IDOCK:   -9.66 KCAL/MOL
REMARK 923 INTER-LIGAND FREE ENERGY PREDICTED BY IDOCK:   -8.25 KCAL/MOL
REMARK 924 INTRA-LIGAND FREE ENERGY PREDICTED BY IDOCK:   -1.41 KCAL/MOL
REMARK 927      BINDING AFFINITY PREDICTED BY RF-SCORE:    0.00 PKD
ROOT
HETATM    1  C   UNL     1     -12.408   8.212  71.944  1.00  0.00    -0.371 C  
HETATM    2  C   UNL     1     -12.303   6.799  71.374  1.00  0.00    -0.403 C  
ENDROOT
BRANCH   2   3
HETATM    3  C   UNL     1     -10.849   6.522  71.033  1.00  0.00    -0.301 C  
BRANCH   3   4
HETATM    4  C   UNL     1     -10.585   5.646  69.805  1.00  0.00    -0.329 C  
BRANCH   4   5
HETATM    5  S   UNL     1     -10.379   6.802  68.433  1.00  0.00    -0.206 S  
HETATM    6  O   UNL     1     -11.276   6.417  67.368  1.00  0.00    -0.352 OA 
HETATM    7  O   UNL     1     -10.393   8.128  69.002  1.00  0.00    -0.214 OA 
BRANCH   5   8
HETATM    8  N   UNL     1      -8.818   6.526  67.813  1.00  0.00    -0.114 N  
HETATM    9  H   UNL     1      -8.040   6.144  68.351  1.00  0.00     0.000 HD 
BRANCH   8  10
HETATM   10  C   UNL     1      -8.741   6.934  66.323  1.00  0.00    -0.142 C  
HETATM   11  C   UNL     1      -8.177   5.768  65.510  1.00  0.00    -0.132 C  
HETATM   12  O   UNL     1      -8.386   5.592  64.319  1.00  0.00    -0.134 OA 
HETATM   13  O   UNL     1      -7.410   4.931  66.251  1.00  0.00    -0.076 OA 
BRANCH  10  14
HETATM   14  C   UNL     1      -7.927   8.208  66.030  1.00  0.00    -0.100 C  
BRANCH  14  15
HETATM   15  C   UNL     1      -8.708   9.297  65.337  1.00  0.00    -0.208 A  
HETATM   16  C   UNL     1      -9.573  10.076  66.112  1.00  0.00    -0.265 A  
HETATM   17  C   UNL     1     -10.491  10.924  65.499  1.00  0.00    -0.286 A  
HETATM   18  C   UNL     1     -10.571  10.997  64.107  1.00  0.00    -0.342 A  
HETATM   19  C   UNL     1      -8.673   9.507  63.951  1.00  0.00    -0.238 A  
HETATM   20  C   UNL     1      -9.614  10.337  63.336  1.00  0.00    -0.316 A  
BRANCH  18  21
HETATM   21  O   UNL     1     -11.554  11.658  63.414  1.00  0.00    -0.395 OA 
BRANCH  21  22
HETATM   22  C   UNL     1     -11.715  13.023  63.806  1.00  0.00    -0.485 C  
BRANCH  22  23
HETATM   23  C   UNL     1     -12.719  13.158  64.938  1.00  0.00    -0.421 C  
BRANCH  23  24
HETATM   24  C   UNL     1     -12.251  14.072  66.079  1.00  0.00    -0.484 C  
BRANCH  24  25
HETATM   25  C   UNL     1     -11.011  14.841  65.613  1.00  0.00    -0.345 C  
BRANCH  25  26
HETATM   26  C   UNL     1      -9.682  14.475  66.300  1.00  0.00    -0.330 C  
HETATM   27  C   UNL     1      -8.792  15.731  66.381  1.00  0.00    -0.371 C  
HETATM   28  C   UNL     1      -9.218  16.669  67.510  1.00  0.00    -0.207 C  
HETATM   29  N   UNL     1      -9.151  15.976  68.792  1.00  0.00    -0.210 NA 
HETATM   30  H   UNL     1      -9.313  16.613  69.572  1.00  0.00     0.000 HD 
HETATM   31  C   UNL     1     -10.070  14.839  68.824  1.00  0.00    -0.237 C  
HETATM   32  C   UNL     1      -9.807  13.840  67.695  1.00  0.00    -0.234 C  
ENDBRANCH  25  26
ENDBRANCH  24  25
ENDBRANCH  23  24
ENDBRANCH  22  23
ENDBRANCH  21  22
ENDBRANCH  18  21
ENDBRANCH  14  15
ENDBRANCH  10  14
ENDBRANCH   8  10
ENDBRANCH   5   8
ENDBRANCH   4   5
ENDBRANCH   3   4
ENDBRANCH   2   3
TORSDOF 13
ENDMDL
MODEL      172
REMARK 921   NORMALIZED FREE ENERGY PREDICTED BY IDOCK:   -4.03 KCAL/MOL
REMARK 922        TOTAL FREE ENERGY PREDICTED BY IDOCK:   -9.63 KCAL/MOL
REMARK 923 INTER-LIGAND FREE ENERGY PREDICTED BY IDOCK:   -7.82 KCAL/MOL
REMARK 924 INTRA-LIGAND FREE ENERGY PREDICTED BY IDOCK:   -1.81 KCAL/MOL
REMARK 927      BINDING AFFINITY PREDICTED BY RF-SCORE:    0.00 PKD
ROOT
HETATM    1  C   UNL     1      -7.233   9.410  66.928  1.00  0.00    -0.087 C  
HETATM    2  C   UNL     1      -7.805  10.616  66.185  1.00  0.00    -0.152 C  
ENDROOT
BRANCH   2   3
HETATM    3  C   UNL     1      -8.360  10.145  64.853  1.00  0.00    -0.166 C  
BRANCH   3   4
HETATM    4  C   UNL     1      -9.885  10.127  64.711  1.00  0.00    -0.312 C  
BRANCH   4   5
HETATM    5  S   UNL     1     -10.289  11.600  63.747  1.00  0.00    -0.444 S  
HETATM    6  O   UNL     1      -9.237  11.823  62.784  1.00  0.00    -0.331 OA 
HETATM    7  O   UNL     1     -11.671  11.472  63.352  1.00  0.00    -0.355 OA 
BRANCH   5   8
HETATM    8  N   UNL     1     -10.183  12.913  64.824  1.00  0.00    -0.457 N  
HETATM    9  H   UNL     1      -9.415  13.584  64.847  1.00  0.00     0.000 HD 
BRANCH   8  10
HETATM   10  C   UNL     1     -11.411  12.950  65.765  1.00  0.00    -0.337 C  
HETATM   11  C   UNL     1     -12.430  13.954  65.225  1.00  0.00    -0.478 C  
HETATM   12  O   UNL     1     -13.629  13.913  65.454  1.00  0.00    -0.571 OA 
HETATM   13  O   UNL     1     -11.864  14.914  64.450  1.00  0.00    -0.415 OA 
BRANCH  10  14
HETATM   14  C   UNL     1     -11.103  13.270  67.240  1.00  0.00    -0.301 C  
BRANCH  14  15
HETATM   15  C   UNL     1     -11.344  12.123  68.187  1.00  0.00    -0.349 A  
HETATM   16  C   UNL     1     -11.830  12.420  69.465  1.00  0.00    -0.368 A  
HETATM   17  C   UNL     1     -11.841  11.441  70.455  1.00  0.00    -0.428 A  
HETATM   18  C   UNL     1     -11.356  10.158  70.191  1.00  0.00    -0.303 A  
HETATM   19  C   UNL     1     -11.025  10.791  67.881  1.00  0.00    -0.344 A  
HETATM   20  C   UNL     1     -11.011   9.818  68.884  1.00  0.00    -0.183 A  
BRANCH  18  21
HETATM   21  O   UNL     1     -11.158   9.187  71.141  1.00  0.00    -0.268 OA 
BRANCH  21  22
HETATM   22  C   UNL     1      -9.796   9.055  71.552  1.00  0.00    -0.310 C  
BRANCH  22  23
HETATM   23  C   UNL     1      -9.307   7.626  71.394  1.00  0.00    -0.157 C  
BRANCH  23  24
HETATM   24  C   UNL     1      -8.312   7.432  70.241  1.00  0.00    -0.134 C  
BRANCH  24  25
HETATM   25  C   UNL     1      -9.017   6.682  69.107  1.00  0.00    -0.131 C  
BRANCH  25  26
HETATM   26  C   UNL     1      -8.120   5.839  68.182  1.00  0.00    -0.104 C  
HETATM   27  C   UNL     1      -6.761   5.604  68.872  1.00  0.00    -0.053 C  
HETATM   28  C   UNL     1      -6.836   4.513  69.939  1.00  0.00    -0.041 C  
HETATM   29  N   UNL     1      -7.271   3.255  69.341  1.00  0.00    -0.045 NA 
HETATM   30  H   UNL     1      -7.213   2.483  70.006  1.00  0.00     0.000 HD 
HETATM   31  C   UNL     1      -8.613   3.378  68.774  1.00  0.00    -0.084 C  
HETATM   32  C   UNL     1      -8.709   4.493  67.730  1.00  0.00    -0.112 C  
ENDBRANCH  25  26
ENDBRANCH  24  25
ENDBRANCH  23  24
ENDBRANCH  22  23
ENDBRANCH  21  22
ENDBRANCH  18  21
ENDBRANCH  14  15
ENDBRANCH  10  14
ENDBRANCH   8  10
ENDBRANCH   5   8
ENDBRANCH   4   5
ENDBRANCH   3   4
ENDBRANCH   2   3
TORSDOF 13
ENDMDL
MODEL      173
REMARK 921   NORMALIZED FREE ENERGY PREDICTED BY IDOCK:   -4.03 KCAL/MOL
REMARK 922        TOTAL FREE ENERGY PREDICTED BY IDOCK:   -9.63 KCAL/MOL
REMARK 923 INTER-LIGAND FREE ENERGY PREDICTED BY IDOCK:   -7.37 KCAL/MOL
REMARK 924 INTRA-LIGAND FREE ENERGY PREDICTED BY IDOCK:   -2.27 KCAL/MOL
REMARK 927      BINDING AFFINITY PREDICTED BY RF-SCORE:    0.00 PKD
ROOT
HETATM    1  C   UNL     1     -10.641   3.423  73.354  1.00  0.00    -0.283 C  
HETATM    2  C   UNL     1     -11.286   4.774  73.656  1.00  0.00    -0.235 C  
ENDROOT
BRANCH   2   3
HETATM    3  C   UNL     1     -10.444   5.866  73.020  1.00  0.00    -0.247 C  
BRANCH   3   4
HETATM    4  C   UNL     1     -10.947   7.304  73.179  1.00  0.00    -0.340 C  
BRANCH   4   5
HETATM    5  S   UNL     1     -10.954   7.992  71.510  1.00  0.00    -0.243 S  
HETATM    6  O   UNL     1     -11.917   7.265  70.716  1.00  0.00    -0.314 OA 
HETATM    7  O   UNL     1     -11.008   9.427  71.653  1.00  0.00    -0.369 OA 
BRANCH   5   8
HETATM    8  N   UNL     1      -9.443   7.601  70.832  1.00  0.00    -0.164 N  
HETATM    9  H   UNL     1      -8.643   7.250  71.360  1.00  0.00     0.000 HD 
BRANCH   8  10
HETATM   10  C   UNL     1      -9.447   7.850  69.305  1.00  0.00    -0.152 C  
HETATM   11  C   UNL     1      -9.066   6.557  68.582  1.00  0.00    -0.128 C  
HETATM   12  O   UNL     1      -9.386   6.286  67.435  1.00  0.00    -0.116 OA 
HETATM   13  O   UNL     1      -8.326   5.721  69.353  1.00  0.00    -0.109 OA 
BRANCH  10  14
HETATM   14  C   UNL     1      -8.540   8.997  68.821  1.00  0.00    -0.132 C  
BRANCH  14  15
HETATM   15  C   UNL     1      -9.218   9.975  67.895  1.00  0.00    -0.145 A  
HETATM   16  C   UNL     1     -10.607   9.887  67.753  1.00  0.00    -0.313 A  
HETATM   17  C   UNL     1     -11.254  10.592  66.742  1.00  0.00    -0.001 A  
HETATM   18  C   UNL     1     -10.525  11.381  65.849  1.00  0.00    -0.258 A  
HETATM   19  C   UNL     1      -8.518  10.903  67.110  1.00  0.00    -0.128 A  
HETATM   20  C   UNL     1      -9.166  11.588  66.078  1.00  0.00    -0.229 A  
BRANCH  18  21
HETATM   21  O   UNL     1     -11.044  11.963  64.719  1.00  0.00    -0.303 OA 
BRANCH  21  22
HETATM   22  C   UNL     1     -10.530  13.271  64.459  1.00  0.00    -0.415 C  
BRANCH  22  23
HETATM   23  C   UNL     1     -11.542  14.344  64.822  1.00  0.00    -0.410 C  
BRANCH  23  24
HETATM   24  C   UNL     1     -11.131  15.206  66.024  1.00  0.00    -0.312 C  
BRANCH  24  25
HETATM   25  C   UNL     1     -11.666  14.551  67.301  1.00  0.00    -0.429 C  
BRANCH  25  26
HETATM   26  C   UNL     1     -10.689  14.468  68.489  1.00  0.00    -0.253 C  
HETATM   27  C   UNL     1     -10.976  15.627  69.463  1.00  0.00    -0.281 C  
HETATM   28  C   UNL     1     -12.199  15.357  70.339  1.00  0.00    -0.391 C  
HETATM   29  N   UNL     1     -11.999  14.140  71.119  1.00  0.00    -0.469 NA 
HETATM   30  H   UNL     1     -12.747  14.003  71.799  1.00  0.00     0.000 HD 
HETATM   31  C   UNL     1     -11.843  12.977  70.247  1.00  0.00    -0.217 C  
HETATM   32  C   UNL     1     -10.688  13.136  69.257  1.00  0.00     0.022 C  
ENDBRANCH  25  26
ENDBRANCH  24  25
ENDBRANCH  23  24
ENDBRANCH  22  23
ENDBRANCH  21  22
ENDBRANCH  18  21
ENDBRANCH  14  15
ENDBRANCH  10  14
ENDBRANCH   8  10
ENDBRANCH   5   8
ENDBRANCH   4   5
ENDBRANCH   3   4
ENDBRANCH   2   3
TORSDOF 13
ENDMDL
MODEL      174
REMARK 921   NORMALIZED FREE ENERGY PREDICTED BY IDOCK:   -4.01 KCAL/MOL
REMARK 922        TOTAL FREE ENERGY PREDICTED BY IDOCK:   -9.59 KCAL/MOL
REMARK 923 INTER-LIGAND FREE ENERGY PREDICTED BY IDOCK:   -8.76 KCAL/MOL
REMARK 924 INTRA-LIGAND FREE ENERGY PREDICTED BY IDOCK:   -0.83 KCAL/MOL
REMARK 927      BINDING AFFINITY PREDICTED BY RF-SCORE:    0.00 PKD
ROOT
HETATM    1  C   UNL     1     -12.450  15.363  73.196  1.00  0.00    -0.572 C  
HETATM    2  C   UNL     1     -13.091  14.155  72.516  1.00  0.00    -0.554 C  
ENDROOT
BRANCH   2   3
HETATM    3  C   UNL     1     -12.590  14.084  71.084  1.00  0.00    -0.445 C  
BRANCH   3   4
HETATM    4  C   UNL     1     -12.771  15.341  70.228  1.00  0.00    -0.314 C  
BRANCH   4   5
HETATM    5  S   UNL     1     -11.540  15.201  68.914  1.00  0.00    -0.351 S  
HETATM    6  O   UNL     1     -11.334  16.507  68.334  1.00  0.00    -0.348 OA 
HETATM    7  O   UNL     1     -10.449  14.422  69.448  1.00  0.00    -0.190 OA 
BRANCH   5   8
HETATM    8  N   UNL     1     -12.269  14.283  67.680  1.00  0.00    -0.597 N  
HETATM    9  H   UNL     1     -13.046  13.637  67.821  1.00  0.00     0.000 HD 
BRANCH   8  10
HETATM   10  C   UNL     1     -11.593  14.563  66.317  1.00  0.00    -0.360 C  
HETATM   11  C   UNL     1     -12.580  14.250  65.192  1.00  0.00    -0.372 C  
HETATM   12  O   UNL     1     -12.539  14.750  64.078  1.00  0.00    -0.822 OA 
HETATM   13  O   UNL     1     -13.526  13.348  65.555  1.00  0.00    -0.400 OA 
BRANCH  10  14
HETATM   14  C   UNL     1     -10.273  13.810  66.069  1.00  0.00    -0.315 C  
BRANCH  14  15
HETATM   15  C   UNL     1     -10.398  12.308  66.111  1.00  0.00    -0.269 A  
HETATM   16  C   UNL     1     -10.689  11.710  67.341  1.00  0.00    -0.277 A  
HETATM   17  C   UNL     1     -10.578  10.330  67.493  1.00  0.00    -0.320 A  
HETATM   18  C   UNL     1     -10.160   9.530  66.427  1.00  0.00    -0.258 A  
HETATM   19  C   UNL     1     -10.152  11.484  65.002  1.00  0.00    -0.315 A  
HETATM   20  C   UNL     1     -10.013  10.103  65.164  1.00  0.00    -0.379 A  
BRANCH  18  21
HETATM   21  O   UNL     1      -9.847   8.198  66.526  1.00  0.00    -0.240 OA 
BRANCH  21  22
HETATM   22  C   UNL     1      -9.173   7.855  67.739  1.00  0.00    -0.137 C  
BRANCH  22  23
HETATM   23  C   UNL     1      -8.396   6.558  67.591  1.00  0.00    -0.121 C  
BRANCH  23  24
HETATM   24  C   UNL     1      -9.272   5.299  67.637  1.00  0.00    -0.121 C  
BRANCH  24  25
HETATM   25  C   UNL     1      -8.530   4.160  66.931  1.00  0.00    -0.100 C  
BRANCH  25  26
HETATM   26  C   UNL     1      -8.103   4.421  65.475  1.00  0.00    -0.105 C  
HETATM   27  C   UNL     1      -7.416   3.160  64.915  1.00  0.00    -0.075 C  
HETATM   28  C   UNL     1      -8.423   2.082  64.517  1.00  0.00    -0.088 C  
HETATM   29  N   UNL     1      -9.336   2.597  63.502  1.00  0.00    -0.097 NA 
HETATM   30  H   UNL     1      -9.941   1.862  63.133  1.00  0.00     0.000 HD 
HETATM   31  C   UNL     1     -10.112   3.725  64.016  1.00  0.00    -0.210 C  
HETATM   32  C   UNL     1      -9.225   4.865  64.522  1.00  0.00    -0.009 C  
ENDBRANCH  25  26
ENDBRANCH  24  25
ENDBRANCH  23  24
ENDBRANCH  22  23
ENDBRANCH  21  22
ENDBRANCH  18  21
ENDBRANCH  14  15
ENDBRANCH  10  14
ENDBRANCH   8  10
ENDBRANCH   5   8
ENDBRANCH   4   5
ENDBRANCH   3   4
ENDBRANCH   2   3
TORSDOF 13
ENDMDL
MODEL      175
REMARK 921   NORMALIZED FREE ENERGY PREDICTED BY IDOCK:   -3.96 KCAL/MOL
REMARK 922        TOTAL FREE ENERGY PREDICTED BY IDOCK:   -9.52 KCAL/MOL
REMARK 923 INTER-LIGAND FREE ENERGY PREDICTED BY IDOCK:   -7.53 KCAL/MOL
REMARK 924 INTRA-LIGAND FREE ENERGY PREDICTED BY IDOCK:   -1.99 KCAL/MOL
REMARK 927      BINDING AFFINITY PREDICTED BY RF-SCORE:    0.00 PKD
ROOT
HETATM    1  C   UNL     1      -8.283   3.627  63.249  1.00  0.00    -0.088 C  
HETATM    2  C   UNL     1      -8.615   3.621  64.740  1.00  0.00    -0.105 C  
ENDROOT
BRANCH   2   3
HETATM    3  C   UNL     1      -9.277   4.941  65.093  1.00  0.00    -0.128 C  
BRANCH   3   4
HETATM    4  C   UNL     1     -10.194   4.944  66.320  1.00  0.00    -0.279 C  
BRANCH   4   5
HETATM    5  S   UNL     1      -9.981   6.574  67.068  1.00  0.00    -0.181 S  
HETATM    6  O   UNL     1     -11.283   7.098  67.410  1.00  0.00    -0.194 OA 
HETATM    7  O   UNL     1      -8.927   6.447  68.046  1.00  0.00    -0.117 OA 
BRANCH   5   8
HETATM    8  N   UNL     1      -9.411   7.591  65.828  1.00  0.00    -0.390 N  
HETATM    9  H   UNL     1      -8.885   7.274  65.014  1.00  0.00     0.000 HD 
BRANCH   8  10
HETATM   10  C   UNL     1      -9.800   9.063  66.106  1.00  0.00    -0.278 C  
HETATM   11  C   UNL     1      -9.643   9.877  64.821  1.00  0.00    -0.271 C  
HETATM   12  O   UNL     1     -10.251  10.908  64.577  1.00  0.00    -0.311 OA 
HETATM   13  O   UNL     1      -8.748   9.332  63.958  1.00  0.00    -0.205 OA 
BRANCH  10  14
HETATM   14  C   UNL     1      -9.023   9.746  67.247  1.00  0.00    -0.146 C  
BRANCH  14  15
HETATM   15  C   UNL     1      -9.890  10.250  68.373  1.00  0.00    -0.168 A  
HETATM   16  C   UNL     1      -9.637   9.766  69.661  1.00  0.00    -0.239 A  
HETATM   17  C   UNL     1     -10.546  10.003  70.689  1.00  0.00    -0.272 A  
HETATM   18  C   UNL     1     -11.725  10.709  70.445  1.00  0.00    -0.353 A  
HETATM   19  C   UNL     1     -10.984  11.106  68.178  1.00  0.00    -0.292 A  
HETATM   20  C   UNL     1     -11.909  11.317  69.204  1.00  0.00    -0.423 A  
BRANCH  18  21
HETATM   21  O   UNL     1     -12.759  10.835  71.339  1.00  0.00    -0.382 OA 
BRANCH  21  22
HETATM   22  C   UNL     1     -13.035   9.639  72.071  1.00  0.00    -0.428 C  
BRANCH  22  23
HETATM   23  C   UNL     1     -13.582   8.551  71.163  1.00  0.00    -0.060 C  
BRANCH  23  24
HETATM   24  C   UNL     1     -13.375   7.128  71.702  1.00  0.00    -0.397 C  
BRANCH  24  25
HETATM   25  C   UNL     1     -12.005   6.624  71.239  1.00  0.00    -0.409 C  
BRANCH  25  26
HETATM   26  C   UNL     1     -11.118   5.968  72.313  1.00  0.00    -0.324 C  
HETATM   27  C   UNL     1      -9.858   5.385  71.643  1.00  0.00    -0.223 C  
HETATM   28  C   UNL     1      -8.823   6.462  71.323  1.00  0.00    -0.138 C  
HETATM   29  N   UNL     1      -8.417   7.148  72.546  1.00  0.00    -0.111 NA 
HETATM   30  H   UNL     1      -7.641   7.788  72.377  1.00  0.00     0.000 HD 
HETATM   31  C   UNL     1      -9.552   7.829  73.168  1.00  0.00    -0.275 C  
HETATM   32  C   UNL     1     -10.708   6.877  73.483  1.00  0.00    -0.342 C  
ENDBRANCH  25  26
ENDBRANCH  24  25
ENDBRANCH  23  24
ENDBRANCH  22  23
ENDBRANCH  21  22
ENDBRANCH  18  21
ENDBRANCH  14  15
ENDBRANCH  10  14
ENDBRANCH   8  10
ENDBRANCH   5   8
ENDBRANCH   4   5
ENDBRANCH   3   4
ENDBRANCH   2   3
TORSDOF 13
ENDMDL
MODEL      176
REMARK 921   NORMALIZED FREE ENERGY PREDICTED BY IDOCK:   -3.96 KCAL/MOL
REMARK 922        TOTAL FREE ENERGY PREDICTED BY IDOCK:   -9.51 KCAL/MOL
REMARK 923 INTER-LIGAND FREE ENERGY PREDICTED BY IDOCK:   -6.78 KCAL/MOL
REMARK 924 INTRA-LIGAND FREE ENERGY PREDICTED BY IDOCK:   -2.73 KCAL/MOL
REMARK 927      BINDING AFFINITY PREDICTED BY RF-SCORE:    0.00 PKD
ROOT
HETATM    1  C   UNL     1      -8.257  10.701  69.051  1.00  0.00    -0.151 C  
HETATM    2  C   UNL     1      -8.582   9.798  70.239  1.00  0.00    -0.169 C  
ENDROOT
BRANCH   2   3
HETATM    3  C   UNL     1     -10.081   9.551  70.262  1.00  0.00    -0.314 C  
BRANCH   3   4
HETATM    4  C   UNL     1     -10.703   9.226  71.624  1.00  0.00    -0.323 C  
BRANCH   4   5
HETATM    5  S   UNL     1     -10.933   7.434  71.625  1.00  0.00    -0.228 S  
HETATM    6  O   UNL     1     -11.334   7.022  72.950  1.00  0.00    -0.256 OA 
HETATM    7  O   UNL     1     -11.718   7.116  70.456  1.00  0.00    -0.306 OA 
BRANCH   5   8
HETATM    8  N   UNL     1      -9.387   6.760  71.404  1.00  0.00    -0.157 N  
HETATM    9  H   UNL     1      -8.590   6.922  72.020  1.00  0.00     0.000 HD 
BRANCH   8  10
HETATM   10  C   UNL     1      -9.355   5.866  70.142  1.00  0.00    -0.156 C  
HETATM   11  C   UNL     1      -9.271   4.399  70.565  1.00  0.00    -0.125 C  
HETATM   12  O   UNL     1      -9.656   3.460  69.884  1.00  0.00    -0.183 OA 
HETATM   13  O   UNL     1      -8.720   4.235  71.794  1.00  0.00    -0.106 OA 
BRANCH  10  14
HETATM   14  C   UNL     1      -8.227   6.178  69.141  1.00  0.00    -0.113 C  
BRANCH  14  15
HETATM   15  C   UNL     1      -8.675   6.943  67.920  1.00  0.00    -0.121 A  
HETATM   16  C   UNL     1      -7.696   7.584  67.154  1.00  0.00    -0.112 A  
HETATM   17  C   UNL     1      -8.065   8.495  66.168  1.00  0.00    -0.105 A  
HETATM   18  C   UNL     1      -9.411   8.792  65.942  1.00  0.00    -0.218 A  
HETATM   19  C   UNL     1     -10.023   7.112  67.570  1.00  0.00    -0.214 A  
HETATM   20  C   UNL     1     -10.390   8.048  66.600  1.00  0.00    -0.273 A  
BRANCH  18  21
HETATM   21  O   UNL     1      -9.862   9.800  65.128  1.00  0.00    -0.315 OA 
BRANCH  21  22
HETATM   22  C   UNL     1     -10.437  10.899  65.839  1.00  0.00    -0.221 C  
BRANCH  22  23
HETATM   23  C   UNL     1      -9.569  12.141  65.732  1.00  0.00    -0.209 C  
BRANCH  23  24
HETATM   24  C   UNL     1     -10.344  13.411  65.355  1.00  0.00    -0.321 C  
BRANCH  24  25
HETATM   25  C   UNL     1     -10.839  14.082  66.639  1.00  0.00    -0.297 C  
BRANCH  25  26
HETATM   26  C   UNL     1     -10.271  13.532  67.961  1.00  0.00    -0.243 C  
HETATM   27  C   UNL     1      -9.414  14.621  68.636  1.00  0.00    -0.211 C  
HETATM   28  C   UNL     1     -10.269  15.674  69.341  1.00  0.00    -0.261 C  
HETATM   29  N   UNL     1     -11.100  15.045  70.362  1.00  0.00    -0.401 NA 
HETATM   30  H   UNL     1     -11.590  15.739  70.928  1.00  0.00     0.000 HD 
HETATM   31  C   UNL     1     -12.028  14.084  69.766  1.00  0.00    -0.334 C  
HETATM   32  C   UNL     1     -11.310  12.998  68.960  1.00  0.00    -0.340 C  
ENDBRANCH  25  26
ENDBRANCH  24  25
ENDBRANCH  23  24
ENDBRANCH  22  23
ENDBRANCH  21  22
ENDBRANCH  18  21
ENDBRANCH  14  15
ENDBRANCH  10  14
ENDBRANCH   8  10
ENDBRANCH   5   8
ENDBRANCH   4   5
ENDBRANCH   3   4
ENDBRANCH   2   3
TORSDOF 13
ENDMDL
MODEL      177
REMARK 921   NORMALIZED FREE ENERGY PREDICTED BY IDOCK:   -3.96 KCAL/MOL
REMARK 922        TOTAL FREE ENERGY PREDICTED BY IDOCK:   -9.50 KCAL/MOL
REMARK 923 INTER-LIGAND FREE ENERGY PREDICTED BY IDOCK:   -8.04 KCAL/MOL
REMARK 924 INTRA-LIGAND FREE ENERGY PREDICTED BY IDOCK:   -1.47 KCAL/MOL
REMARK 927      BINDING AFFINITY PREDICTED BY RF-SCORE:    0.00 PKD
ROOT
HETATM    1  C   UNL     1     -13.117  10.686  71.576  1.00  0.00    -0.527 C  
HETATM    2  C   UNL     1     -13.501   9.279  72.030  1.00  0.00    -0.519 C  
ENDROOT
BRANCH   2   3
HETATM    3  C   UNL     1     -12.233   8.521  72.383  1.00  0.00    -0.432 C  
BRANCH   3   4
HETATM    4  C   UNL     1     -11.811   7.403  71.425  1.00  0.00    -0.300 C  
BRANCH   4   5
HETATM    5  S   UNL     1     -10.405   8.071  70.508  1.00  0.00    -0.205 S  
HETATM    6  O   UNL     1      -9.791   9.112  71.299  1.00  0.00    -0.283 OA 
HETATM    7  O   UNL     1      -9.654   6.940  70.019  1.00  0.00    -0.158 OA 
BRANCH   5   8
HETATM    8  N   UNL     1     -11.060   8.873  69.158  1.00  0.00    -0.429 N  
HETATM    9  H   UNL     1     -12.049   9.095  69.039  1.00  0.00     0.000 HD 
BRANCH   8  10
HETATM   10  C   UNL     1      -9.951   9.220  68.137  1.00  0.00    -0.177 C  
HETATM   11  C   UNL     1     -10.223   8.479  66.827  1.00  0.00    -0.300 C  
HETATM   12  O   UNL     1      -9.827   8.845  65.731  1.00  0.00    -0.226 OA 
HETATM   13  O   UNL     1     -10.962   7.355  67.001  1.00  0.00    -0.332 OA 
BRANCH  10  14
HETATM   14  C   UNL     1      -8.512   8.933  68.602  1.00  0.00    -0.128 C  
BRANCH  14  15
HETATM   15  C   UNL     1      -7.535  10.048  68.324  1.00  0.00    -0.079 A  
HETATM   16  C   UNL     1      -7.166  10.875  69.390  1.00  0.00    -0.126 A  
HETATM   17  C   UNL     1      -6.467  12.055  69.151  1.00  0.00    -0.099 A  
HETATM   18  C   UNL     1      -6.141  12.436  67.847  1.00  0.00    -0.093 A  
HETATM   19  C   UNL     1      -7.053  10.347  67.041  1.00  0.00    -0.092 A  
HETATM   20  C   UNL     1      -6.377  11.546  66.801  1.00  0.00    -0.134 A  
BRANCH  18  21
HETATM   21  O   UNL     1      -5.621  13.657  67.497  1.00  0.00    -0.330 OA 
BRANCH  21  22
HETATM   22  C   UNL     1      -6.347  14.766  68.033  1.00  0.00    -0.154 C  
BRANCH  22  23
HETATM   23  C   UNL     1      -7.630  15.012  67.258  1.00  0.00    -0.227 C  
BRANCH  23  24
HETATM   24  C   UNL     1      -8.906  14.790  68.081  1.00  0.00    -0.170 C  
BRANCH  24  25
HETATM   25  C   UNL     1      -9.518  13.444  67.681  1.00  0.00    -0.216 C  
BRANCH  25  26
HETATM   26  C   UNL     1     -10.988  13.470  67.221  1.00  0.00    -0.293 C  
HETATM   27  C   UNL     1     -11.250  14.773  66.439  1.00  0.00    -0.342 C  
HETATM   28  C   UNL     1     -10.712  14.708  65.010  1.00  0.00    -0.430 C  
HETATM   29  N   UNL     1     -11.338  13.605  64.288  1.00  0.00    -0.501 NA 
HETATM   30  H   UNL     1     -11.087  13.613  63.299  1.00  0.00     0.000 HD 
HETATM   31  C   UNL     1     -11.023  12.321  64.913  1.00  0.00    -0.302 C  
HETATM   32  C   UNL     1     -11.444  12.264  66.383  1.00  0.00    -0.434 C  
ENDBRANCH  25  26
ENDBRANCH  24  25
ENDBRANCH  23  24
ENDBRANCH  22  23
ENDBRANCH  21  22
ENDBRANCH  18  21
ENDBRANCH  14  15
ENDBRANCH  10  14
ENDBRANCH   8  10
ENDBRANCH   5   8
ENDBRANCH   4   5
ENDBRANCH   3   4
ENDBRANCH   2   3
TORSDOF 13
ENDMDL
MODEL      178
REMARK 921   NORMALIZED FREE ENERGY PREDICTED BY IDOCK:   -3.95 KCAL/MOL
REMARK 922        TOTAL FREE ENERGY PREDICTED BY IDOCK:   -9.50 KCAL/MOL
REMARK 923 INTER-LIGAND FREE ENERGY PREDICTED BY IDOCK:   -7.40 KCAL/MOL
REMARK 924 INTRA-LIGAND FREE ENERGY PREDICTED BY IDOCK:   -2.10 KCAL/MOL
REMARK 927      BINDING AFFINITY PREDICTED BY RF-SCORE:    0.00 PKD
ROOT
HETATM    1  C   UNL     1     -12.333  14.809  64.178  1.00  0.00    -0.259 C  
HETATM    2  C   UNL     1     -11.887  13.449  64.712  1.00  0.00    -0.415 C  
ENDROOT
BRANCH   2   3
HETATM    3  C   UNL     1     -12.273  13.355  66.177  1.00  0.00    -0.471 C  
BRANCH   3   4
HETATM    4  C   UNL     1     -11.802  14.493  67.088  1.00  0.00    -0.387 C  
BRANCH   4   5
HETATM    5  S   UNL     1     -11.104  13.680  68.542  1.00  0.00    -0.290 S  
HETATM    6  O   UNL     1      -9.802  14.246  68.806  1.00  0.00    -0.227 OA 
HETATM    7  O   UNL     1     -12.144  13.655  69.542  1.00  0.00    -0.318 OA 
BRANCH   5   8
HETATM    8  N   UNL     1     -10.798  12.070  68.081  1.00  0.00    -0.210 N  
HETATM    9  H   UNL     1     -11.471  11.464  67.611  1.00  0.00     0.000 HD 
BRANCH   8  10
HETATM   10  C   UNL     1      -9.361  11.653  68.472  1.00  0.00    -0.167 C  
HETATM   11  C   UNL     1      -8.442  11.814  67.260  1.00  0.00    -0.160 C  
HETATM   12  O   UNL     1      -7.235  11.993  67.326  1.00  0.00    -0.132 OA 
HETATM   13  O   UNL     1      -9.108  11.740  66.080  1.00  0.00    -0.212 OA 
BRANCH  10  14
HETATM   14  C   UNL     1      -9.219  10.229  69.041  1.00  0.00    -0.188 C  
BRANCH  14  15
HETATM   15  C   UNL     1      -9.133   9.149  67.992  1.00  0.00    -0.136 A  
HETATM   16  C   UNL     1     -10.323   8.718  67.398  1.00  0.00    -0.349 A  
HETATM   17  C   UNL     1     -10.338   7.570  66.611  1.00  0.00    -0.252 A  
HETATM   18  C   UNL     1      -9.171   6.826  66.418  1.00  0.00    -0.153 A  
HETATM   19  C   UNL     1      -7.937   8.500  67.652  1.00  0.00    -0.107 A  
HETATM   20  C   UNL     1      -7.959   7.331  66.885  1.00  0.00    -0.112 A  
BRANCH  18  21
HETATM   21  O   UNL     1      -9.121   5.593  65.817  1.00  0.00    -0.159 OA 
BRANCH  21  22
HETATM   22  C   UNL     1      -8.640   4.555  66.674  1.00  0.00    -0.111 C  
BRANCH  22  23
HETATM   23  C   UNL     1      -9.764   3.960  67.504  1.00  0.00    -0.164 C  
BRANCH  23  24
HETATM   24  C   UNL     1      -9.641   4.237  69.009  1.00  0.00    -0.240 C  
BRANCH  24  25
HETATM   25  C   UNL     1     -10.511   5.448  69.357  1.00  0.00    -0.331 C  
BRANCH  25  26
HETATM   26  C   UNL     1     -10.046   6.303  70.550  1.00  0.00    -0.230 C  
HETATM   27  C   UNL     1     -11.044   7.459  70.764  1.00  0.00    -0.285 C  
HETATM   28  C   UNL     1     -12.316   7.000  71.476  1.00  0.00    -0.379 C  
HETATM   29  N   UNL     1     -11.985   6.432  72.779  1.00  0.00    -0.488 NA 
HETATM   30  H   UNL     1     -12.824   6.230  73.324  1.00  0.00     0.000 HD 
HETATM   31  C   UNL     1     -11.135   5.251  72.637  1.00  0.00    -0.260 C  
HETATM   32  C   UNL     1      -9.843   5.545  71.873  1.00  0.00    -0.210 C  
ENDBRANCH  25  26
ENDBRANCH  24  25
ENDBRANCH  23  24
ENDBRANCH  22  23
ENDBRANCH  21  22
ENDBRANCH  18  21
ENDBRANCH  14  15
ENDBRANCH  10  14
ENDBRANCH   8  10
ENDBRANCH   5   8
ENDBRANCH   4   5
ENDBRANCH   3   4
ENDBRANCH   2   3
TORSDOF 13
ENDMDL
MODEL      179
REMARK 921   NORMALIZED FREE ENERGY PREDICTED BY IDOCK:   -3.95 KCAL/MOL
REMARK 922        TOTAL FREE ENERGY PREDICTED BY IDOCK:   -9.49 KCAL/MOL
REMARK 923 INTER-LIGAND FREE ENERGY PREDICTED BY IDOCK:   -7.94 KCAL/MOL
REMARK 924 INTRA-LIGAND FREE ENERGY PREDICTED BY IDOCK:   -1.54 KCAL/MOL
REMARK 927      BINDING AFFINITY PREDICTED BY RF-SCORE:    0.00 PKD
ROOT
HETATM    1  C   UNL     1      -6.897   3.842  63.977  1.00  0.00    -0.045 C  
HETATM    2  C   UNL     1      -7.392   4.172  65.384  1.00  0.00    -0.072 C  
ENDROOT
BRANCH   2   3
HETATM    3  C   UNL     1      -8.498   5.207  65.277  1.00  0.00    -0.144 C  
BRANCH   3   4
HETATM    4  C   UNL     1      -9.773   4.938  66.082  1.00  0.00    -0.190 C  
BRANCH   4   5
HETATM    5  S   UNL     1     -10.067   6.450  67.024  1.00  0.00    -0.195 S  
HETATM    6  O   UNL     1     -11.487   6.715  67.038  1.00  0.00    -0.233 OA 
HETATM    7  O   UNL     1      -9.299   6.339  68.240  1.00  0.00    -0.115 OA 
BRANCH   5   8
HETATM    8  N   UNL     1      -9.395   7.716  66.106  1.00  0.00    -0.353 N  
HETATM    9  H   UNL     1      -8.671   7.597  65.397  1.00  0.00     0.000 HD 
BRANCH   8  10
HETATM   10  C   UNL     1     -10.031   9.072  66.495  1.00  0.00    -0.285 C  
HETATM   11  C   UNL     1      -9.888  10.048  65.327  1.00  0.00    -0.318 C  
HETATM   12  O   UNL     1     -10.624  11.003  65.130  1.00  0.00    -0.277 OA 
HETATM   13  O   UNL     1      -8.845   9.747  64.512  1.00  0.00    -0.185 OA 
BRANCH  10  14
HETATM   14  C   UNL     1      -9.476   9.717  67.778  1.00  0.00    -0.152 C  
BRANCH  14  15
HETATM   15  C   UNL     1     -10.508   9.950  68.852  1.00  0.00    -0.229 A  
HETATM   16  C   UNL     1     -11.533  10.865  68.587  1.00  0.00    -0.380 A  
HETATM   17  C   UNL     1     -12.366  11.300  69.614  1.00  0.00    -0.262 A  
HETATM   18  C   UNL     1     -12.181  10.843  70.921  1.00  0.00    -0.381 A  
HETATM   19  C   UNL     1     -10.441   9.364  70.124  1.00  0.00    -0.280 A  
HETATM   20  C   UNL     1     -11.260   9.824  71.160  1.00  0.00    -0.444 A  
BRANCH  18  21
HETATM   21  O   UNL     1     -12.825  11.346  72.023  1.00  0.00    -0.359 OA 
BRANCH  21  22
HETATM   22  C   UNL     1     -13.474  12.597  71.788  1.00  0.00    -0.221 C  
BRANCH  22  23
HETATM   23  C   UNL     1     -12.813  13.718  72.571  1.00  0.00    -0.342 C  
BRANCH  23  24
HETATM   24  C   UNL     1     -12.308  14.875  71.698  1.00  0.00    -0.404 C  
BRANCH  24  25
HETATM   25  C   UNL     1     -12.315  14.422  70.235  1.00  0.00    -0.410 C  
BRANCH  25  26
HETATM   26  C   UNL     1     -11.964  15.494  69.186  1.00  0.00    -0.331 C  
HETATM   27  C   UNL     1     -10.743  16.299  69.672  1.00  0.00    -0.338 C  
HETATM   28  C   UNL     1      -9.432  15.542  69.465  1.00  0.00    -0.269 C  
HETATM   29  N   UNL     1      -9.246  15.237  68.050  1.00  0.00    -0.186 NA 
HETATM   30  H   UNL     1      -8.324  14.840  67.870  1.00  0.00     0.000 HD 
HETATM   31  C   UNL     1     -10.314  14.369  67.555  1.00  0.00    -0.251 C  
HETATM   32  C   UNL     1     -11.705  14.971  67.763  1.00  0.00    -0.294 C  
ENDBRANCH  25  26
ENDBRANCH  24  25
ENDBRANCH  23  24
ENDBRANCH  22  23
ENDBRANCH  21  22
ENDBRANCH  18  21
ENDBRANCH  14  15
ENDBRANCH  10  14
ENDBRANCH   8  10
ENDBRANCH   5   8
ENDBRANCH   4   5
ENDBRANCH   3   4
ENDBRANCH   2   3
TORSDOF 13
ENDMDL
MODEL      180
REMARK 921   NORMALIZED FREE ENERGY PREDICTED BY IDOCK:   -3.93 KCAL/MOL
REMARK 922        TOTAL FREE ENERGY PREDICTED BY IDOCK:   -9.46 KCAL/MOL
REMARK 923 INTER-LIGAND FREE ENERGY PREDICTED BY IDOCK:   -8.23 KCAL/MOL
REMARK 924 INTRA-LIGAND FREE ENERGY PREDICTED BY IDOCK:   -1.23 KCAL/MOL
REMARK 927      BINDING AFFINITY PREDICTED BY RF-SCORE:    0.00 PKD
ROOT
HETATM    1  C   UNL     1      -8.203   3.197  69.954  1.00  0.00    -0.067 C  
HETATM    2  C   UNL     1      -9.562   2.591  70.295  1.00  0.00    -0.102 C  
ENDROOT
BRANCH   2   3
HETATM    3  C   UNL     1      -9.843   2.831  71.769  1.00  0.00    -0.220 C  
BRANCH   3   4
HETATM    4  C   UNL     1      -8.689   3.390  72.607  1.00  0.00    -0.085 C  
BRANCH   4   5
HETATM    5  S   UNL     1      -9.298   4.957  73.266  1.00  0.00    -0.123 S  
HETATM    6  O   UNL     1     -10.369   4.681  74.195  1.00  0.00    -0.200 OA 
HETATM    7  O   UNL     1      -8.137   5.727  73.646  1.00  0.00    -0.111 OA 
BRANCH   5   8
HETATM    8  N   UNL     1     -10.043   5.760  71.964  1.00  0.00    -0.182 N  
HETATM    9  H   UNL     1      -9.751   5.680  70.990  1.00  0.00     0.000 HD 
BRANCH   8  10
HETATM   10  C   UNL     1     -11.223   6.629  72.460  1.00  0.00    -0.266 C  
HETATM   11  C   UNL     1     -12.286   6.709  71.363  1.00  0.00    -0.324 C  
HETATM   12  O   UNL     1     -13.471   6.925  71.564  1.00  0.00    -0.316 OA 
HETATM   13  O   UNL     1     -11.777   6.511  70.121  1.00  0.00    -0.418 OA 
BRANCH  10  14
HETATM   14  C   UNL     1     -10.848   8.051  72.919  1.00  0.00    -0.399 C  
BRANCH  14  15
HETATM   15  C   UNL     1     -10.072   8.847  71.901  1.00  0.00    -0.393 A  
HETATM   16  C   UNL     1     -10.790   9.680  71.036  1.00  0.00    -0.412 A  
HETATM   17  C   UNL     1     -10.164  10.247  69.930  1.00  0.00    -0.250 A  
HETATM   18  C   UNL     1      -8.820   9.980  69.659  1.00  0.00    -0.199 A  
HETATM   19  C   UNL     1      -8.686   8.726  71.723  1.00  0.00    -0.223 A  
HETATM   20  C   UNL     1      -8.067   9.272  70.595  1.00  0.00    -0.207 A  
BRANCH  18  21
HETATM   21  O   UNL     1      -8.168  10.339  68.506  1.00  0.00    -0.103 OA 
BRANCH  21  22
HETATM   22  C   UNL     1      -8.513   9.534  67.377  1.00  0.00    -0.125 C  
BRANCH  22  23
HETATM   23  C   UNL     1      -8.706  10.382  66.132  1.00  0.00    -0.163 C  
BRANCH  23  24
HETATM   24  C   UNL     1     -10.082  10.214  65.473  1.00  0.00    -0.338 C  
BRANCH  24  25
HETATM   25  C   UNL     1     -11.027  11.281  66.035  1.00  0.00    -0.237 C  
BRANCH  25  26
HETATM   26  C   UNL     1     -10.613  12.747  65.812  1.00  0.00    -0.295 C  
HETATM   27  C   UNL     1     -10.301  12.964  64.318  1.00  0.00    -0.396 C  
HETATM   28  C   UNL     1     -11.569  13.103  63.477  1.00  0.00    -0.338 C  
HETATM   29  N   UNL     1     -12.363  14.233  63.948  1.00  0.00    -0.986 NA 
HETATM   30  H   UNL     1     -13.152  14.421  63.329  1.00  0.00     0.000 HD 
HETATM   31  C   UNL     1     -12.798  14.030  65.330  1.00  0.00    -0.384 C  
HETATM   32  C   UNL     1     -11.625  13.803  66.287  1.00  0.00    -0.369 C  
ENDBRANCH  25  26
ENDBRANCH  24  25
ENDBRANCH  23  24
ENDBRANCH  22  23
ENDBRANCH  21  22
ENDBRANCH  18  21
ENDBRANCH  14  15
ENDBRANCH  10  14
ENDBRANCH   8  10
ENDBRANCH   5   8
ENDBRANCH   4   5
ENDBRANCH   3   4
ENDBRANCH   2   3
TORSDOF 13
ENDMDL
MODEL      181
REMARK 921   NORMALIZED FREE ENERGY PREDICTED BY IDOCK:   -3.92 KCAL/MOL
REMARK 922        TOTAL FREE ENERGY PREDICTED BY IDOCK:   -9.44 KCAL/MOL
REMARK 923 INTER-LIGAND FREE ENERGY PREDICTED BY IDOCK:   -7.58 KCAL/MOL
REMARK 924 INTRA-LIGAND FREE ENERGY PREDICTED BY IDOCK:   -1.86 KCAL/MOL
REMARK 927      BINDING AFFINITY PREDICTED BY RF-SCORE:    0.00 PKD
ROOT
HETATM    1  C   UNL     1     -10.706   5.756  71.414  1.00  0.00    -0.319 C  
HETATM    2  C   UNL     1      -9.990   4.474  70.993  1.00  0.00    -0.257 C  
ENDROOT
BRANCH   2   3
HETATM    3  C   UNL     1      -9.243   4.739  69.698  1.00  0.00    -0.180 C  
BRANCH   3   4
HETATM    4  C   UNL     1      -8.861   3.515  68.860  1.00  0.00    -0.110 C  
BRANCH   4   5
HETATM    5  S   UNL     1      -7.298   3.951  68.067  1.00  0.00    -0.063 S  
HETATM    6  O   UNL     1      -6.942   5.295  68.460  1.00  0.00    -0.054 OA 
HETATM    7  O   UNL     1      -6.406   2.835  68.267  1.00  0.00    -0.028 OA 
BRANCH   5   8
HETATM    8  N   UNL     1      -7.627   4.053  66.401  1.00  0.00    -0.088 N  
HETATM    9  H   UNL     1      -7.110   3.554  65.676  1.00  0.00     0.000 HD 
BRANCH   8  10
HETATM   10  C   UNL     1      -8.816   5.006  66.135  1.00  0.00    -0.125 C  
HETATM   11  C   UNL     1      -9.843   4.295  65.252  1.00  0.00    -0.207 C  
HETATM   12  O   UNL     1     -11.033   4.570  65.218  1.00  0.00    -0.252 OA 
HETATM   13  O   UNL     1      -9.297   3.310  64.496  1.00  0.00    -0.131 OA 
BRANCH  10  14
HETATM   14  C   UNL     1      -8.447   6.363  65.506  1.00  0.00    -0.141 C  
BRANCH  14  15
HETATM   15  C   UNL     1      -9.059   7.554  66.198  1.00  0.00    -0.179 A  
HETATM   16  C   UNL     1      -9.635   7.355  67.458  1.00  0.00    -0.171 A  
HETATM   17  C   UNL     1     -10.421   8.349  68.034  1.00  0.00    -0.242 A  
HETATM   18  C   UNL     1     -10.659   9.547  67.357  1.00  0.00    -0.271 A  
HETATM   19  C   UNL     1      -9.156   8.822  65.607  1.00  0.00    -0.247 A  
HETATM   20  C   UNL     1      -9.970   9.807  66.173  1.00  0.00    -0.338 A  
BRANCH  18  21
HETATM   21  O   UNL     1     -11.559  10.504  67.756  1.00  0.00    -0.462 OA 
BRANCH  21  22
HETATM   22  C   UNL     1     -11.229  11.118  69.003  1.00  0.00    -0.256 C  
BRANCH  22  23
HETATM   23  C   UNL     1     -10.389  12.367  68.799  1.00  0.00    -0.142 C  
BRANCH  23  24
HETATM   24  C   UNL     1     -11.167  13.678  68.983  1.00  0.00    -0.316 C  
BRANCH  24  25
HETATM   25  C   UNL     1     -11.729  14.108  67.625  1.00  0.00    -0.421 C  
BRANCH  25  26
HETATM   26  C   UNL     1     -10.860  13.793  66.394  1.00  0.00    -0.287 C  
HETATM   27  C   UNL     1     -11.690  12.976  65.384  1.00  0.00    -0.401 C  
HETATM   28  C   UNL     1     -12.655  13.852  64.586  1.00  0.00    -0.249 C  
HETATM   29  N   UNL     1     -11.916  14.874  63.853  1.00  0.00    -0.892 NA 
HETATM   30  H   UNL     1     -12.524  15.395  63.220  1.00  0.00     0.000 HD 
HETATM   31  C   UNL     1     -11.201  15.764  64.767  1.00  0.00    -0.366 C  
HETATM   32  C   UNL     1     -10.240  15.010  65.688  1.00  0.00    -0.386 C  
ENDBRANCH  25  26
ENDBRANCH  24  25
ENDBRANCH  23  24
ENDBRANCH  22  23
ENDBRANCH  21  22
ENDBRANCH  18  21
ENDBRANCH  14  15
ENDBRANCH  10  14
ENDBRANCH   8  10
ENDBRANCH   5   8
ENDBRANCH   4   5
ENDBRANCH   3   4
ENDBRANCH   2   3
TORSDOF 13
ENDMDL
MODEL      182
REMARK 921   NORMALIZED FREE ENERGY PREDICTED BY IDOCK:   -3.90 KCAL/MOL
REMARK 922        TOTAL FREE ENERGY PREDICTED BY IDOCK:   -9.40 KCAL/MOL
REMARK 923 INTER-LIGAND FREE ENERGY PREDICTED BY IDOCK:   -9.19 KCAL/MOL
REMARK 924 INTRA-LIGAND FREE ENERGY PREDICTED BY IDOCK:   -0.21 KCAL/MOL
REMARK 927      BINDING AFFINITY PREDICTED BY RF-SCORE:    0.00 PKD
ROOT
HETATM    1  C   UNL     1      -9.983  10.601  64.791  1.00  0.00    -0.391 C  
HETATM    2  C   UNL     1      -9.474   9.322  65.451  1.00  0.00    -0.281 C  
ENDROOT
BRANCH   2   3
HETATM    3  C   UNL     1     -10.007   9.265  66.872  1.00  0.00    -0.298 C  
BRANCH   3   4
HETATM    4  C   UNL     1     -10.646   7.946  67.315  1.00  0.00    -0.295 C  
BRANCH   4   5
HETATM    5  S   UNL     1      -9.355   7.076  68.230  1.00  0.00    -0.125 S  
HETATM    6  O   UNL     1      -9.975   6.304  69.281  1.00  0.00    -0.147 OA 
HETATM    7  O   UNL     1      -8.487   6.472  67.248  1.00  0.00    -0.112 OA 
BRANCH   5   8
HETATM    8  N   UNL     1      -8.458   8.276  69.037  1.00  0.00    -0.130 N  
HETATM    9  H   UNL     1      -7.575   8.663  68.704  1.00  0.00     0.000 HD 
BRANCH   8  10
HETATM   10  C   UNL     1      -9.165   8.699  70.347  1.00  0.00    -0.170 C  
HETATM   11  C   UNL     1      -8.316   8.264  71.542  1.00  0.00    -0.138 C  
HETATM   12  O   UNL     1      -8.346   8.796  72.641  1.00  0.00    -0.407 OA 
HETATM   13  O   UNL     1      -7.507   7.212  71.258  1.00  0.00    -0.078 OA 
BRANCH  10  14
HETATM   14  C   UNL     1     -10.603   8.176  70.519  1.00  0.00    -0.228 C  
BRANCH  14  15
HETATM   15  C   UNL     1     -11.617   9.243  70.847  1.00  0.00    -0.364 A  
HETATM   16  C   UNL     1     -11.513  10.470  70.184  1.00  0.00    -0.405 A  
HETATM   17  C   UNL     1     -12.259  11.564  70.614  1.00  0.00    -0.473 A  
HETATM   18  C   UNL     1     -13.105  11.456  71.720  1.00  0.00    -0.418 A  
HETATM   19  C   UNL     1     -12.596   9.095  71.841  1.00  0.00    -0.463 A  
HETATM   20  C   UNL     1     -13.321  10.202  72.289  1.00  0.00    -0.337 A  
BRANCH  18  21
HETATM   21  O   UNL     1     -13.736  12.513  72.327  1.00  0.00    -0.482 OA 
BRANCH  21  22
HETATM   22  C   UNL     1     -13.477  13.772  71.702  1.00  0.00    -0.333 C  
BRANCH  22  23
HETATM   23  C   UNL     1     -12.757  14.720  72.645  1.00  0.00    -0.473 C  
BRANCH  23  24
HETATM   24  C   UNL     1     -11.892  15.769  71.932  1.00  0.00    -0.568 C  
BRANCH  24  25
HETATM   25  C   UNL     1     -11.972  15.525  70.423  1.00  0.00    -0.398 C  
BRANCH  25  26
HETATM   26  C   UNL     1     -10.640  15.235  69.705  1.00  0.00    -0.293 C  
HETATM   27  C   UNL     1     -10.775  13.931  68.894  1.00  0.00    -0.256 C  
HETATM   28  C   UNL     1     -11.535  14.141  67.585  1.00  0.00    -0.338 C  
HETATM   29  N   UNL     1     -10.847  15.128  66.758  1.00  0.00    -0.319 NA 
HETATM   30  H   UNL     1     -11.265  15.197  65.830  1.00  0.00     0.000 HD 
HETATM   31  C   UNL     1     -10.794  16.428  67.425  1.00  0.00    -0.219 C  
HETATM   32  C   UNL     1     -10.116  16.358  68.795  1.00  0.00    -0.247 C  
ENDBRANCH  25  26
ENDBRANCH  24  25
ENDBRANCH  23  24
ENDBRANCH  22  23
ENDBRANCH  21  22
ENDBRANCH  18  21
ENDBRANCH  14  15
ENDBRANCH  10  14
ENDBRANCH   8  10
ENDBRANCH   5   8
ENDBRANCH   4   5
ENDBRANCH   3   4
ENDBRANCH   2   3
TORSDOF 13
ENDMDL
MODEL      183
REMARK 921   NORMALIZED FREE ENERGY PREDICTED BY IDOCK:   -3.89 KCAL/MOL
REMARK 922        TOTAL FREE ENERGY PREDICTED BY IDOCK:   -9.40 KCAL/MOL
REMARK 923 INTER-LIGAND FREE ENERGY PREDICTED BY IDOCK:   -7.72 KCAL/MOL
REMARK 924 INTRA-LIGAND FREE ENERGY PREDICTED BY IDOCK:   -1.67 KCAL/MOL
REMARK 927      BINDING AFFINITY PREDICTED BY RF-SCORE:    0.00 PKD
ROOT
HETATM    1  C   UNL     1     -12.270  14.515  71.675  1.00  0.00    -0.403 C  
HETATM    2  C   UNL     1     -11.883  15.835  71.011  1.00  0.00    -0.460 C  
ENDROOT
BRANCH   2   3
HETATM    3  C   UNL     1     -10.774  15.566  70.009  1.00  0.00    -0.331 C  
BRANCH   3   4
HETATM    4  C   UNL     1     -10.979  16.109  68.592  1.00  0.00    -0.336 C  
BRANCH   4   5
HETATM    5  S   UNL     1     -10.890  14.664  67.512  1.00  0.00    -0.293 S  
HETATM    6  O   UNL     1     -12.156  14.518  66.833  1.00  0.00    -0.399 OA 
HETATM    7  O   UNL     1      -9.643  14.761  66.792  1.00  0.00    -0.233 OA 
BRANCH   5   8
HETATM    8  N   UNL     1     -10.785  13.313  68.541  1.00  0.00    -0.257 N  
HETATM    9  H   UNL     1     -10.156  13.240  69.340  1.00  0.00     0.000 HD 
BRANCH   8  10
HETATM   10  C   UNL     1     -11.774  12.209  68.096  1.00  0.00    -0.341 C  
HETATM   11  C   UNL     1     -11.926  11.186  69.223  1.00  0.00    -0.351 C  
HETATM   12  O   UNL     1     -12.905  10.472  69.380  1.00  0.00    -0.082 OA 
HETATM   13  O   UNL     1     -10.851  11.147  70.049  1.00  0.00    -0.125 OA 
BRANCH  10  14
HETATM   14  C   UNL     1     -11.408  11.483  66.788  1.00  0.00    -0.309 C  
BRANCH  14  15
HETATM   15  C   UNL     1     -10.313  10.458  66.933  1.00  0.00    -0.297 A  
HETATM   16  C   UNL     1     -10.652   9.110  66.772  1.00  0.00    -0.207 A  
HETATM   17  C   UNL     1      -9.749   8.113  67.129  1.00  0.00    -0.259 A  
HETATM   18  C   UNL     1      -8.502   8.443  67.665  1.00  0.00    -0.130 A  
HETATM   19  C   UNL     1      -8.999  10.781  67.304  1.00  0.00    -0.143 A  
HETATM   20  C   UNL     1      -8.105   9.779  67.689  1.00  0.00    -0.113 A  
BRANCH  18  21
HETATM   21  O   UNL     1      -7.624   7.541  68.212  1.00  0.00    -0.108 OA 
BRANCH  21  22
HETATM   22  C   UNL     1      -7.785   6.210  67.716  1.00  0.00    -0.098 C  
BRANCH  22  23
HETATM   23  C   UNL     1      -8.148   5.245  68.832  1.00  0.00    -0.086 C  
BRANCH  23  24
HETATM   24  C   UNL     1      -9.580   4.700  68.742  1.00  0.00    -0.229 C  
BRANCH  24  25
HETATM   25  C   UNL     1     -10.321   5.054  70.035  1.00  0.00    -0.303 C  
BRANCH  25  26
HETATM   26  C   UNL     1     -10.029   6.443  70.633  1.00  0.00    -0.213 C  
HETATM   27  C   UNL     1     -11.239   7.365  70.386  1.00  0.00    -0.284 C  
HETATM   28  C   UNL     1     -12.384   7.090  71.360  1.00  0.00    -0.377 C  
HETATM   29  N   UNL     1     -11.931   7.284  72.734  1.00  0.00    -0.537 NA 
HETATM   30  H   UNL     1     -12.705   7.225  73.396  1.00  0.00     0.000 HD 
HETATM   31  C   UNL     1     -10.859   6.348  73.072  1.00  0.00    -0.259 C  
HETATM   32  C   UNL     1      -9.662   6.460  72.126  1.00  0.00    -0.161 C  
ENDBRANCH  25  26
ENDBRANCH  24  25
ENDBRANCH  23  24
ENDBRANCH  22  23
ENDBRANCH  21  22
ENDBRANCH  18  21
ENDBRANCH  14  15
ENDBRANCH  10  14
ENDBRANCH   8  10
ENDBRANCH   5   8
ENDBRANCH   4   5
ENDBRANCH   3   4
ENDBRANCH   2   3
TORSDOF 13
ENDMDL
MODEL      184
REMARK 921   NORMALIZED FREE ENERGY PREDICTED BY IDOCK:   -3.89 KCAL/MOL
REMARK 922        TOTAL FREE ENERGY PREDICTED BY IDOCK:   -9.39 KCAL/MOL
REMARK 923 INTER-LIGAND FREE ENERGY PREDICTED BY IDOCK:   -7.61 KCAL/MOL
REMARK 924 INTRA-LIGAND FREE ENERGY PREDICTED BY IDOCK:   -1.78 KCAL/MOL
REMARK 927      BINDING AFFINITY PREDICTED BY RF-SCORE:    0.00 PKD
ROOT
HETATM    1  C   UNL     1      -6.740  10.478  69.860  1.00  0.00    -0.142 C  
HETATM    2  C   UNL     1      -7.329  10.868  68.507  1.00  0.00    -0.098 C  
ENDROOT
BRANCH   2   3
HETATM    3  C   UNL     1      -7.626  12.358  68.520  1.00  0.00    -0.122 C  
BRANCH   3   4
HETATM    4  C   UNL     1      -8.137  12.969  67.212  1.00  0.00    -0.161 C  
BRANCH   4   5
HETATM    5  S   UNL     1      -8.540  14.683  67.615  1.00  0.00    -0.189 S  
HETATM    6  O   UNL     1      -8.593  14.818  69.052  1.00  0.00    -0.177 OA 
HETATM    7  O   UNL     1      -7.684  15.512  66.801  1.00  0.00    -0.201 OA 
BRANCH   5   8
HETATM    8  N   UNL     1     -10.140  14.928  67.091  1.00  0.00    -0.238 N  
HETATM    9  H   UNL     1     -10.490  15.795  66.683  1.00  0.00     0.000 HD 
BRANCH   8  10
HETATM   10  C   UNL     1     -10.991  13.656  67.319  1.00  0.00    -0.287 C  
HETATM   11  C   UNL     1     -11.976  13.495  66.160  1.00  0.00    -0.412 C  
HETATM   12  O   UNL     1     -12.460  12.430  65.808  1.00  0.00    -0.615 OA 
HETATM   13  O   UNL     1     -12.266  14.670  65.547  1.00  0.00    -0.305 OA 
BRANCH  10  14
HETATM   14  C   UNL     1     -11.754  13.603  68.655  1.00  0.00    -0.389 C  
BRANCH  14  15
HETATM   15  C   UNL     1     -11.760  12.246  69.313  1.00  0.00    -0.388 A  
HETATM   16  C   UNL     1     -12.451  12.108  70.522  1.00  0.00    -0.282 A  
HETATM   17  C   UNL     1     -12.292  10.959  71.291  1.00  0.00    -0.448 A  
HETATM   18  C   UNL     1     -11.432   9.939  70.877  1.00  0.00    -0.376 A  
HETATM   19  C   UNL     1     -11.040  11.148  68.820  1.00  0.00    -0.291 A  
HETATM   20  C   UNL     1     -10.860  10.009  69.607  1.00  0.00    -0.292 A  
BRANCH  18  21
HETATM   21  O   UNL     1     -11.072   8.861  71.645  1.00  0.00    -0.298 OA 
BRANCH  21  22
HETATM   22  C   UNL     1     -12.179   8.195  72.255  1.00  0.00    -0.346 C  
BRANCH  22  23
HETATM   23  C   UNL     1     -12.381   6.808  71.668  1.00  0.00    -0.409 C  
BRANCH  23  24
HETATM   24  C   UNL     1     -11.086   6.145  71.179  1.00  0.00    -0.360 C  
BRANCH  24  25
HETATM   25  C   UNL     1     -10.356   5.548  72.386  1.00  0.00    -0.251 C  
BRANCH  25  26
HETATM   26  C   UNL     1      -8.829   5.396  72.255  1.00  0.00    -0.131 C  
HETATM   27  C   UNL     1      -8.315   4.463  73.369  1.00  0.00    -0.098 C  
HETATM   28  C   UNL     1      -8.576   2.990  73.055  1.00  0.00    -0.080 C  
HETATM   29  N   UNL     1      -7.920   2.618  71.806  1.00  0.00    -0.052 NA 
HETATM   30  H   UNL     1      -7.977   1.614  71.636  1.00  0.00     0.000 HD 
HETATM   31  C   UNL     1      -8.454   3.387  70.682  1.00  0.00    -0.068 C  
HETATM   32  C   UNL     1      -8.325   4.897  70.890  1.00  0.00    -0.108 C  
ENDBRANCH  25  26
ENDBRANCH  24  25
ENDBRANCH  23  24
ENDBRANCH  22  23
ENDBRANCH  21  22
ENDBRANCH  18  21
ENDBRANCH  14  15
ENDBRANCH  10  14
ENDBRANCH   8  10
ENDBRANCH   5   8
ENDBRANCH   4   5
ENDBRANCH   3   4
ENDBRANCH   2   3
TORSDOF 13
ENDMDL
MODEL      185
REMARK 921   NORMALIZED FREE ENERGY PREDICTED BY IDOCK:   -3.89 KCAL/MOL
REMARK 922        TOTAL FREE ENERGY PREDICTED BY IDOCK:   -9.39 KCAL/MOL
REMARK 923 INTER-LIGAND FREE ENERGY PREDICTED BY IDOCK:   -8.12 KCAL/MOL
REMARK 924 INTRA-LIGAND FREE ENERGY PREDICTED BY IDOCK:   -1.26 KCAL/MOL
REMARK 927      BINDING AFFINITY PREDICTED BY RF-SCORE:    0.00 PKD
ROOT
HETATM    1  C   UNL     1      -8.304   3.063  69.862  1.00  0.00    -0.080 C  
HETATM    2  C   UNL     1      -9.559   2.511  70.535  1.00  0.00    -0.138 C  
ENDROOT
BRANCH   2   3
HETATM    3  C   UNL     1      -9.677   3.126  71.918  1.00  0.00    -0.234 C  
BRANCH   3   4
HETATM    4  C   UNL     1      -8.424   3.807  72.478  1.00  0.00    -0.090 C  
BRANCH   4   5
HETATM    5  S   UNL     1      -8.979   5.428  73.048  1.00  0.00    -0.117 S  
HETATM    6  O   UNL     1      -9.955   5.238  74.096  1.00  0.00    -0.172 OA 
HETATM    7  O   UNL     1      -7.794   6.227  73.244  1.00  0.00    -0.099 OA 
BRANCH   5   8
HETATM    8  N   UNL     1      -9.851   6.110  71.756  1.00  0.00    -0.164 N  
HETATM    9  H   UNL     1      -9.590   6.028  70.773  1.00  0.00     0.000 HD 
BRANCH   8  10
HETATM   10  C   UNL     1     -11.094   6.871  72.275  1.00  0.00    -0.249 C  
HETATM   11  C   UNL     1     -12.213   6.777  71.236  1.00  0.00    -0.364 C  
HETATM   12  O   UNL     1     -13.403   6.873  71.492  1.00  0.00    -0.329 OA 
HETATM   13  O   UNL     1     -11.748   6.570  69.978  1.00  0.00    -0.416 OA 
BRANCH  10  14
HETATM   14  C   UNL     1     -10.857   8.347  72.645  1.00  0.00    -0.308 C  
BRANCH  14  15
HETATM   15  C   UNL     1     -10.536   9.237  71.471  1.00  0.00    -0.405 A  
HETATM   16  C   UNL     1     -11.545  10.081  70.994  1.00  0.00    -0.476 A  
HETATM   17  C   UNL     1     -11.390  10.739  69.778  1.00  0.00    -0.372 A  
HETATM   18  C   UNL     1     -10.237  10.555  69.012  1.00  0.00    -0.216 A  
HETATM   19  C   UNL     1      -9.313   9.195  70.785  1.00  0.00    -0.325 A  
HETATM   20  C   UNL     1      -9.172   9.835  69.550  1.00  0.00    -0.226 A  
BRANCH  18  21
HETATM   21  O   UNL     1     -10.071  11.011  67.728  1.00  0.00    -0.173 OA 
BRANCH  21  22
HETATM   22  C   UNL     1     -11.297  11.351  67.076  1.00  0.00    -0.236 C  
BRANCH  22  23
HETATM   23  C   UNL     1     -11.074  12.380  65.982  1.00  0.00    -0.344 C  
BRANCH  23  24
HETATM   24  C   UNL     1     -12.079  13.540  66.004  1.00  0.00    -0.489 C  
BRANCH  24  25
HETATM   25  C   UNL     1     -12.069  14.170  67.400  1.00  0.00    -0.379 C  
BRANCH  25  26
HETATM   26  C   UNL     1     -10.687  14.520  67.983  1.00  0.00    -0.243 C  
HETATM   27  C   UNL     1     -10.198  15.845  67.365  1.00  0.00    -0.270 C  
HETATM   28  C   UNL     1     -10.870  17.062  67.999  1.00  0.00    -0.330 C  
HETATM   29  N   UNL     1     -10.597  17.095  69.433  1.00  0.00    -0.349 NA 
HETATM   30  H   UNL     1     -10.933  17.960  69.858  1.00  0.00     0.000 HD 
HETATM   31  C   UNL     1     -11.148  15.917  70.101  1.00  0.00    -0.365 C  
HETATM   32  C   UNL     1     -10.614  14.607  69.516  1.00  0.00    -0.166 C  
ENDBRANCH  25  26
ENDBRANCH  24  25
ENDBRANCH  23  24
ENDBRANCH  22  23
ENDBRANCH  21  22
ENDBRANCH  18  21
ENDBRANCH  14  15
ENDBRANCH  10  14
ENDBRANCH   8  10
ENDBRANCH   5   8
ENDBRANCH   4   5
ENDBRANCH   3   4
ENDBRANCH   2   3
TORSDOF 13
ENDMDL
MODEL      186
REMARK 921   NORMALIZED FREE ENERGY PREDICTED BY IDOCK:   -3.88 KCAL/MOL
REMARK 922        TOTAL FREE ENERGY PREDICTED BY IDOCK:   -9.37 KCAL/MOL
REMARK 923 INTER-LIGAND FREE ENERGY PREDICTED BY IDOCK:   -8.42 KCAL/MOL
REMARK 924 INTRA-LIGAND FREE ENERGY PREDICTED BY IDOCK:   -0.95 KCAL/MOL
REMARK 927      BINDING AFFINITY PREDICTED BY RF-SCORE:    0.00 PKD
ROOT
HETATM    1  C   UNL     1     -12.230  12.201  63.554  1.00  0.00    -0.670 C  
HETATM    2  C   UNL     1     -10.849  12.540  64.111  1.00  0.00    -0.420 C  
ENDROOT
BRANCH   2   3
HETATM    3  C   UNL     1     -10.931  12.560  65.627  1.00  0.00    -0.323 C  
BRANCH   3   4
HETATM    4  C   UNL     1      -9.908  13.433  66.360  1.00  0.00    -0.296 C  
BRANCH   4   5
HETATM    5  S   UNL     1     -10.870  14.393  67.550  1.00  0.00    -0.288 S  
HETATM    6  O   UNL     1     -10.234  15.678  67.726  1.00  0.00    -0.245 OA 
HETATM    7  O   UNL     1     -12.254  14.273  67.158  1.00  0.00    -0.410 OA 
BRANCH   5   8
HETATM    8  N   UNL     1     -10.691  13.605  69.047  1.00  0.00    -0.377 N  
HETATM    9  H   UNL     1      -9.801  13.286  69.431  1.00  0.00     0.000 HD 
BRANCH   8  10
HETATM   10  C   UNL     1     -12.061  13.440  69.746  1.00  0.00    -0.310 C  
HETATM   11  C   UNL     1     -12.323  14.656  70.636  1.00  0.00    -0.331 C  
HETATM   12  O   UNL     1     -13.433  15.046  70.964  1.00  0.00    -0.409 OA 
HETATM   13  O   UNL     1     -11.182  15.275  71.033  1.00  0.00    -0.330 OA 
BRANCH  10  14
HETATM   14  C   UNL     1     -12.229  12.152  70.573  1.00  0.00    -0.392 C  
BRANCH  14  15
HETATM   15  C   UNL     1     -11.499  10.956  70.013  1.00  0.00    -0.411 A  
HETATM   16  C   UNL     1     -11.435  10.821  68.622  1.00  0.00    -0.365 A  
HETATM   17  C   UNL     1     -10.994   9.630  68.054  1.00  0.00    -0.197 A  
HETATM   18  C   UNL     1     -10.625   8.551  68.861  1.00  0.00    -0.144 A  
HETATM   19  C   UNL     1     -10.963   9.937  70.814  1.00  0.00    -0.407 A  
HETATM   20  C   UNL     1     -10.547   8.732  70.241  1.00  0.00    -0.239 A  
BRANCH  18  21
HETATM   21  O   UNL     1     -10.354   7.287  68.400  1.00  0.00    -0.176 OA 
BRANCH  21  22
HETATM   22  C   UNL     1     -10.763   7.069  67.048  1.00  0.00    -0.353 C  
BRANCH  22  23
HETATM   23  C   UNL     1      -9.760   6.208  66.300  1.00  0.00    -0.106 C  
BRANCH  23  24
HETATM   24  C   UNL     1      -9.911   4.703  66.566  1.00  0.00    -0.265 C  
BRANCH  24  25
HETATM   25  C   UNL     1      -8.927   4.300  67.668  1.00  0.00    -0.135 C  
BRANCH  25  26
HETATM   26  C   UNL     1      -9.532   3.617  68.909  1.00  0.00    -0.218 C  
HETATM   27  C   UNL     1      -8.657   2.411  69.300  1.00  0.00    -0.116 C  
HETATM   28  C   UNL     1      -7.390   2.832  70.043  1.00  0.00    -0.043 C  
HETATM   29  N   UNL     1      -7.739   3.560  71.259  1.00  0.00    -0.054 NA 
HETATM   30  H   UNL     1      -6.917   3.747  71.834  1.00  0.00     0.000 HD 
HETATM   31  C   UNL     1      -8.470   4.787  70.946  1.00  0.00    -0.106 C  
HETATM   32  C   UNL     1      -9.739   4.524  70.133  1.00  0.00    -0.287 C  
ENDBRANCH  25  26
ENDBRANCH  24  25
ENDBRANCH  23  24
ENDBRANCH  22  23
ENDBRANCH  21  22
ENDBRANCH  18  21
ENDBRANCH  14  15
ENDBRANCH  10  14
ENDBRANCH   8  10
ENDBRANCH   5   8
ENDBRANCH   4   5
ENDBRANCH   3   4
ENDBRANCH   2   3
TORSDOF 13
ENDMDL
MODEL      187
REMARK 921   NORMALIZED FREE ENERGY PREDICTED BY IDOCK:   -3.88 KCAL/MOL
REMARK 922        TOTAL FREE ENERGY PREDICTED BY IDOCK:   -9.36 KCAL/MOL
REMARK 923 INTER-LIGAND FREE ENERGY PREDICTED BY IDOCK:   -7.70 KCAL/MOL
REMARK 924 INTRA-LIGAND FREE ENERGY PREDICTED BY IDOCK:   -1.66 KCAL/MOL
REMARK 927      BINDING AFFINITY PREDICTED BY RF-SCORE:    0.00 PKD
ROOT
HETATM    1  C   UNL     1     -10.560   7.167  67.005  1.00  0.00    -0.413 C  
HETATM    2  C   UNL     1     -10.497   7.852  68.368  1.00  0.00    -0.207 C  
ENDROOT
BRANCH   2   3
HETATM    3  C   UNL     1      -9.421   8.923  68.322  1.00  0.00    -0.150 C  
BRANCH   3   4
HETATM    4  C   UNL     1      -9.124   9.541  66.952  1.00  0.00    -0.135 C  
BRANCH   4   5
HETATM    5  S   UNL     1      -7.913  10.843  67.272  1.00  0.00    -0.127 S  
HETATM    6  O   UNL     1      -7.910  11.131  68.687  1.00  0.00    -0.123 OA 
HETATM    7  O   UNL     1      -6.711  10.473  66.565  1.00  0.00    -0.090 OA 
BRANCH   5   8
HETATM    8  N   UNL     1      -8.528  12.250  66.539  1.00  0.00    -0.393 N  
HETATM    9  H   UNL     1      -8.015  12.829  65.874  1.00  0.00     0.000 HD 
BRANCH   8  10
HETATM   10  C   UNL     1      -9.971  12.531  67.019  1.00  0.00    -0.214 C  
HETATM   11  C   UNL     1     -10.916  12.506  65.817  1.00  0.00    -0.292 C  
HETATM   12  O   UNL     1     -12.111  12.259  65.882  1.00  0.00    -0.609 OA 
HETATM   13  O   UNL     1     -10.289  12.788  64.647  1.00  0.00    -0.324 OA 
BRANCH  10  14
HETATM   14  C   UNL     1     -10.163  13.846  67.798  1.00  0.00    -0.237 C  
BRANCH  14  15
HETATM   15  C   UNL     1      -9.033  14.832  67.638  1.00  0.00    -0.183 A  
HETATM   16  C   UNL     1      -9.124  15.771  66.605  1.00  0.00    -0.298 A  
HETATM   17  C   UNL     1      -8.017  16.539  66.257  1.00  0.00    -0.307 A  
HETATM   18  C   UNL     1      -6.800  16.373  66.922  1.00  0.00    -0.196 A  
HETATM   19  C   UNL     1      -7.865  14.796  68.414  1.00  0.00    -0.128 A  
HETATM   20  C   UNL     1      -6.747  15.548  68.045  1.00  0.00    -0.152 A  
BRANCH  18  21
HETATM   21  O   UNL     1      -5.615  16.947  66.536  1.00  0.00    -0.314 OA 
BRANCH  21  22
HETATM   22  C   UNL     1      -5.256  18.097  67.305  1.00  0.00    -0.132 C  
BRANCH  22  23
HETATM   23  C   UNL     1      -5.358  19.367  66.478  1.00  0.00    -0.165 C  
BRANCH  23  24
HETATM   24  C   UNL     1      -6.349  20.397  67.039  1.00  0.00    -0.255 C  
BRANCH  24  25
HETATM   25  C   UNL     1      -7.757  20.035  66.555  1.00  0.00    -0.325 C  
BRANCH  25  26
HETATM   26  C   UNL     1      -8.927  20.528  67.425  1.00  0.00    -0.420 C  
HETATM   27  C   UNL     1     -10.248  20.337  66.654  1.00  0.00    -0.491 C  
HETATM   28  C   UNL     1     -10.727  18.886  66.679  1.00  0.00    -0.313 C  
HETATM   29  N   UNL     1     -10.932  18.449  68.057  1.00  0.00    -0.221 NA 
HETATM   30  H   UNL     1     -11.366  17.526  68.097  1.00  0.00     0.000 HD 
HETATM   31  C   UNL     1      -9.682  18.490  68.813  1.00  0.00    -0.357 C  
HETATM   32  C   UNL     1      -9.042  19.880  68.815  1.00  0.00    -0.133 C  
ENDBRANCH  25  26
ENDBRANCH  24  25
ENDBRANCH  23  24
ENDBRANCH  22  23
ENDBRANCH  21  22
ENDBRANCH  18  21
ENDBRANCH  14  15
ENDBRANCH  10  14
ENDBRANCH   8  10
ENDBRANCH   5   8
ENDBRANCH   4   5
ENDBRANCH   3   4
ENDBRANCH   2   3
TORSDOF 13
ENDMDL
MODEL      188
REMARK 921   NORMALIZED FREE ENERGY PREDICTED BY IDOCK:   -3.86 KCAL/MOL
REMARK 922        TOTAL FREE ENERGY PREDICTED BY IDOCK:   -9.34 KCAL/MOL
REMARK 923 INTER-LIGAND FREE ENERGY PREDICTED BY IDOCK:   -9.25 KCAL/MOL
REMARK 924 INTRA-LIGAND FREE ENERGY PREDICTED BY IDOCK:   -0.09 KCAL/MOL
REMARK 927      BINDING AFFINITY PREDICTED BY RF-SCORE:    0.00 PKD
ROOT
HETATM    1  C   UNL     1     -13.940   9.135  72.513  1.00  0.00    -0.453 C  
HETATM    2  C   UNL     1     -14.192   8.160  71.366  1.00  0.00    -0.431 C  
ENDROOT
BRANCH   2   3
HETATM    3  C   UNL     1     -13.499   6.847  71.685  1.00  0.00    -0.284 C  
BRANCH   3   4
HETATM    4  C   UNL     1     -12.131   6.615  71.035  1.00  0.00    -0.327 C  
BRANCH   4   5
HETATM    5  S   UNL     1     -10.996   6.326  72.409  1.00  0.00    -0.269 S  
HETATM    6  O   UNL     1     -11.092   7.437  73.327  1.00  0.00    -0.365 OA 
HETATM    7  O   UNL     1     -11.199   4.963  72.836  1.00  0.00    -0.260 OA 
BRANCH   5   8
HETATM    8  N   UNL     1      -9.428   6.431  71.757  1.00  0.00    -0.154 N  
HETATM    9  H   UNL     1      -8.830   5.630  71.554  1.00  0.00     0.000 HD 
BRANCH   8  10
HETATM   10  C   UNL     1      -9.034   7.907  71.513  1.00  0.00    -0.136 C  
HETATM   11  C   UNL     1      -7.868   8.276  72.431  1.00  0.00    -0.127 C  
HETATM   12  O   UNL     1      -7.062   9.166  72.202  1.00  0.00    -0.324 OA 
HETATM   13  O   UNL     1      -7.810   7.504  73.545  1.00  0.00    -0.104 OA 
BRANCH  10  14
HETATM   14  C   UNL     1     -10.171   8.931  71.689  1.00  0.00    -0.415 C  
BRANCH  14  15
HETATM   15  C   UNL     1     -10.413   9.803  70.483  1.00  0.00    -0.366 A  
HETATM   16  C   UNL     1      -9.371   9.946  69.560  1.00  0.00    -0.236 A  
HETATM   17  C   UNL     1      -9.445  10.918  68.565  1.00  0.00    -0.185 A  
HETATM   18  C   UNL     1     -10.548  11.771  68.486  1.00  0.00    -0.217 A  
HETATM   19  C   UNL     1     -11.590  10.541  70.289  1.00  0.00    -0.417 A  
HETATM   20  C   UNL     1     -11.649  11.535  69.308  1.00  0.00    -0.388 A  
BRANCH  18  21
HETATM   21  O   UNL     1     -10.631  12.867  67.665  1.00  0.00    -0.220 OA 
BRANCH  21  22
HETATM   22  C   UNL     1     -11.839  13.614  67.824  1.00  0.00    -0.368 C  
BRANCH  22  23
HETATM   23  C   UNL     1     -11.553  15.096  67.998  1.00  0.00    -0.345 C  
BRANCH  23  24
HETATM   24  C   UNL     1     -10.111  15.496  67.655  1.00  0.00    -0.243 C  
BRANCH  24  25
HETATM   25  C   UNL     1     -10.113  16.939  67.141  1.00  0.00    -0.287 C  
BRANCH  25  26
HETATM   26  C   UNL     1      -9.486  17.996  68.069  1.00  0.00    -0.284 C  
HETATM   27  C   UNL     1      -8.024  18.237  67.647  1.00  0.00    -0.245 C  
HETATM   28  C   UNL     1      -7.917  19.131  66.413  1.00  0.00    -0.294 C  
HETATM   29  N   UNL     1      -8.538  20.425  66.675  1.00  0.00    -0.532 NA 
HETATM   30  H   UNL     1      -8.375  21.082  65.911  1.00  0.00     0.000 HD 
HETATM   31  C   UNL     1      -9.964  20.276  66.962  1.00  0.00    -0.460 C  
HETATM   32  C   UNL     1     -10.230  19.340  68.143  1.00  0.00    -0.515 C  
ENDBRANCH  25  26
ENDBRANCH  24  25
ENDBRANCH  23  24
ENDBRANCH  22  23
ENDBRANCH  21  22
ENDBRANCH  18  21
ENDBRANCH  14  15
ENDBRANCH  10  14
ENDBRANCH   8  10
ENDBRANCH   5   8
ENDBRANCH   4   5
ENDBRANCH   3   4
ENDBRANCH   2   3
TORSDOF 13
ENDMDL
MODEL      189
REMARK 921   NORMALIZED FREE ENERGY PREDICTED BY IDOCK:   -3.84 KCAL/MOL
REMARK 922        TOTAL FREE ENERGY PREDICTED BY IDOCK:   -9.30 KCAL/MOL
REMARK 923 INTER-LIGAND FREE ENERGY PREDICTED BY IDOCK:   -7.61 KCAL/MOL
REMARK 924 INTRA-LIGAND FREE ENERGY PREDICTED BY IDOCK:   -1.69 KCAL/MOL
REMARK 927      BINDING AFFINITY PREDICTED BY RF-SCORE:    0.00 PKD
ROOT
HETATM    1  C   UNL     1     -11.946   6.711  71.497  1.00  0.00    -0.402 C  
HETATM    2  C   UNL     1     -11.201   6.234  70.253  1.00  0.00    -0.455 C  
ENDROOT
BRANCH   2   3
HETATM    3  C   UNL     1      -9.718   6.495  70.448  1.00  0.00    -0.186 C  
BRANCH   3   4
HETATM    4  C   UNL     1      -8.761   5.778  69.491  1.00  0.00    -0.111 C  
BRANCH   4   5
HETATM    5  S   UNL     1      -7.414   6.946  69.201  1.00  0.00    -0.097 S  
HETATM    6  O   UNL     1      -7.133   7.639  70.437  1.00  0.00    -0.056 OA 
HETATM    7  O   UNL     1      -6.392   6.230  68.477  1.00  0.00    -0.040 OA 
BRANCH   5   8
HETATM    8  N   UNL     1      -8.039   8.139  68.161  1.00  0.00    -0.127 N  
HETATM    9  H   UNL     1      -7.913   9.143  68.289  1.00  0.00     0.000 HD 
BRANCH   8  10
HETATM   10  C   UNL     1      -8.825   7.492  66.996  1.00  0.00    -0.128 C  
HETATM   11  C   UNL     1      -8.083   7.749  65.684  1.00  0.00    -0.129 C  
HETATM   12  O   UNL     1      -8.175   7.046  64.689  1.00  0.00    -0.110 OA 
HETATM   13  O   UNL     1      -7.295   8.852  65.731  1.00  0.00    -0.087 OA 
BRANCH  10  14
HETATM   14  C   UNL     1     -10.290   7.946  66.857  1.00  0.00    -0.400 C  
BRANCH  14  15
HETATM   15  C   UNL     1     -10.542   9.369  67.286  1.00  0.00    -0.314 A  
HETATM   16  C   UNL     1     -10.890   9.599  68.621  1.00  0.00    -0.203 A  
HETATM   17  C   UNL     1     -11.367  10.846  69.016  1.00  0.00    -0.348 A  
HETATM   18  C   UNL     1     -11.518  11.876  68.086  1.00  0.00    -0.320 A  
HETATM   19  C   UNL     1     -10.530  10.455  66.397  1.00  0.00    -0.246 A  
HETATM   20  C   UNL     1     -11.036  11.697  66.790  1.00  0.00    -0.341 A  
BRANCH  18  21
HETATM   21  O   UNL     1     -12.145  13.070  68.338  1.00  0.00    -0.305 OA 
BRANCH  21  22
HETATM   22  C   UNL     1     -12.191  13.413  69.725  1.00  0.00    -0.245 C  
BRANCH  22  23
HETATM   23  C   UNL     1     -11.283  14.591  70.033  1.00  0.00    -0.228 C  
BRANCH  23  24
HETATM   24  C   UNL     1     -11.790  15.930  69.479  1.00  0.00    -0.310 C  
BRANCH  24  25
HETATM   25  C   UNL     1     -10.629  16.639  68.775  1.00  0.00    -0.340 C  
BRANCH  25  26
HETATM   26  C   UNL     1     -10.781  16.857  67.258  1.00  0.00    -0.208 C  
HETATM   27  C   UNL     1     -10.319  18.283  66.902  1.00  0.00    -0.404 C  
HETATM   28  C   UNL     1      -8.796  18.403  66.855  1.00  0.00    -0.279 C  
HETATM   29  N   UNL     1      -8.250  17.483  65.863  1.00  0.00    -0.553 NA 
HETATM   30  H   UNL     1      -7.249  17.629  65.726  1.00  0.00     0.000 HD 
HETATM   31  C   UNL     1      -8.550  16.095  66.211  1.00  0.00    -0.338 C  
HETATM   32  C   UNL     1     -10.051  15.840  66.364  1.00  0.00    -0.305 C  
ENDBRANCH  25  26
ENDBRANCH  24  25
ENDBRANCH  23  24
ENDBRANCH  22  23
ENDBRANCH  21  22
ENDBRANCH  18  21
ENDBRANCH  14  15
ENDBRANCH  10  14
ENDBRANCH   8  10
ENDBRANCH   5   8
ENDBRANCH   4   5
ENDBRANCH   3   4
ENDBRANCH   2   3
TORSDOF 13
ENDMDL
MODEL      190
REMARK 921   NORMALIZED FREE ENERGY PREDICTED BY IDOCK:   -3.84 KCAL/MOL
REMARK 922        TOTAL FREE ENERGY PREDICTED BY IDOCK:   -9.29 KCAL/MOL
REMARK 923 INTER-LIGAND FREE ENERGY PREDICTED BY IDOCK:   -8.36 KCAL/MOL
REMARK 924 INTRA-LIGAND FREE ENERGY PREDICTED BY IDOCK:   -0.94 KCAL/MOL
REMARK 927      BINDING AFFINITY PREDICTED BY RF-SCORE:    0.00 PKD
ROOT
HETATM    1  C   UNL     1     -10.352   5.957  74.354  1.00  0.00    -0.267 C  
HETATM    2  C   UNL     1     -10.355   6.577  72.959  1.00  0.00    -0.239 C  
ENDROOT
BRANCH   2   3
HETATM    3  C   UNL     1      -8.944   6.519  72.400  1.00  0.00    -0.133 C  
BRANCH   3   4
HETATM    4  C   UNL     1      -8.751   7.013  70.963  1.00  0.00    -0.139 C  
BRANCH   4   5
HETATM    5  S   UNL     1      -8.070   8.679  71.122  1.00  0.00    -0.158 S  
HETATM    6  O   UNL     1      -7.916   8.981  72.526  1.00  0.00    -0.334 OA 
HETATM    7  O   UNL     1      -6.967   8.766  70.196  1.00  0.00    -0.041 OA 
BRANCH   5   8
HETATM    8  N   UNL     1      -9.284   9.739  70.576  1.00  0.00    -0.345 N  
HETATM    9  H   UNL     1      -9.243  10.755  70.653  1.00  0.00     0.000 HD 
BRANCH   8  10
HETATM   10  C   UNL     1     -10.457   8.950  69.948  1.00  0.00    -0.214 C  
HETATM   11  C   UNL     1     -10.219   8.806  68.444  1.00  0.00    -0.196 C  
HETATM   12  O   UNL     1     -10.687   7.913  67.753  1.00  0.00    -0.206 OA 
HETATM   13  O   UNL     1      -9.423   9.782  67.940  1.00  0.00    -0.131 OA 
BRANCH  10  14
HETATM   14  C   UNL     1     -11.857   9.544  70.193  1.00  0.00    -0.036 C  
BRANCH  14  15
HETATM   15  C   UNL     1     -11.892  11.050  70.244  1.00  0.00    -0.456 A  
HETATM   16  C   UNL     1     -12.351  11.655  71.419  1.00  0.00    -0.201 A  
HETATM   17  C   UNL     1     -12.634  13.018  71.440  1.00  0.00    -0.329 A  
HETATM   18  C   UNL     1     -12.479  13.794  70.289  1.00  0.00    -0.289 A  
HETATM   19  C   UNL     1     -11.572  11.865  69.148  1.00  0.00    -0.373 A  
HETATM   20  C   UNL     1     -11.884  13.227  69.163  1.00  0.00    -0.378 A  
BRANCH  18  21
HETATM   21  O   UNL     1     -12.900  15.094  70.161  1.00  0.00    -0.268 OA 
BRANCH  21  22
HETATM   22  C   UNL     1     -12.044  15.897  69.346  1.00  0.00    -0.168 C  
BRANCH  22  23
HETATM   23  C   UNL     1     -10.699  16.125  70.016  1.00  0.00    -0.318 C  
BRANCH  23  24
HETATM   24  C   UNL     1      -9.531  16.274  69.031  1.00  0.00    -0.258 C  
BRANCH  24  25
HETATM   25  C   UNL     1      -9.973  17.184  67.881  1.00  0.00    -0.292 C  
BRANCH  25  26
HETATM   26  C   UNL     1      -9.915  18.699  68.148  1.00  0.00    -0.397 C  
HETATM   27  C   UNL     1      -8.452  19.175  68.054  1.00  0.00    -0.345 C  
HETATM   28  C   UNL     1      -7.984  19.323  66.607  1.00  0.00    -0.277 C  
HETATM   29  N   UNL     1      -8.825  20.286  65.903  1.00  0.00    -0.555 NA 
HETATM   30  H   UNL     1      -8.461  20.493  64.973  1.00  0.00     0.000 HD 
HETATM   31  C   UNL     1     -10.214  19.830  65.850  1.00  0.00    -0.459 C  
HETATM   32  C   UNL     1     -10.800  19.569  67.239  1.00  0.00    -0.557 C  
ENDBRANCH  25  26
ENDBRANCH  24  25
ENDBRANCH  23  24
ENDBRANCH  22  23
ENDBRANCH  21  22
ENDBRANCH  18  21
ENDBRANCH  14  15
ENDBRANCH  10  14
ENDBRANCH   8  10
ENDBRANCH   5   8
ENDBRANCH   4   5
ENDBRANCH   3   4
ENDBRANCH   2   3
TORSDOF 13
ENDMDL
MODEL      191
REMARK 921   NORMALIZED FREE ENERGY PREDICTED BY IDOCK:   -3.83 KCAL/MOL
REMARK 922        TOTAL FREE ENERGY PREDICTED BY IDOCK:   -9.29 KCAL/MOL
REMARK 923 INTER-LIGAND FREE ENERGY PREDICTED BY IDOCK:   -8.78 KCAL/MOL
REMARK 924 INTRA-LIGAND FREE ENERGY PREDICTED BY IDOCK:   -0.51 KCAL/MOL
REMARK 927      BINDING AFFINITY PREDICTED BY RF-SCORE:    0.00 PKD
ROOT
HETATM    1  C   UNL     1     -12.218  15.816  70.340  1.00  0.00    -0.388 C  
HETATM    2  C   UNL     1     -10.884  16.540  70.173  1.00  0.00    -0.208 C  
ENDROOT
BRANCH   2   3
HETATM    3  C   UNL     1     -10.158  15.950  68.977  1.00  0.00    -0.228 C  
BRANCH   3   4
HETATM    4  C   UNL     1     -10.576  16.465  67.596  1.00  0.00    -0.313 C  
BRANCH   4   5
HETATM    5  S   UNL     1      -9.479  15.632  66.428  1.00  0.00    -0.319 S  
HETATM    6  O   UNL     1      -8.594  16.615  65.846  1.00  0.00    -0.473 OA 
HETATM    7  O   UNL     1      -8.979  14.454  67.095  1.00  0.00    -0.209 OA 
BRANCH   5   8
HETATM    8  N   UNL     1     -10.464  15.114  65.141  1.00  0.00    -0.401 N  
HETATM    9  H   UNL     1     -10.501  15.558  64.223  1.00  0.00     0.000 HD 
BRANCH   8  10
HETATM   10  C   UNL     1     -11.298  13.878  65.554  1.00  0.00    -0.308 C  
HETATM   11  C   UNL     1     -12.315  13.566  64.455  1.00  0.00    -0.355 C  
HETATM   12  O   UNL     1     -12.801  12.463  64.256  1.00  0.00    -0.692 OA 
HETATM   13  O   UNL     1     -12.632  14.653  63.706  1.00  0.00    -0.820 OA 
BRANCH  10  14
HETATM   14  C   UNL     1     -12.022  13.993  66.909  1.00  0.00    -0.479 C  
BRANCH  14  15
HETATM   15  C   UNL     1     -11.945  12.750  67.760  1.00  0.00    -0.316 A  
HETATM   16  C   UNL     1     -12.254  12.868  69.119  1.00  0.00    -0.083 A  
HETATM   17  C   UNL     1     -11.970  11.824  69.995  1.00  0.00    -0.421 A  
HETATM   18  C   UNL     1     -11.361  10.655  69.533  1.00  0.00    -0.277 A  
HETATM   19  C   UNL     1     -11.499  11.512  67.276  1.00  0.00    -0.338 A  
HETATM   20  C   UNL     1     -11.189  10.476  68.161  1.00  0.00    -0.357 A  
BRANCH  18  21
HETATM   21  O   UNL     1     -10.879   9.654  70.339  1.00  0.00    -0.248 OA 
BRANCH  21  22
HETATM   22  C   UNL     1     -11.652   9.449  71.523  1.00  0.00    -0.397 C  
BRANCH  22  23
HETATM   23  C   UNL     1     -11.414   8.066  72.105  1.00  0.00    -0.393 C  
BRANCH  23  24
HETATM   24  C   UNL     1     -10.574   7.149  71.206  1.00  0.00    -0.230 C  
BRANCH  24  25
HETATM   25  C   UNL     1      -9.156   7.067  71.780  1.00  0.00    -0.140 C  
BRANCH  25  26
HETATM   26  C   UNL     1      -8.074   6.487  70.850  1.00  0.00    -0.123 C  
HETATM   27  C   UNL     1      -7.622   7.576  69.857  1.00  0.00    -0.093 C  
HETATM   28  C   UNL     1      -6.660   8.577  70.495  1.00  0.00    -0.037 C  
HETATM   29  N   UNL     1      -5.474   7.886  70.991  1.00  0.00    -0.030 NA 
HETATM   30  H   UNL     1      -4.763   8.544  71.313  1.00  0.00     0.000 HD 
HETATM   31  C   UNL     1      -5.824   6.920  72.031  1.00  0.00    -0.038 C  
HETATM   32  C   UNL     1      -6.845   5.886  71.553  1.00  0.00    -0.067 C  
ENDBRANCH  25  26
ENDBRANCH  24  25
ENDBRANCH  23  24
ENDBRANCH  22  23
ENDBRANCH  21  22
ENDBRANCH  18  21
ENDBRANCH  14  15
ENDBRANCH  10  14
ENDBRANCH   8  10
ENDBRANCH   5   8
ENDBRANCH   4   5
ENDBRANCH   3   4
ENDBRANCH   2   3
TORSDOF 13
ENDMDL
MODEL      192
REMARK 921   NORMALIZED FREE ENERGY PREDICTED BY IDOCK:   -3.82 KCAL/MOL
REMARK 922        TOTAL FREE ENERGY PREDICTED BY IDOCK:   -9.27 KCAL/MOL
REMARK 923 INTER-LIGAND FREE ENERGY PREDICTED BY IDOCK:   -7.32 KCAL/MOL
REMARK 924 INTRA-LIGAND FREE ENERGY PREDICTED BY IDOCK:   -1.95 KCAL/MOL
REMARK 927      BINDING AFFINITY PREDICTED BY RF-SCORE:    0.00 PKD
ROOT
HETATM    1  C   UNL     1     -12.170  14.218  64.240  1.00  0.00    -0.451 C  
HETATM    2  C   UNL     1     -11.677  12.823  63.863  1.00  0.00    -0.530 C  
ENDROOT
BRANCH   2   3
HETATM    3  C   UNL     1     -10.521  12.455  64.777  1.00  0.00    -0.333 C  
BRANCH   3   4
HETATM    4  C   UNL     1     -10.884  11.900  66.157  1.00  0.00    -0.292 C  
BRANCH   4   5
HETATM    5  S   UNL     1     -10.119  13.031  67.340  1.00  0.00    -0.234 S  
HETATM    6  O   UNL     1     -10.804  14.301  67.272  1.00  0.00    -0.277 OA 
HETATM    7  O   UNL     1      -9.980  12.303  68.579  1.00  0.00    -0.213 OA 
BRANCH   5   8
HETATM    8  N   UNL     1      -8.554  13.343  66.750  1.00  0.00    -0.430 N  
HETATM    9  H   UNL     1      -8.321  14.084  66.088  1.00  0.00     0.000 HD 
BRANCH   8  10
HETATM   10  C   UNL     1      -7.533  12.351  67.354  1.00  0.00    -0.157 C  
HETATM   11  C   UNL     1      -6.372  13.134  67.968  1.00  0.00    -0.127 C  
HETATM   12  O   UNL     1      -5.657  12.719  68.868  1.00  0.00    -0.068 OA 
HETATM   13  O   UNL     1      -6.209  14.360  67.410  1.00  0.00    -0.334 OA 
BRANCH  10  14
HETATM   14  C   UNL     1      -6.983  11.294  66.379  1.00  0.00    -0.052 C  
BRANCH  14  15
HETATM   15  C   UNL     1      -7.518   9.903  66.604  1.00  0.00    -0.099 A  
HETATM   16  C   UNL     1      -7.682   9.471  67.925  1.00  0.00    -0.087 A  
HETATM   17  C   UNL     1      -7.938   8.130  68.196  1.00  0.00    -0.127 A  
HETATM   18  C   UNL     1      -8.019   7.198  67.159  1.00  0.00    -0.110 A  
HETATM   19  C   UNL     1      -7.776   8.998  65.563  1.00  0.00    -0.091 A  
HETATM   20  C   UNL     1      -8.004   7.648  65.839  1.00  0.00    -0.116 A  
BRANCH  18  21
HETATM   21  O   UNL     1      -8.085   5.838  67.334  1.00  0.00    -0.102 OA 
BRANCH  21  22
HETATM   22  C   UNL     1      -9.190   5.226  66.665  1.00  0.00    -0.130 C  
BRANCH  22  23
HETATM   23  C   UNL     1     -10.477   5.399  67.453  1.00  0.00    -0.253 C  
BRANCH  23  24
HETATM   24  C   UNL     1     -10.275   5.430  68.975  1.00  0.00    -0.291 C  
BRANCH  24  25
HETATM   25  C   UNL     1     -11.324   6.362  69.589  1.00  0.00    -0.479 C  
BRANCH  25  26
HETATM   26  C   UNL     1     -11.159   6.686  71.085  1.00  0.00    -0.326 C  
HETATM   27  C   UNL     1     -10.309   7.963  71.237  1.00  0.00    -0.222 C  
HETATM   28  C   UNL     1     -11.116   9.231  70.963  1.00  0.00    -0.326 C  
HETATM   29  N   UNL     1     -12.243   9.318  71.885  1.00  0.00    -0.374 NA 
HETATM   30  H   UNL     1     -12.727  10.212  71.804  1.00  0.00     0.000 HD 
HETATM   31  C   UNL     1     -13.159   8.191  71.705  1.00  0.00    -0.335 C  
HETATM   32  C   UNL     1     -12.466   6.838  71.881  1.00  0.00    -0.355 C  
ENDBRANCH  25  26
ENDBRANCH  24  25
ENDBRANCH  23  24
ENDBRANCH  22  23
ENDBRANCH  21  22
ENDBRANCH  18  21
ENDBRANCH  14  15
ENDBRANCH  10  14
ENDBRANCH   8  10
ENDBRANCH   5   8
ENDBRANCH   4   5
ENDBRANCH   3   4
ENDBRANCH   2   3
TORSDOF 13
ENDMDL
MODEL      193
REMARK 921   NORMALIZED FREE ENERGY PREDICTED BY IDOCK:   -3.79 KCAL/MOL
REMARK 922        TOTAL FREE ENERGY PREDICTED BY IDOCK:   -9.21 KCAL/MOL
REMARK 923 INTER-LIGAND FREE ENERGY PREDICTED BY IDOCK:   -9.26 KCAL/MOL
REMARK 924 INTRA-LIGAND FREE ENERGY PREDICTED BY IDOCK:    0.05 KCAL/MOL
REMARK 927      BINDING AFFINITY PREDICTED BY RF-SCORE:    0.00 PKD
ROOT
HETATM    1  C   UNL     1     -10.763  13.782  64.944  1.00  0.00    -0.410 C  
HETATM    2  C   UNL     1     -11.338  14.848  65.874  1.00  0.00    -0.306 C  
ENDROOT
BRANCH   2   3
HETATM    3  C   UNL     1     -11.862  14.166  67.126  1.00  0.00    -0.454 C  
BRANCH   3   4
HETATM    4  C   UNL     1     -10.836  13.850  68.218  1.00  0.00    -0.249 C  
BRANCH   4   5
HETATM    5  S   UNL     1     -11.238  14.961  69.583  1.00  0.00    -0.287 S  
HETATM    6  O   UNL     1     -10.076  15.765  69.881  1.00  0.00    -0.275 OA 
HETATM    7  O   UNL     1     -12.517  15.553  69.273  1.00  0.00    -0.157 OA 
BRANCH   5   8
HETATM    8  N   UNL     1     -11.449  13.972  70.951  1.00  0.00    -0.456 N  
HETATM    9  H   UNL     1     -10.722  13.383  71.358  1.00  0.00     0.000 HD 
BRANCH   8  10
HETATM   10  C   UNL     1     -12.893  14.087  71.493  1.00  0.00    -0.362 C  
HETATM   11  C   UNL     1     -12.966  15.243  72.492  1.00  0.00    -0.393 C  
HETATM   12  O   UNL     1     -13.984  15.864  72.758  1.00  0.00    -0.581 OA 
HETATM   13  O   UNL     1     -11.768  15.520  73.065  1.00  0.00    -0.453 OA 
BRANCH  10  14
HETATM   14  C   UNL     1     -13.459  12.810  72.141  1.00  0.00    -0.591 C  
BRANCH  14  15
HETATM   15  C   UNL     1     -12.965  11.528  71.520  1.00  0.00    -0.485 A  
HETATM   16  C   UNL     1     -13.247  10.328  72.182  1.00  0.00    -0.443 A  
HETATM   17  C   UNL     1     -12.618   9.149  71.792  1.00  0.00    -0.446 A  
HETATM   18  C   UNL     1     -11.688   9.150  70.750  1.00  0.00    -0.256 A  
HETATM   19  C   UNL     1     -12.169  11.489  70.366  1.00  0.00    -0.442 A  
HETATM   20  C   UNL     1     -11.516  10.310  69.995  1.00  0.00    -0.367 A  
BRANCH  18  21
HETATM   21  O   UNL     1     -10.888   8.087  70.416  1.00  0.00    -0.240 OA 
BRANCH  21  22
HETATM   22  C   UNL     1     -11.383   6.828  70.878  1.00  0.00    -0.315 C  
BRANCH  22  23
HETATM   23  C   UNL     1     -10.280   5.784  70.924  1.00  0.00    -0.275 C  
BRANCH  23  24
HETATM   24  C   UNL     1     -10.126   4.985  69.622  1.00  0.00    -0.321 C  
BRANCH  24  25
HETATM   25  C   UNL     1      -9.481   5.888  68.567  1.00  0.00    -0.134 C  
BRANCH  25  26
HETATM   26  C   UNL     1      -9.279   5.271  67.170  1.00  0.00    -0.113 C  
HETATM   27  C   UNL     1      -9.080   6.402  66.141  1.00  0.00    -0.150 C  
HETATM   28  C   UNL     1      -7.666   6.981  66.186  1.00  0.00    -0.095 C  
HETATM   29  N   UNL     1      -6.686   5.935  65.914  1.00  0.00    -0.054 NA 
HETATM   30  H   UNL     1      -5.745   6.318  65.819  1.00  0.00     0.000 HD 
HETATM   31  C   UNL     1      -6.740   4.886  66.932  1.00  0.00    -0.054 C  
HETATM   32  C   UNL     1      -8.130   4.256  67.052  1.00  0.00    -0.101 C  
ENDBRANCH  25  26
ENDBRANCH  24  25
ENDBRANCH  23  24
ENDBRANCH  22  23
ENDBRANCH  21  22
ENDBRANCH  18  21
ENDBRANCH  14  15
ENDBRANCH  10  14
ENDBRANCH   8  10
ENDBRANCH   5   8
ENDBRANCH   4   5
ENDBRANCH   3   4
ENDBRANCH   2   3
TORSDOF 13
ENDMDL
MODEL      194
REMARK 921   NORMALIZED FREE ENERGY PREDICTED BY IDOCK:   -3.78 KCAL/MOL
REMARK 922        TOTAL FREE ENERGY PREDICTED BY IDOCK:   -9.20 KCAL/MOL
REMARK 923 INTER-LIGAND FREE ENERGY PREDICTED BY IDOCK:   -7.40 KCAL/MOL
REMARK 924 INTRA-LIGAND FREE ENERGY PREDICTED BY IDOCK:   -1.79 KCAL/MOL
REMARK 927      BINDING AFFINITY PREDICTED BY RF-SCORE:    0.00 PKD
ROOT
HETATM    1  C   UNL     1     -11.273  11.868  63.435  1.00  0.00    -0.463 C  
HETATM    2  C   UNL     1     -10.300  11.728  64.604  1.00  0.00    -0.336 C  
ENDROOT
BRANCH   2   3
HETATM    3  C   UNL     1     -10.183  10.257  64.963  1.00  0.00    -0.277 C  
BRANCH   3   4
HETATM    4  C   UNL     1      -8.924   9.530  64.483  1.00  0.00    -0.212 C  
BRANCH   4   5
HETATM    5  S   UNL     1      -8.696   8.162  65.641  1.00  0.00    -0.110 S  
HETATM    6  O   UNL     1      -8.656   6.927  64.893  1.00  0.00    -0.005 OA 
HETATM    7  O   UNL     1      -7.631   8.548  66.535  1.00  0.00    -0.086 OA 
BRANCH   5   8
HETATM    8  N   UNL     1     -10.128   8.075  66.556  1.00  0.00    -0.441 N  
HETATM    9  H   UNL     1     -11.068   8.180  66.174  1.00  0.00     0.000 HD 
BRANCH   8  10
HETATM   10  C   UNL     1      -9.809   7.814  68.047  1.00  0.00    -0.163 C  
HETATM   11  C   UNL     1     -10.119   6.354  68.381  1.00  0.00    -0.157 C  
HETATM   12  O   UNL     1      -9.597   5.727  69.291  1.00  0.00    -0.131 OA 
HETATM   13  O   UNL     1     -11.046   5.809  67.553  1.00  0.00    -0.171 OA 
BRANCH  10  14
HETATM   14  C   UNL     1     -10.532   8.736  69.047  1.00  0.00    -0.220 C  
BRANCH  14  15
HETATM   15  C   UNL     1     -10.209  10.200  68.887  1.00  0.00    -0.213 A  
HETATM   16  C   UNL     1     -11.273  11.090  68.711  1.00  0.00    -0.327 A  
HETATM   17  C   UNL     1     -11.031  12.403  68.318  1.00  0.00    -0.269 A  
HETATM   18  C   UNL     1      -9.727  12.844  68.081  1.00  0.00    -0.227 A  
HETATM   19  C   UNL     1      -8.898  10.696  68.819  1.00  0.00    -0.161 A  
HETATM   20  C   UNL     1      -8.658  12.006  68.398  1.00  0.00    -0.147 A  
BRANCH  18  21
HETATM   21  O   UNL     1      -9.401  14.054  67.521  1.00  0.00    -0.197 OA 
BRANCH  21  22
HETATM   22  C   UNL     1     -10.364  14.527  66.577  1.00  0.00    -0.283 C  
BRANCH  22  23
HETATM   23  C   UNL     1      -9.735  15.486  65.581  1.00  0.00    -0.355 C  
BRANCH  23  24
HETATM   24  C   UNL     1      -9.746  16.952  66.036  1.00  0.00    -0.260 C  
BRANCH  24  25
HETATM   25  C   UNL     1      -8.317  17.361  66.405  1.00  0.00    -0.302 C  
BRANCH  25  26
HETATM   26  C   UNL     1      -8.061  17.695  67.886  1.00  0.00    -0.233 C  
HETATM   27  C   UNL     1      -7.905  19.220  68.042  1.00  0.00    -0.333 C  
HETATM   28  C   UNL     1      -9.250  19.944  68.021  1.00  0.00    -0.313 C  
HETATM   29  N   UNL     1     -10.100  19.457  69.103  1.00  0.00    -0.586 NA 
HETATM   30  H   UNL     1     -10.955  20.008  69.185  1.00  0.00     0.000 HD 
HETATM   31  C   UNL     1     -10.389  18.033  68.943  1.00  0.00    -0.234 C  
HETATM   32  C   UNL     1      -9.120  17.180  68.876  1.00  0.00    -0.192 C  
ENDBRANCH  25  26
ENDBRANCH  24  25
ENDBRANCH  23  24
ENDBRANCH  22  23
ENDBRANCH  21  22
ENDBRANCH  18  21
ENDBRANCH  14  15
ENDBRANCH  10  14
ENDBRANCH   8  10
ENDBRANCH   5   8
ENDBRANCH   4   5
ENDBRANCH   3   4
ENDBRANCH   2   3
TORSDOF 13
ENDMDL
MODEL      195
REMARK 921   NORMALIZED FREE ENERGY PREDICTED BY IDOCK:   -3.77 KCAL/MOL
REMARK 922        TOTAL FREE ENERGY PREDICTED BY IDOCK:   -9.18 KCAL/MOL
REMARK 923 INTER-LIGAND FREE ENERGY PREDICTED BY IDOCK:   -9.10 KCAL/MOL
REMARK 924 INTRA-LIGAND FREE ENERGY PREDICTED BY IDOCK:   -0.08 KCAL/MOL
REMARK 927      BINDING AFFINITY PREDICTED BY RF-SCORE:    0.00 PKD
ROOT
HETATM    1  C   UNL     1      -6.541  13.358  68.950  1.00  0.00    -0.107 C  
HETATM    2  C   UNL     1      -7.801  13.504  68.099  1.00  0.00    -0.144 C  
ENDROOT
BRANCH   2   3
HETATM    3  C   UNL     1      -7.745  14.840  67.378  1.00  0.00    -0.230 C  
BRANCH   3   4
HETATM    4  C   UNL     1      -8.593  15.974  67.963  1.00  0.00    -0.165 C  
BRANCH   4   5
HETATM    5  S   UNL     1      -9.303  16.820  66.534  1.00  0.00    -0.280 S  
HETATM    6  O   UNL     1     -10.640  17.249  66.872  1.00  0.00    -0.300 OA 
HETATM    7  O   UNL     1      -8.302  17.743  66.058  1.00  0.00    -0.493 OA 
BRANCH   5   8
HETATM    8  N   UNL     1      -9.514  15.629  65.337  1.00  0.00    -0.161 N  
HETATM    9  H   UNL     1      -8.853  15.442  64.583  1.00  0.00     0.000 HD 
BRANCH   8  10
HETATM   10  C   UNL     1     -10.846  14.870  65.549  1.00  0.00    -0.356 C  
HETATM   11  C   UNL     1     -11.821  15.241  64.431  1.00  0.00    -0.281 C  
HETATM   12  O   UNL     1     -12.744  14.534  64.055  1.00  0.00    -0.759 OA 
HETATM   13  O   UNL     1     -11.557  16.454  63.882  1.00  0.00    -1.100 OA 
BRANCH  10  14
HETATM   14  C   UNL     1     -11.521  15.090  66.915  1.00  0.00    -0.266 C  
BRANCH  14  15
HETATM   15  C   UNL     1     -11.514  13.879  67.813  1.00  0.00    -0.354 A  
HETATM   16  C   UNL     1     -11.537  12.617  67.209  1.00  0.00    -0.428 A  
HETATM   17  C   UNL     1     -11.775  11.479  67.975  1.00  0.00    -0.343 A  
HETATM   18  C   UNL     1     -12.009  11.582  69.348  1.00  0.00    -0.325 A  
HETATM   19  C   UNL     1     -11.573  13.957  69.212  1.00  0.00    -0.358 A  
HETATM   20  C   UNL     1     -11.841  12.816  69.974  1.00  0.00    -0.352 A  
BRANCH  18  21
HETATM   21  O   UNL     1     -12.429  10.550  70.148  1.00  0.00    -0.295 OA 
BRANCH  21  22
HETATM   22  C   UNL     1     -11.412  10.044  71.015  1.00  0.00    -0.383 C  
BRANCH  22  23
HETATM   23  C   UNL     1     -10.510   9.058  70.293  1.00  0.00    -0.248 C  
BRANCH  23  24
HETATM   24  C   UNL     1     -11.081   7.635  70.215  1.00  0.00    -0.256 C  
BRANCH  24  25
HETATM   25  C   UNL     1     -10.620   6.854  71.449  1.00  0.00    -0.242 C  
BRANCH  25  26
HETATM   26  C   UNL     1      -9.314   6.052  71.302  1.00  0.00    -0.170 C  
HETATM   27  C   UNL     1      -8.397   6.353  72.504  1.00  0.00    -0.116 C  
HETATM   28  C   UNL     1      -8.823   5.595  73.760  1.00  0.00    -0.124 C  
HETATM   29  N   UNL     1      -8.798   4.157  73.512  1.00  0.00    -0.094 NA 
HETATM   30  H   UNL     1      -8.961   3.626  74.368  1.00  0.00     0.000 HD 
HETATM   31  C   UNL     1      -9.743   3.788  72.459  1.00  0.00    -0.145 C  
HETATM   32  C   UNL     1      -9.481   4.531  71.148  1.00  0.00    -0.226 C  
ENDBRANCH  25  26
ENDBRANCH  24  25
ENDBRANCH  23  24
ENDBRANCH  22  23
ENDBRANCH  21  22
ENDBRANCH  18  21
ENDBRANCH  14  15
ENDBRANCH  10  14
ENDBRANCH   8  10
ENDBRANCH   5   8
ENDBRANCH   4   5
ENDBRANCH   3   4
ENDBRANCH   2   3
TORSDOF 13
ENDMDL
MODEL      196
REMARK 921   NORMALIZED FREE ENERGY PREDICTED BY IDOCK:   -3.77 KCAL/MOL
REMARK 922        TOTAL FREE ENERGY PREDICTED BY IDOCK:   -9.18 KCAL/MOL
REMARK 923 INTER-LIGAND FREE ENERGY PREDICTED BY IDOCK:   -8.12 KCAL/MOL
REMARK 924 INTRA-LIGAND FREE ENERGY PREDICTED BY IDOCK:   -1.06 KCAL/MOL
REMARK 927      BINDING AFFINITY PREDICTED BY RF-SCORE:    0.00 PKD
ROOT
HETATM    1  C   UNL     1     -11.261  12.727  64.017  1.00  0.00    -0.463 C  
HETATM    2  C   UNL     1     -10.067  12.942  64.943  1.00  0.00    -0.229 C  
ENDROOT
BRANCH   2   3
HETATM    3  C   UNL     1     -10.573  13.035  66.372  1.00  0.00    -0.294 C  
BRANCH   3   4
HETATM    4  C   UNL     1      -9.805  13.965  67.315  1.00  0.00    -0.244 C  
BRANCH   4   5
HETATM    5  S   UNL     1     -11.074  14.880  68.217  1.00  0.00    -0.295 S  
HETATM    6  O   UNL     1     -10.647  16.254  68.347  1.00  0.00    -0.271 OA 
HETATM    7  O   UNL     1     -12.341  14.528  67.622  1.00  0.00    -0.218 OA 
BRANCH   5   8
HETATM    8  N   UNL     1     -11.063  14.265  69.803  1.00  0.00    -0.426 N  
HETATM    9  H   UNL     1     -10.220  14.034  70.330  1.00  0.00     0.000 HD 
BRANCH   8  10
HETATM   10  C   UNL     1     -12.506  14.104  70.338  1.00  0.00    -0.357 C  
HETATM   11  C   UNL     1     -12.927  15.392  71.047  1.00  0.00    -0.492 C  
HETATM   12  O   UNL     1     -14.085  15.757  71.188  1.00  0.00    -0.472 OA 
HETATM   13  O   UNL     1     -11.872  16.106  71.514  1.00  0.00    -0.456 OA 
BRANCH  10  14
HETATM   14  C   UNL     1     -12.733  12.902  71.273  1.00  0.00    -0.371 C  
BRANCH  14  15
HETATM   15  C   UNL     1     -12.286  11.580  70.703  1.00  0.00    -0.457 A  
HETATM   16  C   UNL     1     -12.195  10.489  71.574  1.00  0.00    -0.385 A  
HETATM   17  C   UNL     1     -11.564   9.317  71.166  1.00  0.00    -0.397 A  
HETATM   18  C   UNL     1     -11.002   9.221  69.891  1.00  0.00    -0.213 A  
HETATM   19  C   UNL     1     -11.878  11.414  69.372  1.00  0.00    -0.419 A  
HETATM   20  C   UNL     1     -11.219  10.247  68.973  1.00  0.00    -0.260 A  
BRANCH  18  21
HETATM   21  O   UNL     1     -10.207   8.186  69.464  1.00  0.00    -0.202 OA 
BRANCH  21  22
HETATM   22  C   UNL     1      -9.309   8.547  68.413  1.00  0.00    -0.134 C  
BRANCH  22  23
HETATM   23  C   UNL     1      -8.720   7.318  67.743  1.00  0.00    -0.126 C  
BRANCH  23  24
HETATM   24  C   UNL     1      -9.746   6.211  67.462  1.00  0.00    -0.126 C  
BRANCH  24  25
HETATM   25  C   UNL     1      -9.186   5.288  66.377  1.00  0.00    -0.145 C  
BRANCH  25  26
HETATM   26  C   UNL     1      -8.036   4.354  66.799  1.00  0.00    -0.102 C  
HETATM   27  C   UNL     1      -8.462   3.560  68.049  1.00  0.00    -0.109 C  
HETATM   28  C   UNL     1      -9.395   2.399  67.707  1.00  0.00    -0.168 C  
HETATM   29  N   UNL     1      -8.736   1.482  66.782  1.00  0.00    -0.106 NA 
HETATM   30  H   UNL     1      -9.290   0.638  66.633  1.00  0.00     0.000 HD 
HETATM   31  C   UNL     1      -8.415   2.147  65.520  1.00  0.00    -0.098 C  
HETATM   32  C   UNL     1      -7.536   3.384  65.716  1.00  0.00    -0.077 C  
ENDBRANCH  25  26
ENDBRANCH  24  25
ENDBRANCH  23  24
ENDBRANCH  22  23
ENDBRANCH  21  22
ENDBRANCH  18  21
ENDBRANCH  14  15
ENDBRANCH  10  14
ENDBRANCH   8  10
ENDBRANCH   5   8
ENDBRANCH   4   5
ENDBRANCH   3   4
ENDBRANCH   2   3
TORSDOF 13
ENDMDL
MODEL      197
REMARK 921   NORMALIZED FREE ENERGY PREDICTED BY IDOCK:   -3.76 KCAL/MOL
REMARK 922        TOTAL FREE ENERGY PREDICTED BY IDOCK:   -9.16 KCAL/MOL
REMARK 923 INTER-LIGAND FREE ENERGY PREDICTED BY IDOCK:   -7.73 KCAL/MOL
REMARK 924 INTRA-LIGAND FREE ENERGY PREDICTED BY IDOCK:   -1.44 KCAL/MOL
REMARK 927      BINDING AFFINITY PREDICTED BY RF-SCORE:    0.00 PKD
ROOT
HETATM    1  C   UNL     1     -10.198   9.497  70.363  1.00  0.00    -0.337 C  
HETATM    2  C   UNL     1      -9.709  10.168  69.082  1.00  0.00    -0.225 C  
ENDROOT
BRANCH   2   3
HETATM    3  C   UNL     1      -8.192  10.239  69.122  1.00  0.00    -0.152 C  
BRANCH   3   4
HETATM    4  C   UNL     1      -7.440   9.548  67.981  1.00  0.00    -0.083 C  
BRANCH   4   5
HETATM    5  S   UNL     1      -6.787  10.889  66.962  1.00  0.00    -0.108 S  
HETATM    6  O   UNL     1      -7.369  12.133  67.411  1.00  0.00    -0.130 OA 
HETATM    7  O   UNL     1      -5.359  10.697  66.888  1.00  0.00    -0.041 OA 
BRANCH   5   8
HETATM    8  N   UNL     1      -7.420  10.648  65.401  1.00  0.00    -0.316 N  
HETATM    9  H   UNL     1      -7.336  11.313  64.632  1.00  0.00     0.000 HD 
BRANCH   8  10
HETATM   10  C   UNL     1      -8.139   9.281  65.307  1.00  0.00    -0.121 C  
HETATM   11  C   UNL     1      -7.623   8.523  64.083  1.00  0.00    -0.123 C  
HETATM   12  O   UNL     1      -7.642   7.307  63.965  1.00  0.00    -0.096 OA 
HETATM   13  O   UNL     1      -7.130   9.346  63.123  1.00  0.00    -0.096 OA 
BRANCH  10  14
HETATM   14  C   UNL     1      -9.677   9.347  65.262  1.00  0.00    -0.184 C  
BRANCH  14  15
HETATM   15  C   UNL     1     -10.235  10.743  65.151  1.00  0.00    -0.365 A  
HETATM   16  C   UNL     1     -10.107  11.404  63.925  1.00  0.00    -0.393 A  
HETATM   17  C   UNL     1     -10.380  12.766  63.831  1.00  0.00    -0.352 A  
HETATM   18  C   UNL     1     -10.768  13.492  64.959  1.00  0.00    -0.357 A  
HETATM   19  C   UNL     1     -10.793  11.438  66.235  1.00  0.00    -0.318 A  
HETATM   20  C   UNL     1     -11.038  12.811  66.145  1.00  0.00    -0.322 A  
BRANCH  18  21
HETATM   21  O   UNL     1     -10.881  14.859  65.007  1.00  0.00    -0.371 OA 
BRANCH  21  22
HETATM   22  C   UNL     1      -9.770  15.505  65.632  1.00  0.00    -0.320 C  
BRANCH  22  23
HETATM   23  C   UNL     1     -10.225  16.436  66.742  1.00  0.00    -0.285 C  
BRANCH  23  24
HETATM   24  C   UNL     1      -9.227  16.555  67.902  1.00  0.00    -0.211 C  
BRANCH  24  25
HETATM   25  C   UNL     1      -8.071  17.458  67.462  1.00  0.00    -0.205 C  
BRANCH  25  26
HETATM   26  C   UNL     1      -7.979  18.834  68.147  1.00  0.00    -0.317 C  
HETATM   27  C   UNL     1      -7.415  19.862  67.145  1.00  0.00    -0.292 C  
HETATM   28  C   UNL     1      -8.470  20.333  66.145  1.00  0.00    -0.086 C  
HETATM   29  N   UNL     1      -9.591  20.946  66.850  1.00  0.00    -0.669 NA 
HETATM   30  H   UNL     1     -10.252  21.376  66.202  1.00  0.00     0.000 HD 
HETATM   31  C   UNL     1     -10.250  19.982  67.730  1.00  0.00    -0.409 C  
HETATM   32  C   UNL     1      -9.289  19.366  68.750  1.00  0.00    -0.444 C  
ENDBRANCH  25  26
ENDBRANCH  24  25
ENDBRANCH  23  24
ENDBRANCH  22  23
ENDBRANCH  21  22
ENDBRANCH  18  21
ENDBRANCH  14  15
ENDBRANCH  10  14
ENDBRANCH   8  10
ENDBRANCH   5   8
ENDBRANCH   4   5
ENDBRANCH   3   4
ENDBRANCH   2   3
TORSDOF 13
ENDMDL
MODEL      198
REMARK 921   NORMALIZED FREE ENERGY PREDICTED BY IDOCK:   -3.75 KCAL/MOL
REMARK 922        TOTAL FREE ENERGY PREDICTED BY IDOCK:   -9.15 KCAL/MOL
REMARK 923 INTER-LIGAND FREE ENERGY PREDICTED BY IDOCK:   -8.66 KCAL/MOL
REMARK 924 INTRA-LIGAND FREE ENERGY PREDICTED BY IDOCK:   -0.50 KCAL/MOL
REMARK 927      BINDING AFFINITY PREDICTED BY RF-SCORE:    0.00 PKD
ROOT
HETATM    1  C   UNL     1     -12.391  13.444  70.686  1.00  0.00    -0.423 C  
HETATM    2  C   UNL     1     -12.966  14.852  70.817  1.00  0.00    -0.418 C  
ENDROOT
BRANCH   2   3
HETATM    3  C   UNL     1     -11.872  15.854  70.491  1.00  0.00    -0.374 C  
BRANCH   3   4
HETATM    4  C   UNL     1     -10.619  15.305  69.802  1.00  0.00    -0.282 C  
BRANCH   4   5
HETATM    5  S   UNL     1     -10.665  15.980  68.127  1.00  0.00    -0.323 S  
HETATM    6  O   UNL     1     -11.316  17.269  68.168  1.00  0.00    -0.073 OA 
HETATM    7  O   UNL     1      -9.343  15.810  67.575  1.00  0.00    -0.207 OA 
BRANCH   5   8
HETATM    8  N   UNL     1     -11.722  14.982  67.244  1.00  0.00    -0.289 N  
HETATM    9  H   UNL     1     -12.546  14.522  67.633  1.00  0.00     0.000 HD 
BRANCH   8  10
HETATM   10  C   UNL     1     -11.264  14.867  65.771  1.00  0.00    -0.334 C  
HETATM   11  C   UNL     1     -12.469  14.524  64.894  1.00  0.00    -0.311 C  
HETATM   12  O   UNL     1     -12.552  14.784  63.703  1.00  0.00    -0.749 OA 
HETATM   13  O   UNL     1     -13.457  13.894  65.577  1.00  0.00    -0.657 OA 
BRANCH  10  14
HETATM   14  C   UNL     1     -10.132  13.855  65.509  1.00  0.00    -0.319 C  
BRANCH  14  15
HETATM   15  C   UNL     1     -10.462  12.439  65.907  1.00  0.00    -0.284 A  
HETATM   16  C   UNL     1     -10.855  12.205  67.229  1.00  0.00    -0.286 A  
HETATM   17  C   UNL     1     -10.937  10.903  67.716  1.00  0.00    -0.339 A  
HETATM   18  C   UNL     1     -10.613   9.818  66.899  1.00  0.00    -0.173 A  
HETATM   19  C   UNL     1     -10.311  11.342  65.046  1.00  0.00    -0.342 A  
HETATM   20  C   UNL     1     -10.365  10.038  65.544  1.00  0.00    -0.146 A  
BRANCH  18  21
HETATM   21  O   UNL     1     -10.487   8.522  67.334  1.00  0.00    -0.262 OA 
BRANCH  21  22
HETATM   22  C   UNL     1      -9.467   8.345  68.319  1.00  0.00    -0.138 C  
BRANCH  22  23
HETATM   23  C   UNL     1     -10.064   8.086  69.692  1.00  0.00    -0.198 C  
BRANCH  23  24
HETATM   24  C   UNL     1     -10.952   6.835  69.758  1.00  0.00    -0.345 C  
BRANCH  24  25
HETATM   25  C   UNL     1     -11.088   6.409  71.223  1.00  0.00    -0.334 C  
BRANCH  25  26
HETATM   26  C   UNL     1     -10.340   5.128  71.635  1.00  0.00    -0.274 C  
HETATM   27  C   UNL     1      -8.881   5.483  71.985  1.00  0.00    -0.137 C  
HETATM   28  C   UNL     1      -8.756   6.107  73.375  1.00  0.00    -0.125 C  
HETATM   29  N   UNL     1      -9.259   5.184  74.387  1.00  0.00    -0.114 NA 
HETATM   30  H   UNL     1      -9.077   5.526  75.331  1.00  0.00     0.000 HD 
HETATM   31  C   UNL     1     -10.679   4.901  74.181  1.00  0.00    -0.261 C  
HETATM   32  C   UNL     1     -10.969   4.332  72.791  1.00  0.00    -0.138 C  
ENDBRANCH  25  26
ENDBRANCH  24  25
ENDBRANCH  23  24
ENDBRANCH  22  23
ENDBRANCH  21  22
ENDBRANCH  18  21
ENDBRANCH  14  15
ENDBRANCH  10  14
ENDBRANCH   8  10
ENDBRANCH   5   8
ENDBRANCH   4   5
ENDBRANCH   3   4
ENDBRANCH   2   3
TORSDOF 13
ENDMDL
MODEL      199
REMARK 921   NORMALIZED FREE ENERGY PREDICTED BY IDOCK:   -3.72 KCAL/MOL
REMARK 922        TOTAL FREE ENERGY PREDICTED BY IDOCK:   -9.10 KCAL/MOL
REMARK 923 INTER-LIGAND FREE ENERGY PREDICTED BY IDOCK:   -7.57 KCAL/MOL
REMARK 924 INTRA-LIGAND FREE ENERGY PREDICTED BY IDOCK:   -1.52 KCAL/MOL
REMARK 927      BINDING AFFINITY PREDICTED BY RF-SCORE:    0.00 PKD
ROOT
HETATM    1  C   UNL     1      -7.938   7.332  73.339  1.00  0.00    -0.127 C  
HETATM    2  C   UNL     1      -9.222   7.199  74.155  1.00  0.00    -0.276 C  
ENDROOT
BRANCH   2   3
HETATM    3  C   UNL     1     -10.399   7.134  73.197  1.00  0.00    -0.336 C  
BRANCH   3   4
HETATM    4  C   UNL     1     -10.067   7.013  71.706  1.00  0.00    -0.184 C  
BRANCH   4   5
HETATM    5  S   UNL     1     -11.561   7.548  70.844  1.00  0.00    -0.274 S  
HETATM    6  O   UNL     1     -11.974   6.498  69.942  1.00  0.00    -0.319 OA 
HETATM    7  O   UNL     1     -12.449   8.087  71.846  1.00  0.00    -0.308 OA 
BRANCH   5   8
HETATM    8  N   UNL     1     -11.088   8.833  69.833  1.00  0.00    -0.401 N  
HETATM    9  H   UNL     1     -11.443   9.787  69.904  1.00  0.00     0.000 HD 
BRANCH   8  10
HETATM   10  C   UNL     1     -10.046   8.357  68.794  1.00  0.00    -0.196 C  
HETATM   11  C   UNL     1      -8.750   9.146  68.981  1.00  0.00    -0.135 C  
HETATM   12  O   UNL     1      -7.644   8.747  68.651  1.00  0.00    -0.093 OA 
HETATM   13  O   UNL     1      -8.949  10.356  69.562  1.00  0.00    -0.182 OA 
BRANCH  10  14
HETATM   14  C   UNL     1     -10.495   8.444  67.323  1.00  0.00    -0.373 C  
BRANCH  14  15
HETATM   15  C   UNL     1     -10.335   9.810  66.706  1.00  0.00    -0.289 A  
HETATM   16  C   UNL     1     -11.205  10.823  67.124  1.00  0.00    -0.222 A  
HETATM   17  C   UNL     1     -11.267  12.025  66.425  1.00  0.00    -0.389 A  
HETATM   18  C   UNL     1     -10.477  12.230  65.292  1.00  0.00    -0.282 A  
HETATM   19  C   UNL     1      -9.421  10.089  65.679  1.00  0.00    -0.278 A  
HETATM   20  C   UNL     1      -9.506  11.286  64.962  1.00  0.00    -0.237 A  
BRANCH  18  21
HETATM   21  O   UNL     1     -10.598  13.298  64.439  1.00  0.00    -0.397 OA 
BRANCH  21  22
HETATM   22  C   UNL     1     -11.447  14.336  64.933  1.00  0.00    -0.378 C  
BRANCH  22  23
HETATM   23  C   UNL     1     -10.747  15.684  64.903  1.00  0.00    -0.406 C  
BRANCH  23  24
HETATM   24  C   UNL     1     -10.309  16.189  66.285  1.00  0.00    -0.337 C  
BRANCH  24  25
HETATM   25  C   UNL     1      -9.039  15.441  66.700  1.00  0.00    -0.310 C  
BRANCH  25  26
HETATM   26  C   UNL     1      -8.926  15.059  68.187  1.00  0.00    -0.173 C  
HETATM   27  C   UNL     1      -8.861  13.524  68.313  1.00  0.00    -0.179 C  
HETATM   28  C   UNL     1      -7.475  12.975  67.977  1.00  0.00    -0.134 C  
HETATM   29  N   UNL     1      -6.476  13.552  68.871  1.00  0.00    -0.096 NA 
HETATM   30  H   UNL     1      -5.563  13.112  68.748  1.00  0.00     0.000 HD 
HETATM   31  C   UNL     1      -6.402  15.003  68.710  1.00  0.00    -0.082 C  
HETATM   32  C   UNL     1      -7.748  15.690  68.949  1.00  0.00    -0.181 C  
ENDBRANCH  25  26
ENDBRANCH  24  25
ENDBRANCH  23  24
ENDBRANCH  22  23
ENDBRANCH  21  22
ENDBRANCH  18  21
ENDBRANCH  14  15
ENDBRANCH  10  14
ENDBRANCH   8  10
ENDBRANCH   5   8
ENDBRANCH   4   5
ENDBRANCH   3   4
ENDBRANCH   2   3
TORSDOF 13
ENDMDL
MODEL      200
REMARK 921   NORMALIZED FREE ENERGY PREDICTED BY IDOCK:   -3.70 KCAL/MOL
REMARK 922        TOTAL FREE ENERGY PREDICTED BY IDOCK:   -9.05 KCAL/MOL
REMARK 923 INTER-LIGAND FREE ENERGY PREDICTED BY IDOCK:   -8.55 KCAL/MOL
REMARK 924 INTRA-LIGAND FREE ENERGY PREDICTED BY IDOCK:   -0.50 KCAL/MOL
REMARK 927      BINDING AFFINITY PREDICTED BY RF-SCORE:    0.00 PKD
ROOT
HETATM    1  C   UNL     1     -13.474  13.031  72.048  1.00  0.00    -0.584 C  
HETATM    2  C   UNL     1     -12.716  14.014  71.159  1.00  0.00    -0.436 C  
ENDROOT
BRANCH   2   3
HETATM    3  C   UNL     1     -12.074  13.242  70.020  1.00  0.00    -0.385 C  
BRANCH   3   4
HETATM    4  C   UNL     1     -11.107  14.018  69.121  1.00  0.00    -0.259 C  
BRANCH   4   5
HETATM    5  S   UNL     1     -10.758  12.914  67.735  1.00  0.00    -0.230 S  
HETATM    6  O   UNL     1      -9.404  12.429  67.863  1.00  0.00    -0.182 OA 
HETATM    7  O   UNL     1     -11.884  12.018  67.625  1.00  0.00    -0.512 OA 
BRANCH   5   8
HETATM    8  N   UNL     1     -10.744  13.893  66.344  1.00  0.00    -0.280 N  
HETATM    9  H   UNL     1     -10.630  14.907  66.349  1.00  0.00     0.000 HD 
BRANCH   8  10
HETATM   10  C   UNL     1     -10.926  13.036  65.069  1.00  0.00    -0.298 C  
HETATM   11  C   UNL     1     -12.161  13.521  64.308  1.00  0.00    -0.431 C  
HETATM   12  O   UNL     1     -12.334  13.376  63.107  1.00  0.00    -0.668 OA 
HETATM   13  O   UNL     1     -13.064  14.142  65.109  1.00  0.00    -0.757 OA 
BRANCH  10  14
HETATM   14  C   UNL     1     -11.030  11.517  65.304  1.00  0.00    -0.291 C  
BRANCH  14  15
HETATM   15  C   UNL     1      -9.848  10.729  64.799  1.00  0.00    -0.358 A  
HETATM   16  C   UNL     1      -9.751  10.504  63.422  1.00  0.00    -0.368 A  
HETATM   17  C   UNL     1      -8.827   9.590  62.925  1.00  0.00    -0.242 A  
HETATM   18  C   UNL     1      -7.998   8.875  63.792  1.00  0.00    -0.154 A  
HETATM   19  C   UNL     1      -8.895  10.142  65.646  1.00  0.00    -0.185 A  
HETATM   20  C   UNL     1      -7.989   9.203  65.147  1.00  0.00    -0.117 A  
BRANCH  18  21
HETATM   21  O   UNL     1      -7.192   7.830  63.417  1.00  0.00    -0.077 OA 
BRANCH  21  22
HETATM   22  C   UNL     1      -7.858   6.565  63.406  1.00  0.00    -0.106 C  
BRANCH  22  23
HETATM   23  C   UNL     1      -7.716   5.854  64.741  1.00  0.00    -0.099 C  
BRANCH  23  24
HETATM   24  C   UNL     1      -9.037   5.306  65.297  1.00  0.00    -0.097 C  
BRANCH  24  25
HETATM   25  C   UNL     1      -8.841   4.964  66.777  1.00  0.00    -0.110 C  
BRANCH  25  26
HETATM   26  C   UNL     1      -8.863   6.149  67.761  1.00  0.00    -0.110 C  
HETATM   27  C   UNL     1     -10.047   7.072  67.417  1.00  0.00    -0.252 C  
HETATM   28  C   UNL     1     -11.379   6.517  67.920  1.00  0.00     0.012 C  
HETATM   29  N   UNL     1     -11.336   6.346  69.369  1.00  0.00    -0.553 NA 
HETATM   30  H   UNL     1     -12.250   6.092  69.745  1.00  0.00     0.000 HD 
HETATM   31  C   UNL     1     -10.307   5.381  69.755  1.00  0.00    -0.305 C  
HETATM   32  C   UNL     1      -8.916   5.774  69.252  1.00  0.00    -0.122 C  
ENDBRANCH  25  26
ENDBRANCH  24  25
ENDBRANCH  23  24
ENDBRANCH  22  23
ENDBRANCH  21  22
ENDBRANCH  18  21
ENDBRANCH  14  15
ENDBRANCH  10  14
ENDBRANCH   8  10
ENDBRANCH   5   8
ENDBRANCH   4   5
ENDBRANCH   3   4
ENDBRANCH   2   3
TORSDOF 13
ENDMDL
MODEL      201
REMARK 921   NORMALIZED FREE ENERGY PREDICTED BY IDOCK:   -3.70 KCAL/MOL
REMARK 922        TOTAL FREE ENERGY PREDICTED BY IDOCK:   -9.05 KCAL/MOL
REMARK 923 INTER-LIGAND FREE ENERGY PREDICTED BY IDOCK:   -8.02 KCAL/MOL
REMARK 924 INTRA-LIGAND FREE ENERGY PREDICTED BY IDOCK:   -1.03 KCAL/MOL
REMARK 927      BINDING AFFINITY PREDICTED BY RF-SCORE:    0.00 PKD
ROOT
HETATM    1  C   UNL     1     -11.735   6.637  71.538  1.00  0.00    -0.369 C  
HETATM    2  C   UNL     1     -11.400   6.404  70.067  1.00  0.00    -0.496 C  
ENDROOT
BRANCH   2   3
HETATM    3  C   UNL     1      -9.918   6.664  69.862  1.00  0.00    -0.188 C  
BRANCH   3   4
HETATM    4  C   UNL     1      -9.429   6.753  68.413  1.00  0.00    -0.126 C  
BRANCH   4   5
HETATM    5  S   UNL     1      -8.003   7.860  68.460  1.00  0.00    -0.123 S  
HETATM    6  O   UNL     1      -7.584   8.013  69.834  1.00  0.00    -0.083 OA 
HETATM    7  O   UNL     1      -7.096   7.414  67.431  1.00  0.00    -0.079 OA 
BRANCH   5   8
HETATM    8  N   UNL     1      -8.582   9.394  68.005  1.00  0.00    -0.120 N  
HETATM    9  H   UNL     1      -8.271  10.276  68.414  1.00  0.00     0.000 HD 
BRANCH   8  10
HETATM   10  C   UNL     1      -9.643   9.269  66.887  1.00  0.00    -0.174 C  
HETATM   11  C   UNL     1      -9.110   9.923  65.611  1.00  0.00    -0.178 C  
HETATM   12  O   UNL     1      -9.475   9.632  64.481  1.00  0.00    -0.253 OA 
HETATM   13  O   UNL     1      -8.175  10.874  65.857  1.00  0.00    -0.160 OA 
BRANCH  10  14
HETATM   14  C   UNL     1     -11.029   9.851  67.224  1.00  0.00    -0.187 C  
BRANCH  14  15
HETATM   15  C   UNL     1     -11.063  11.355  67.318  1.00  0.00    -0.363 A  
HETATM   16  C   UNL     1     -10.681  11.944  68.528  1.00  0.00    -0.254 A  
HETATM   17  C   UNL     1     -10.921  13.296  68.756  1.00  0.00    -0.294 A  
HETATM   18  C   UNL     1     -11.558  14.077  67.788  1.00  0.00    -0.345 A  
HETATM   19  C   UNL     1     -11.539  12.181  66.288  1.00  0.00    -0.424 A  
HETATM   20  C   UNL     1     -11.805  13.531  66.530  1.00  0.00    -0.441 A  
BRANCH  18  21
HETATM   21  O   UNL     1     -11.998  15.362  67.988  1.00  0.00    -0.227 OA 
BRANCH  21  22
HETATM   22  C   UNL     1     -11.756  15.854  69.307  1.00  0.00    -0.353 C  
BRANCH  22  23
HETATM   23  C   UNL     1     -10.638  16.883  69.317  1.00  0.00    -0.325 C  
BRANCH  23  24
HETATM   24  C   UNL     1     -10.446  17.604  67.976  1.00  0.00    -0.395 C  
BRANCH  24  25
HETATM   25  C   UNL     1      -8.971  17.991  67.835  1.00  0.00    -0.265 C  
BRANCH  25  26
HETATM   26  C   UNL     1      -8.589  19.412  68.289  1.00  0.00    -0.376 C  
HETATM   27  C   UNL     1      -7.262  19.355  69.069  1.00  0.00    -0.397 C  
HETATM   28  C   UNL     1      -6.052  19.233  68.144  1.00  0.00    -0.217 C  
HETATM   29  N   UNL     1      -6.000  20.371  67.232  1.00  0.00    -0.181 NA 
HETATM   30  H   UNL     1      -5.138  20.376  66.686  1.00  0.00     0.000 HD 
HETATM   31  C   UNL     1      -7.183  20.410  66.372  1.00  0.00    -0.236 C  
HETATM   32  C   UNL     1      -8.487  20.463  67.171  1.00  0.00    -0.393 C  
ENDBRANCH  25  26
ENDBRANCH  24  25
ENDBRANCH  23  24
ENDBRANCH  22  23
ENDBRANCH  21  22
ENDBRANCH  18  21
ENDBRANCH  14  15
ENDBRANCH  10  14
ENDBRANCH   8  10
ENDBRANCH   5   8
ENDBRANCH   4   5
ENDBRANCH   3   4
ENDBRANCH   2   3
TORSDOF 13
ENDMDL
MODEL      202
REMARK 921   NORMALIZED FREE ENERGY PREDICTED BY IDOCK:   -3.69 KCAL/MOL
REMARK 922        TOTAL FREE ENERGY PREDICTED BY IDOCK:   -9.04 KCAL/MOL
REMARK 923 INTER-LIGAND FREE ENERGY PREDICTED BY IDOCK:   -7.85 KCAL/MOL
REMARK 924 INTRA-LIGAND FREE ENERGY PREDICTED BY IDOCK:   -1.19 KCAL/MOL
REMARK 927      BINDING AFFINITY PREDICTED BY RF-SCORE:    0.00 PKD
ROOT
HETATM    1  C   UNL     1     -12.100  12.882  63.528  1.00  0.00    -0.633 C  
HETATM    2  C   UNL     1     -10.670  13.006  64.050  1.00  0.00    -0.387 C  
ENDROOT
BRANCH   2   3
HETATM    3  C   UNL     1     -10.670  12.697  65.537  1.00  0.00    -0.303 C  
BRANCH   3   4
HETATM    4  C   UNL     1      -9.665  13.467  66.399  1.00  0.00    -0.277 C  
BRANCH   4   5
HETATM    5  S   UNL     1     -10.669  14.480  67.507  1.00  0.00    -0.281 S  
HETATM    6  O   UNL     1     -10.017  15.757  67.681  1.00  0.00    -0.235 OA 
HETATM    7  O   UNL     1     -12.031  14.374  67.045  1.00  0.00    -0.409 OA 
BRANCH   5   8
HETATM    8  N   UNL     1     -10.586  13.734  69.034  1.00  0.00    -0.379 N  
HETATM    9  H   UNL     1      -9.720  13.451  69.495  1.00  0.00     0.000 HD 
BRANCH   8  10
HETATM   10  C   UNL     1     -12.002  13.541  69.627  1.00  0.00    -0.337 C  
HETATM   11  C   UNL     1     -12.318  14.708  70.564  1.00  0.00    -0.337 C  
HETATM   12  O   UNL     1     -13.446  15.089  70.838  1.00  0.00    -0.394 OA 
HETATM   13  O   UNL     1     -11.204  15.292  71.073  1.00  0.00    -0.330 OA 
BRANCH  10  14
HETATM   14  C   UNL     1     -12.233  12.210  70.365  1.00  0.00    -0.378 C  
BRANCH  14  15
HETATM   15  C   UNL     1     -11.411  11.059  69.840  1.00  0.00    -0.400 A  
HETATM   16  C   UNL     1     -11.456  10.796  68.467  1.00  0.00    -0.362 A  
HETATM   17  C   UNL     1     -10.919   9.614  67.963  1.00  0.00    -0.197 A  
HETATM   18  C   UNL     1     -10.346   8.672  68.820  1.00  0.00    -0.208 A  
HETATM   19  C   UNL     1     -10.680  10.195  70.668  1.00  0.00    -0.243 A  
HETATM   20  C   UNL     1     -10.168   8.996  70.164  1.00  0.00    -0.224 A  
BRANCH  18  21
HETATM   21  O   UNL     1      -9.959   7.409  68.446  1.00  0.00    -0.155 OA 
BRANCH  21  22
HETATM   22  C   UNL     1     -11.022   6.617  67.914  1.00  0.00    -0.257 C  
BRANCH  22  23
HETATM   23  C   UNL     1     -10.608   5.932  66.623  1.00  0.00    -0.330 C  
BRANCH  23  24
HETATM   24  C   UNL     1      -9.117   5.577  66.558  1.00  0.00    -0.138 C  
BRANCH  24  25
HETATM   25  C   UNL     1      -8.785   5.117  65.135  1.00  0.00    -0.151 C  
BRANCH  25  26
HETATM   26  C   UNL     1      -9.259   3.705  64.744  1.00  0.00    -0.145 C  
HETATM   27  C   UNL     1      -9.099   3.521  63.222  1.00  0.00    -0.096 C  
HETATM   28  C   UNL     1      -7.651   3.240  62.822  1.00  0.00    -0.054 C  
HETATM   29  N   UNL     1      -7.173   2.030  63.484  1.00  0.00    -0.043 NA 
HETATM   30  H   UNL     1      -6.252   1.754  63.142  1.00  0.00     0.000 HD 
HETATM   31  C   UNL     1      -7.183   2.187  64.938  1.00  0.00    -0.054 C  
HETATM   32  C   UNL     1      -8.569   2.545  65.480  1.00  0.00    -0.113 C  
ENDBRANCH  25  26
ENDBRANCH  24  25
ENDBRANCH  23  24
ENDBRANCH  22  23
ENDBRANCH  21  22
ENDBRANCH  18  21
ENDBRANCH  14  15
ENDBRANCH  10  14
ENDBRANCH   8  10
ENDBRANCH   5   8
ENDBRANCH   4   5
ENDBRANCH   3   4
ENDBRANCH   2   3
TORSDOF 13
ENDMDL
MODEL      203
REMARK 921   NORMALIZED FREE ENERGY PREDICTED BY IDOCK:   -3.65 KCAL/MOL
REMARK 922        TOTAL FREE ENERGY PREDICTED BY IDOCK:   -8.97 KCAL/MOL
REMARK 923 INTER-LIGAND FREE ENERGY PREDICTED BY IDOCK:   -8.93 KCAL/MOL
REMARK 924 INTRA-LIGAND FREE ENERGY PREDICTED BY IDOCK:   -0.04 KCAL/MOL
REMARK 927      BINDING AFFINITY PREDICTED BY RF-SCORE:    0.00 PKD
ROOT
HETATM    1  C   UNL     1     -12.376  13.249  70.713  1.00  0.00    -0.425 C  
HETATM    2  C   UNL     1     -12.283  14.299  69.608  1.00  0.00    -0.371 C  
ENDROOT
BRANCH   2   3
HETATM    3  C   UNL     1     -11.794  13.624  68.339  1.00  0.00    -0.407 C  
BRANCH   3   4
HETATM    4  C   UNL     1     -11.789  14.474  67.065  1.00  0.00    -0.385 C  
BRANCH   4   5
HETATM    5  S   UNL     1     -11.780  13.289  65.702  1.00  0.00    -0.376 S  
HETATM    6  O   UNL     1     -12.222  12.008  66.203  1.00  0.00    -0.552 OA 
HETATM    7  O   UNL     1     -12.424  13.936  64.585  1.00  0.00    -0.560 OA 
BRANCH   5   8
HETATM    8  N   UNL     1     -10.146  13.058  65.289  1.00  0.00    -0.415 N  
HETATM    9  H   UNL     1      -9.524  13.792  64.948  1.00  0.00     0.000 HD 
BRANCH   8  10
HETATM   10  C   UNL     1      -9.731  11.582  65.501  1.00  0.00    -0.230 C  
HETATM   11  C   UNL     1      -9.886  10.821  64.184  1.00  0.00    -0.326 C  
HETATM   12  O   UNL     1      -9.264   9.811  63.891  1.00  0.00    -0.256 OA 
HETATM   13  O   UNL     1     -10.798  11.386  63.352  1.00  0.00    -0.385 OA 
BRANCH  10  14
HETATM   14  C   UNL     1     -10.486  10.838  66.618  1.00  0.00    -0.302 C  
BRANCH  14  15
HETATM   15  C   UNL     1      -9.706  10.686  67.899  1.00  0.00    -0.177 A  
HETATM   16  C   UNL     1      -8.380  11.132  67.915  1.00  0.00    -0.129 A  
HETATM   17  C   UNL     1      -7.542  10.801  68.976  1.00  0.00    -0.126 A  
HETATM   18  C   UNL     1      -8.008  10.009  70.028  1.00  0.00    -0.150 A  
HETATM   19  C   UNL     1     -10.214  10.044  69.038  1.00  0.00    -0.216 A  
HETATM   20  C   UNL     1      -9.363   9.689  70.089  1.00  0.00    -0.294 A  
BRANCH  18  21
HETATM   21  O   UNL     1      -7.217   9.483  71.019  1.00  0.00    -0.269 OA 
BRANCH  21  22
HETATM   22  C   UNL     1      -6.361   8.429  70.571  1.00  0.00    -0.035 C  
BRANCH  22  23
HETATM   23  C   UNL     1      -6.546   7.175  71.408  1.00  0.00    -0.051 C  
BRANCH  23  24
HETATM   24  C   UNL     1      -7.684   6.266  70.924  1.00  0.00    -0.098 C  
BRANCH  24  25
HETATM   25  C   UNL     1      -8.862   6.398  71.893  1.00  0.00    -0.138 C  
BRANCH  25  26
HETATM   26  C   UNL     1     -10.084   5.504  71.611  1.00  0.00    -0.249 C  
HETATM   27  C   UNL     1     -11.335   6.139  72.250  1.00  0.00    -0.346 C  
HETATM   28  C   UNL     1     -11.883   7.298  71.418  1.00  0.00    -0.305 C  
HETATM   29  N   UNL     1     -12.235   6.834  70.080  1.00  0.00    -0.605 NA 
HETATM   30  H   UNL     1     -12.714   7.559  69.546  1.00  0.00     0.000 HD 
HETATM   31  C   UNL     1     -11.059   6.330  69.372  1.00  0.00    -0.410 C  
HETATM   32  C   UNL     1     -10.358   5.200  70.129  1.00  0.00    -0.340 C  
ENDBRANCH  25  26
ENDBRANCH  24  25
ENDBRANCH  23  24
ENDBRANCH  22  23
ENDBRANCH  21  22
ENDBRANCH  18  21
ENDBRANCH  14  15
ENDBRANCH  10  14
ENDBRANCH   8  10
ENDBRANCH   5   8
ENDBRANCH   4   5
ENDBRANCH   3   4
ENDBRANCH   2   3
TORSDOF 13
ENDMDL
MODEL      204
REMARK 921   NORMALIZED FREE ENERGY PREDICTED BY IDOCK:   -3.64 KCAL/MOL
REMARK 922        TOTAL FREE ENERGY PREDICTED BY IDOCK:   -8.95 KCAL/MOL
REMARK 923 INTER-LIGAND FREE ENERGY PREDICTED BY IDOCK:   -8.60 KCAL/MOL
REMARK 924 INTRA-LIGAND FREE ENERGY PREDICTED BY IDOCK:   -0.34 KCAL/MOL
REMARK 927      BINDING AFFINITY PREDICTED BY RF-SCORE:    0.00 PKD
ROOT
HETATM    1  C   UNL     1     -12.144  12.093  63.229  1.00  0.00    -0.512 C  
HETATM    2  C   UNL     1     -11.154  11.345  64.118  1.00  0.00    -0.382 C  
ENDROOT
BRANCH   2   3
HETATM    3  C   UNL     1     -10.468  12.348  65.030  1.00  0.00    -0.324 C  
BRANCH   3   4
HETATM    4  C   UNL     1     -10.054  13.680  64.399  1.00  0.00     0.078 C  
BRANCH   4   5
HETATM    5  S   UNL     1     -10.798  14.951  65.444  1.00  0.00    -0.396 S  
HETATM    6  O   UNL     1     -10.500  16.246  64.878  1.00  0.00    -0.624 OA 
HETATM    7  O   UNL     1     -12.152  14.529  65.711  1.00  0.00    -0.350 OA 
BRANCH   5   8
HETATM    8  N   UNL     1      -9.948  14.910  66.917  1.00  0.00    -0.239 N  
HETATM    9  H   UNL     1      -9.072  14.408  67.067  1.00  0.00     0.000 HD 
BRANCH   8  10
HETATM   10  C   UNL     1     -10.684  15.736  67.998  1.00  0.00    -0.296 C  
HETATM   11  C   UNL     1      -9.824  15.794  69.261  1.00  0.00    -0.265 C  
HETATM   12  O   UNL     1      -9.888  16.679  70.101  1.00  0.00     0.411 OA 
HETATM   13  O   UNL     1      -8.964  14.749  69.361  1.00  0.00    -0.091 OA 
BRANCH  10  14
HETATM   14  C   UNL     1     -12.097  15.241  68.359  1.00  0.00    -0.068 C  
BRANCH  14  15
HETATM   15  C   UNL     1     -12.131  14.217  69.464  1.00  0.00    -0.388 A  
HETATM   16  C   UNL     1     -11.742  12.908  69.157  1.00  0.00    -0.376 A  
HETATM   17  C   UNL     1     -11.981  11.876  70.060  1.00  0.00    -0.409 A  
HETATM   18  C   UNL     1     -12.623  12.129  71.274  1.00  0.00    -0.238 A  
HETATM   19  C   UNL     1     -12.613  14.490  70.753  1.00  0.00    -0.418 A  
HETATM   20  C   UNL     1     -12.878  13.449  71.646  1.00  0.00    -0.414 A  
BRANCH  18  21
HETATM   21  O   UNL     1     -13.063  11.161  72.142  1.00  0.00    -0.463 OA 
BRANCH  21  22
HETATM   22  C   UNL     1     -12.729   9.832  71.736  1.00  0.00    -0.426 C  
BRANCH  22  23
HETATM   23  C   UNL     1     -13.970   8.966  71.604  1.00  0.00    -0.417 C  
BRANCH  23  24
HETATM   24  C   UNL     1     -13.687   7.459  71.664  1.00  0.00    -0.468 C  
BRANCH  24  25
HETATM   25  C   UNL     1     -12.247   7.250  72.144  1.00  0.00    -0.260 C  
BRANCH  25  26
HETATM   26  C   UNL     1     -11.500   6.039  71.557  1.00  0.00    -0.280 C  
HETATM   27  C   UNL     1     -10.642   6.502  70.363  1.00  0.00    -0.282 C  
HETATM   28  C   UNL     1      -9.354   7.191  70.809  1.00  0.00    -0.160 C  
HETATM   29  N   UNL     1      -8.554   6.281  71.623  1.00  0.00    -0.133 NA 
HETATM   30  H   UNL     1      -7.635   6.674  71.832  1.00  0.00     0.000 HD 
HETATM   31  C   UNL     1      -9.267   5.899  72.840  1.00  0.00    -0.138 C  
HETATM   32  C   UNL     1     -10.624   5.254  72.547  1.00  0.00    -0.276 C  
ENDBRANCH  25  26
ENDBRANCH  24  25
ENDBRANCH  23  24
ENDBRANCH  22  23
ENDBRANCH  21  22
ENDBRANCH  18  21
ENDBRANCH  14  15
ENDBRANCH  10  14
ENDBRANCH   8  10
ENDBRANCH   5   8
ENDBRANCH   4   5
ENDBRANCH   3   4
ENDBRANCH   2   3
TORSDOF 13
ENDMDL
MODEL      205
REMARK 921   NORMALIZED FREE ENERGY PREDICTED BY IDOCK:   -3.63 KCAL/MOL
REMARK 922        TOTAL FREE ENERGY PREDICTED BY IDOCK:   -8.94 KCAL/MOL
REMARK 923 INTER-LIGAND FREE ENERGY PREDICTED BY IDOCK:   -6.90 KCAL/MOL
REMARK 924 INTRA-LIGAND FREE ENERGY PREDICTED BY IDOCK:   -2.04 KCAL/MOL
REMARK 927      BINDING AFFINITY PREDICTED BY RF-SCORE:    0.00 PKD
ROOT
HETATM    1  C   UNL     1     -10.413  19.582  67.397  1.00  0.00    -0.593 C  
HETATM    2  C   UNL     1      -9.210  19.337  66.490  1.00  0.00    -0.388 C  
ENDROOT
BRANCH   2   3
HETATM    3  C   UNL     1      -8.968  17.840  66.402  1.00  0.00    -0.252 C  
BRANCH   3   4
HETATM    4  C   UNL     1      -9.690  16.964  67.431  1.00  0.00    -0.247 C  
BRANCH   4   5
HETATM    5  S   UNL     1      -8.392  16.353  68.528  1.00  0.00    -0.212 S  
HETATM    6  O   UNL     1      -7.545  17.462  68.901  1.00  0.00    -0.258 OA 
HETATM    7  O   UNL     1      -9.040  15.521  69.514  1.00  0.00    -0.273 OA 
BRANCH   5   8
HETATM    8  N   UNL     1      -7.403  15.347  67.577  1.00  0.00    -0.177 N  
HETATM    9  H   UNL     1      -6.683  15.680  66.935  1.00  0.00     0.000 HD 
BRANCH   8  10
HETATM   10  C   UNL     1      -7.746  13.858  67.817  1.00  0.00    -0.172 C  
HETATM   11  C   UNL     1      -6.450  13.061  67.972  1.00  0.00    -0.120 C  
HETATM   12  O   UNL     1      -6.355  12.005  68.579  1.00  0.00    -0.051 OA 
HETATM   13  O   UNL     1      -5.392  13.651  67.359  1.00  0.00    -0.344 OA 
BRANCH  10  14
HETATM   14  C   UNL     1      -8.629  13.201  66.740  1.00  0.00    -0.049 C  
BRANCH  14  15
HETATM   15  C   UNL     1      -9.823  12.460  67.284  1.00  0.00    -0.207 A  
HETATM   16  C   UNL     1     -11.019  13.169  67.439  1.00  0.00    -0.283 A  
HETATM   17  C   UNL     1     -12.076  12.612  68.155  1.00  0.00    -0.128 A  
HETATM   18  C   UNL     1     -11.951  11.350  68.740  1.00  0.00    -0.287 A  
HETATM   19  C   UNL     1      -9.769  11.127  67.721  1.00  0.00    -0.183 A  
HETATM   20  C   UNL     1     -10.820  10.583  68.464  1.00  0.00    -0.275 A  
BRANCH  18  21
HETATM   21  O   UNL     1     -12.858  10.799  69.609  1.00  0.00    -0.193 OA 
BRANCH  21  22
HETATM   22  C   UNL     1     -12.272  10.308  70.817  1.00  0.00    -0.350 C  
BRANCH  22  23
HETATM   23  C   UNL     1     -12.976  10.868  72.040  1.00  0.00    -0.418 C  
BRANCH  23  24
HETATM   24  C   UNL     1     -14.029  11.937  71.717  1.00  0.00     0.784 C  
BRANCH  24  25
HETATM   25  C   UNL     1     -13.680  13.215  72.485  1.00  0.00    -0.563 C  
BRANCH  25  26
HETATM   26  C   UNL     1     -12.215  13.684  72.403  1.00  0.00     0.481 C  
HETATM   27  C   UNL     1     -11.914  14.157  70.968  1.00  0.00    -0.351 C  
HETATM   28  C   UNL     1     -12.467  15.554  70.691  1.00  0.00    -0.435 C  
HETATM   29  N   UNL     1     -11.889  16.517  71.622  1.00  0.00    -0.641 NA 
HETATM   30  H   UNL     1     -12.148  17.474  71.382  1.00  0.00     0.000 HD 
HETATM   31  C   UNL     1     -12.244  16.192  73.003  1.00  0.00    -0.541 C  
HETATM   32  C   UNL     1     -11.811  14.780  73.404  1.00  0.00    -0.173 C  
ENDBRANCH  25  26
ENDBRANCH  24  25
ENDBRANCH  23  24
ENDBRANCH  22  23
ENDBRANCH  21  22
ENDBRANCH  18  21
ENDBRANCH  14  15
ENDBRANCH  10  14
ENDBRANCH   8  10
ENDBRANCH   5   8
ENDBRANCH   4   5
ENDBRANCH   3   4
ENDBRANCH   2   3
TORSDOF 13
ENDMDL
MODEL      206
REMARK 921   NORMALIZED FREE ENERGY PREDICTED BY IDOCK:   -3.58 KCAL/MOL
REMARK 922        TOTAL FREE ENERGY PREDICTED BY IDOCK:   -8.85 KCAL/MOL
REMARK 923 INTER-LIGAND FREE ENERGY PREDICTED BY IDOCK:   -7.35 KCAL/MOL
REMARK 924 INTRA-LIGAND FREE ENERGY PREDICTED BY IDOCK:   -1.50 KCAL/MOL
REMARK 927      BINDING AFFINITY PREDICTED BY RF-SCORE:    0.00 PKD
ROOT
HETATM    1  C   UNL     1     -11.614   4.743  73.232  1.00  0.00    -0.286 C  
HETATM    2  C   UNL     1     -10.167   4.264  73.157  1.00  0.00    -0.219 C  
ENDROOT
BRANCH   2   3
HETATM    3  C   UNL     1      -9.839   3.938  71.710  1.00  0.00    -0.249 C  
BRANCH   3   4
HETATM    4  C   UNL     1      -8.737   4.771  71.049  1.00  0.00    -0.116 C  
BRANCH   4   5
HETATM    5  S   UNL     1      -9.591   5.835  69.866  1.00  0.00    -0.165 S  
HETATM    6  O   UNL     1     -10.174   5.006  68.837  1.00  0.00    -0.178 OA 
HETATM    7  O   UNL     1     -10.382   6.763  70.639  1.00  0.00    -0.198 OA 
BRANCH   5   8
HETATM    8  N   UNL     1      -8.379   6.730  69.075  1.00  0.00    -0.124 N  
HETATM    9  H   UNL     1      -7.392   6.475  69.053  1.00  0.00     0.000 HD 
BRANCH   8  10
HETATM   10  C   UNL     1      -8.980   7.983  68.395  1.00  0.00    -0.133 C  
HETATM   11  C   UNL     1      -8.981   7.781  66.879  1.00  0.00    -0.134 C  
HETATM   12  O   UNL     1      -9.745   8.342  66.107  1.00  0.00    -0.207 OA 
HETATM   13  O   UNL     1      -8.036   6.901  66.463  1.00  0.00    -0.104 OA 
BRANCH  10  14
HETATM   14  C   UNL     1      -8.287   9.315  68.736  1.00  0.00    -0.117 C  
BRANCH  14  15
HETATM   15  C   UNL     1      -9.232  10.477  68.914  1.00  0.00    -0.188 A  
HETATM   16  C   UNL     1     -10.420  10.253  69.617  1.00  0.00    -0.286 A  
HETATM   17  C   UNL     1     -11.432  11.210  69.605  1.00  0.00    -0.383 A  
HETATM   18  C   UNL     1     -11.281  12.394  68.880  1.00  0.00    -0.280 A  
HETATM   19  C   UNL     1      -9.018  11.738  68.337  1.00  0.00    -0.168 A  
HETATM   20  C   UNL     1     -10.046  12.684  68.302  1.00  0.00    -0.233 A  
BRANCH  18  21
HETATM   21  O   UNL     1     -12.282  13.307  68.659  1.00  0.00    -0.277 OA 
BRANCH  21  22
HETATM   22  C   UNL     1     -11.806  14.597  68.268  1.00  0.00    -0.298 C  
BRANCH  22  23
HETATM   23  C   UNL     1     -12.031  15.623  69.365  1.00  0.00    -0.349 C  
BRANCH  23  24
HETATM   24  C   UNL     1     -10.740  16.096  70.048  1.00  0.00    -0.318 C  
BRANCH  24  25
HETATM   25  C   UNL     1      -9.792  16.643  68.978  1.00  0.00    -0.267 C  
BRANCH  25  26
HETATM   26  C   UNL     1     -10.267  17.896  68.219  1.00  0.00    -0.391 C  
HETATM   27  C   UNL     1      -9.685  19.151  68.898  1.00  0.00    -0.474 C  
HETATM   28  C   UNL     1      -8.219  19.379  68.533  1.00  0.00    -0.357 C  
HETATM   29  N   UNL     1      -8.079  19.533  67.088  1.00  0.00    -0.264 NA 
HETATM   30  H   UNL     1      -7.131  19.806  66.830  1.00  0.00     0.000 HD 
HETATM   31  C   UNL     1      -8.502  18.321  66.387  1.00  0.00    -0.244 C  
HETATM   32  C   UNL     1      -9.943  17.925  66.716  1.00  0.00    -0.339 C  
ENDBRANCH  25  26
ENDBRANCH  24  25
ENDBRANCH  23  24
ENDBRANCH  22  23
ENDBRANCH  21  22
ENDBRANCH  18  21
ENDBRANCH  14  15
ENDBRANCH  10  14
ENDBRANCH   8  10
ENDBRANCH   5   8
ENDBRANCH   4   5
ENDBRANCH   3   4
ENDBRANCH   2   3
TORSDOF 13
ENDMDL
MODEL      207
REMARK 921   NORMALIZED FREE ENERGY PREDICTED BY IDOCK:   -3.58 KCAL/MOL
REMARK 922        TOTAL FREE ENERGY PREDICTED BY IDOCK:   -8.84 KCAL/MOL
REMARK 923 INTER-LIGAND FREE ENERGY PREDICTED BY IDOCK:   -8.27 KCAL/MOL
REMARK 924 INTRA-LIGAND FREE ENERGY PREDICTED BY IDOCK:   -0.57 KCAL/MOL
REMARK 927      BINDING AFFINITY PREDICTED BY RF-SCORE:    0.00 PKD
ROOT
HETATM    1  C   UNL     1      -6.080  18.328  69.002  1.00  0.00    -0.228 C  
HETATM    2  C   UNL     1      -6.101  18.284  67.475  1.00  0.00    -0.174 C  
ENDROOT
BRANCH   2   3
HETATM    3  C   UNL     1      -7.546  18.317  67.010  1.00  0.00    -0.234 C  
BRANCH   3   4
HETATM    4  C   UNL     1      -8.590  17.729  67.964  1.00  0.00    -0.250 C  
BRANCH   4   5
HETATM    5  S   UNL     1     -10.072  17.495  66.959  1.00  0.00    -0.336 S  
HETATM    6  O   UNL     1     -11.124  18.332  67.488  1.00  0.00    -0.237 OA 
HETATM    7  O   UNL     1      -9.655  17.571  65.580  1.00  0.00    -0.510 OA 
BRANCH   5   8
HETATM    8  N   UNL     1     -10.593  15.901  67.250  1.00  0.00    -0.312 N  
HETATM    9  H   UNL     1     -10.645  15.467  68.172  1.00  0.00     0.000 HD 
BRANCH   8  10
HETATM   10  C   UNL     1     -10.974  15.199  65.925  1.00  0.00    -0.339 C  
HETATM   11  C   UNL     1     -12.292  14.446  66.115  1.00  0.00    -0.314 C  
HETATM   12  O   UNL     1     -13.067  14.170  65.212  1.00  0.00    -0.763 OA 
HETATM   13  O   UNL     1     -12.524  14.108  67.409  1.00  0.00    -0.210 OA 
BRANCH  10  14
HETATM   14  C   UNL     1      -9.911  14.242  65.355  1.00  0.00    -0.334 C  
BRANCH  14  15
HETATM   15  C   UNL     1      -9.930  12.862  65.962  1.00  0.00    -0.275 A  
HETATM   16  C   UNL     1     -10.368  11.801  65.162  1.00  0.00    -0.323 A  
HETATM   17  C   UNL     1     -10.636  10.559  65.731  1.00  0.00    -0.137 A  
HETATM   18  C   UNL     1     -10.489  10.361  67.106  1.00  0.00    -0.256 A  
HETATM   19  C   UNL     1      -9.616  12.607  67.305  1.00  0.00    -0.203 A  
HETATM   20  C   UNL     1      -9.914  11.368  67.879  1.00  0.00    -0.190 A  
BRANCH  18  21
HETATM   21  O   UNL     1     -10.898   9.239  67.781  1.00  0.00    -0.237 OA 
BRANCH  21  22
HETATM   22  C   UNL     1      -9.832   8.348  68.115  1.00  0.00    -0.169 C  
BRANCH  22  23
HETATM   23  C   UNL     1     -10.138   6.929  67.669  1.00  0.00    -0.204 C  
BRANCH  23  24
HETATM   24  C   UNL     1     -10.491   5.977  68.820  1.00  0.00    -0.307 C  
BRANCH  24  25
HETATM   25  C   UNL     1     -10.594   6.790  70.114  1.00  0.00    -0.254 C  
BRANCH  25  26
HETATM   26  C   UNL     1     -11.181   6.060  71.336  1.00  0.00    -0.325 C  
HETATM   27  C   UNL     1     -10.266   4.876  71.707  1.00  0.00    -0.268 C  
HETATM   28  C   UNL     1      -9.018   5.326  72.466  1.00  0.00    -0.130 C  
HETATM   29  N   UNL     1      -9.399   6.015  73.695  1.00  0.00    -0.134 NA 
HETATM   30  H   UNL     1      -8.587   6.218  74.278  1.00  0.00     0.000 HD 
HETATM   31  C   UNL     1     -10.170   7.223  73.403  1.00  0.00    -0.347 C  
HETATM   32  C   UNL     1     -11.426   6.933  72.578  1.00  0.00    -0.268 C  
ENDBRANCH  25  26
ENDBRANCH  24  25
ENDBRANCH  23  24
ENDBRANCH  22  23
ENDBRANCH  21  22
ENDBRANCH  18  21
ENDBRANCH  14  15
ENDBRANCH  10  14
ENDBRANCH   8  10
ENDBRANCH   5   8
ENDBRANCH   4   5
ENDBRANCH   3   4
ENDBRANCH   2   3
TORSDOF 13
ENDMDL
MODEL      208
REMARK 921   NORMALIZED FREE ENERGY PREDICTED BY IDOCK:   -3.58 KCAL/MOL
REMARK 922        TOTAL FREE ENERGY PREDICTED BY IDOCK:   -8.84 KCAL/MOL
REMARK 923 INTER-LIGAND FREE ENERGY PREDICTED BY IDOCK:   -7.28 KCAL/MOL
REMARK 924 INTRA-LIGAND FREE ENERGY PREDICTED BY IDOCK:   -1.56 KCAL/MOL
REMARK 927      BINDING AFFINITY PREDICTED BY RF-SCORE:    0.00 PKD
ROOT
HETATM    1  C   UNL     1     -11.125  14.211  66.083  1.00  0.00    -0.312 C  
HETATM    2  C   UNL     1     -11.348  14.101  67.590  1.00  0.00    -0.342 C  
ENDROOT
BRANCH   2   3
HETATM    3  C   UNL     1     -10.443  15.102  68.287  1.00  0.00    -0.241 C  
BRANCH   3   4
HETATM    4  C   UNL     1     -11.080  16.432  68.702  1.00  0.00    -0.352 C  
BRANCH   4   5
HETATM    5  S   UNL     1     -10.064  17.707  67.925  1.00  0.00    -0.364 S  
HETATM    6  O   UNL     1     -10.744  18.182  66.743  1.00  0.00    -0.321 OA 
HETATM    7  O   UNL     1      -9.646  18.603  68.977  1.00  0.00    -0.315 OA 
BRANCH   5   8
HETATM    8  N   UNL     1      -8.675  16.915  67.343  1.00  0.00    -0.201 N  
HETATM    9  H   UNL     1      -8.686  16.077  66.762  1.00  0.00     0.000 HD 
BRANCH   8  10
HETATM   10  C   UNL     1      -7.393  17.640  67.817  1.00  0.00    -0.189 C  
HETATM   11  C   UNL     1      -6.871  18.530  66.688  1.00  0.00    -0.196 C  
HETATM   12  O   UNL     1      -6.178  19.523  66.854  1.00  0.00    -0.184 OA 
HETATM   13  O   UNL     1      -7.259  18.105  65.459  1.00  0.00    -0.539 OA 
BRANCH  10  14
HETATM   14  C   UNL     1      -6.261  16.721  68.314  1.00  0.00    -0.132 C  
BRANCH  14  15
HETATM   15  C   UNL     1      -6.648  15.269  68.431  1.00  0.00    -0.110 A  
HETATM   16  C   UNL     1      -6.551  14.665  69.689  1.00  0.00    -0.155 A  
HETATM   17  C   UNL     1      -6.659  13.283  69.813  1.00  0.00     0.052 A  
HETATM   18  C   UNL     1      -6.848  12.481  68.685  1.00  0.00    -0.088 A  
HETATM   19  C   UNL     1      -7.012  14.478  67.331  1.00  0.00    -0.106 A  
HETATM   20  C   UNL     1      -7.091  13.088  67.454  1.00  0.00    -0.124 A  
BRANCH  18  21
HETATM   21  O   UNL     1      -6.784  11.110  68.682  1.00  0.00    -0.056 OA 
BRANCH  21  22
HETATM   22  C   UNL     1      -7.582  10.496  69.695  1.00  0.00    -0.127 C  
BRANCH  22  23
HETATM   23  C   UNL     1      -9.058  10.540  69.338  1.00  0.00    -0.123 C  
BRANCH  23  24
HETATM   24  C   UNL     1      -9.610   9.210  68.806  1.00  0.00    -0.161 C  
BRANCH  24  25
HETATM   25  C   UNL     1     -10.867   8.848  69.601  1.00  0.00    -0.186 C  
BRANCH  25  26
HETATM   26  C   UNL     1     -10.887   9.273  71.081  1.00  0.00    -0.407 C  
HETATM   27  C   UNL     1     -12.101  10.189  71.329  1.00  0.00    -0.489 C  
HETATM   28  C   UNL     1     -13.405   9.401  71.448  1.00  0.00    -0.346 C  
HETATM   29  N   UNL     1     -13.317   8.448  72.549  1.00  0.00    -0.600 NA 
HETATM   30  H   UNL     1     -14.214   7.995  72.727  1.00  0.00     0.000 HD 
HETATM   31  C   UNL     1     -12.256   7.469  72.314  1.00  0.00    -0.197 C  
HETATM   32  C   UNL     1     -10.889   8.125  72.103  1.00  0.00    -0.370 C  
ENDBRANCH  25  26
ENDBRANCH  24  25
ENDBRANCH  23  24
ENDBRANCH  22  23
ENDBRANCH  21  22
ENDBRANCH  18  21
ENDBRANCH  14  15
ENDBRANCH  10  14
ENDBRANCH   8  10
ENDBRANCH   5   8
ENDBRANCH   4   5
ENDBRANCH   3   4
ENDBRANCH   2   3
TORSDOF 13
ENDMDL
MODEL      209
REMARK 921   NORMALIZED FREE ENERGY PREDICTED BY IDOCK:   -3.57 KCAL/MOL
REMARK 922        TOTAL FREE ENERGY PREDICTED BY IDOCK:   -8.83 KCAL/MOL
REMARK 923 INTER-LIGAND FREE ENERGY PREDICTED BY IDOCK:   -6.63 KCAL/MOL
REMARK 924 INTRA-LIGAND FREE ENERGY PREDICTED BY IDOCK:   -2.20 KCAL/MOL
REMARK 927      BINDING AFFINITY PREDICTED BY RF-SCORE:    0.00 PKD
ROOT
HETATM    1  C   UNL     1      -5.860   8.350  68.837  1.00  0.00    -0.040 C  
HETATM    2  C   UNL     1      -6.391   8.569  67.422  1.00  0.00    -0.057 C  
ENDROOT
BRANCH   2   3
HETATM    3  C   UNL     1      -7.456   9.651  67.467  1.00  0.00    -0.091 C  
BRANCH   3   4
HETATM    4  C   UNL     1      -7.334  10.779  66.438  1.00  0.00    -0.142 C  
BRANCH   4   5
HETATM    5  S   UNL     1      -7.087  12.282  67.409  1.00  0.00    -0.144 S  
HETATM    6  O   UNL     1      -7.343  11.980  68.798  1.00  0.00    -0.108 OA 
HETATM    7  O   UNL     1      -5.840  12.859  66.970  1.00  0.00    -0.306 OA 
BRANCH   5   8
HETATM    8  N   UNL     1      -8.333  13.348  66.955  1.00  0.00    -0.406 N  
HETATM    9  H   UNL     1      -8.196  14.328  66.706  1.00  0.00     0.000 HD 
BRANCH   8  10
HETATM   10  C   UNL     1      -9.703  12.628  66.970  1.00  0.00    -0.225 C  
HETATM   11  C   UNL     1     -10.456  12.950  65.679  1.00  0.00    -0.277 C  
HETATM   12  O   UNL     1     -11.319  12.239  65.186  1.00  0.00    -0.311 OA 
HETATM   13  O   UNL     1     -10.065  14.123  65.119  1.00  0.00    -0.364 OA 
BRANCH  10  14
HETATM   14  C   UNL     1     -10.600  12.942  68.182  1.00  0.00    -0.249 C  
BRANCH  14  15
HETATM   15  C   UNL     1     -11.194  11.725  68.845  1.00  0.00    -0.311 A  
HETATM   16  C   UNL     1     -12.034  11.924  69.946  1.00  0.00    -0.398 A  
HETATM   17  C   UNL     1     -12.414  10.846  70.741  1.00  0.00    -0.489 A  
HETATM   18  C   UNL     1     -11.949   9.559  70.462  1.00  0.00    -0.134 A  
HETATM   19  C   UNL     1     -10.877  10.411  68.469  1.00  0.00    -0.278 A  
HETATM   20  C   UNL     1     -11.235   9.335  69.286  1.00  0.00     0.066 A  
BRANCH  18  21
HETATM   21  O   UNL     1     -12.117   8.473  71.284  1.00  0.00    -0.290 OA 
BRANCH  21  22
HETATM   22  C   UNL     1     -11.440   8.592  72.537  1.00  0.00    -0.298 C  
BRANCH  22  23
HETATM   23  C   UNL     1     -11.073   7.229  73.098  1.00  0.00    -0.336 C  
BRANCH  23  24
HETATM   24  C   UNL     1     -11.496   6.054  72.205  1.00  0.00    -0.356 C  
BRANCH  24  25
HETATM   25  C   UNL     1     -10.245   5.468  71.543  1.00  0.00    -0.270 C  
BRANCH  25  26
HETATM   26  C   UNL     1      -9.943   5.945  70.110  1.00  0.00    -0.247 C  
HETATM   27  C   UNL     1      -8.478   6.418  70.032  1.00  0.00    -0.135 C  
HETATM   28  C   UNL     1      -7.497   5.250  69.943  1.00  0.00    -0.065 C  
HETATM   29  N   UNL     1      -7.782   4.443  68.761  1.00  0.00    -0.066 NA 
HETATM   30  H   UNL     1      -7.069   3.729  68.613  1.00  0.00     0.000 HD 
HETATM   31  C   UNL     1      -9.121   3.860  68.833  1.00  0.00    -0.138 C  
HETATM   32  C   UNL     1     -10.214   4.919  68.997  1.00  0.00    -0.164 C  
ENDBRANCH  25  26
ENDBRANCH  24  25
ENDBRANCH  23  24
ENDBRANCH  22  23
ENDBRANCH  21  22
ENDBRANCH  18  21
ENDBRANCH  14  15
ENDBRANCH  10  14
ENDBRANCH   8  10
ENDBRANCH   5   8
ENDBRANCH   4   5
ENDBRANCH   3   4
ENDBRANCH   2   3
TORSDOF 13
ENDMDL
MODEL      210
REMARK 921   NORMALIZED FREE ENERGY PREDICTED BY IDOCK:   -3.57 KCAL/MOL
REMARK 922        TOTAL FREE ENERGY PREDICTED BY IDOCK:   -8.83 KCAL/MOL
REMARK 923 INTER-LIGAND FREE ENERGY PREDICTED BY IDOCK:   -9.05 KCAL/MOL
REMARK 924 INTRA-LIGAND FREE ENERGY PREDICTED BY IDOCK:    0.22 KCAL/MOL
REMARK 927      BINDING AFFINITY PREDICTED BY RF-SCORE:    0.00 PKD
ROOT
HETATM    1  C   UNL     1      -7.364   7.531  73.445  1.00  0.00    -0.109 C  
HETATM    2  C   UNL     1      -8.191   6.311  73.842  1.00  0.00    -0.108 C  
ENDROOT
BRANCH   2   3
HETATM    3  C   UNL     1      -8.754   5.676  72.582  1.00  0.00    -0.123 C  
BRANCH   3   4
HETATM    4  C   UNL     1     -10.279   5.656  72.444  1.00  0.00    -0.193 C  
BRANCH   4   5
HETATM    5  S   UNL     1     -10.677   7.054  71.371  1.00  0.00    -0.220 S  
HETATM    6  O   UNL     1      -9.485   7.434  70.649  1.00  0.00    -0.164 OA 
HETATM    7  O   UNL     1     -11.907   6.721  70.694  1.00  0.00    -0.370 OA 
BRANCH   5   8
HETATM    8  N   UNL     1     -11.000   8.366  72.405  1.00  0.00    -0.360 N  
HETATM    9  H   UNL     1     -10.790   8.383  73.404  1.00  0.00     0.000 HD 
BRANCH   8  10
HETATM   10  C   UNL     1     -11.656   9.529  71.625  1.00  0.00    -0.381 C  
HETATM   11  C   UNL     1     -13.090   9.723  72.120  1.00  0.00    -0.422 C  
HETATM   12  O   UNL     1     -13.712  10.772  72.046  1.00  0.00    -0.169 OA 
HETATM   13  O   UNL     1     -13.617   8.596  72.661  1.00  0.00    -0.329 OA 
BRANCH  10  14
HETATM   14  C   UNL     1     -11.656   9.379  70.092  1.00  0.00    -0.117 C  
BRANCH  14  15
HETATM   15  C   UNL     1     -11.633  10.686  69.341  1.00  0.00    -0.352 A  
HETATM   16  C   UNL     1     -11.296  10.655  67.983  1.00  0.00    -0.350 A  
HETATM   17  C   UNL     1     -11.023  11.837  67.302  1.00  0.00    -0.318 A  
HETATM   18  C   UNL     1     -11.065  13.065  67.966  1.00  0.00    -0.260 A  
HETATM   19  C   UNL     1     -11.845  11.930  69.953  1.00  0.00    -0.418 A  
HETATM   20  C   UNL     1     -11.542  13.114  69.275  1.00  0.00    -0.370 A  
BRANCH  18  21
HETATM   21  O   UNL     1     -10.639  14.256  67.433  1.00  0.00    -0.272 OA 
BRANCH  21  22
HETATM   22  C   UNL     1      -9.373  14.690  67.937  1.00  0.00    -0.198 C  
BRANCH  22  23
HETATM   23  C   UNL     1      -9.512  15.960  68.759  1.00  0.00    -0.221 C  
BRANCH  23  24
HETATM   24  C   UNL     1     -10.762  16.785  68.423  1.00  0.00    -0.362 C  
BRANCH  24  25
HETATM   25  C   UNL     1     -10.467  17.638  67.186  1.00  0.00    -0.319 C  
BRANCH  25  26
HETATM   26  C   UNL     1     -10.683  19.156  67.334  1.00  0.00    -0.578 C  
HETATM   27  C   UNL     1      -9.912  19.659  68.570  1.00  0.00    -0.542 C  
HETATM   28  C   UNL     1      -8.417  19.811  68.297  1.00  0.00    -0.270 C  
HETATM   29  N   UNL     1      -8.199  20.754  67.205  1.00  0.00    -0.546 NA 
HETATM   30  H   UNL     1      -7.208  20.965  67.083  1.00  0.00     0.000 HD 
HETATM   31  C   UNL     1      -8.805  20.272  65.964  1.00  0.00    -0.034 C  
HETATM   32  C   UNL     1     -10.305  20.005  66.109  1.00  0.00    -0.570 C  
ENDBRANCH  25  26
ENDBRANCH  24  25
ENDBRANCH  23  24
ENDBRANCH  22  23
ENDBRANCH  21  22
ENDBRANCH  18  21
ENDBRANCH  14  15
ENDBRANCH  10  14
ENDBRANCH   8  10
ENDBRANCH   5   8
ENDBRANCH   4   5
ENDBRANCH   3   4
ENDBRANCH   2   3
TORSDOF 13
ENDMDL
MODEL      211
REMARK 921   NORMALIZED FREE ENERGY PREDICTED BY IDOCK:   -3.56 KCAL/MOL
REMARK 922        TOTAL FREE ENERGY PREDICTED BY IDOCK:   -8.82 KCAL/MOL
REMARK 923 INTER-LIGAND FREE ENERGY PREDICTED BY IDOCK:   -7.82 KCAL/MOL
REMARK 924 INTRA-LIGAND FREE ENERGY PREDICTED BY IDOCK:   -1.00 KCAL/MOL
REMARK 927      BINDING AFFINITY PREDICTED BY RF-SCORE:    0.00 PKD
ROOT
HETATM    1  C   UNL     1     -11.633  15.594  68.402  1.00  0.00    -0.358 C  
HETATM    2  C   UNL     1     -10.983  14.537  67.513  1.00  0.00    -0.297 C  
ENDROOT
BRANCH   2   3
HETATM    3  C   UNL     1     -11.966  14.149  66.423  1.00  0.00    -0.457 C  
BRANCH   3   4
HETATM    4  C   UNL     1     -12.101  12.654  66.119  1.00  0.00    -0.333 C  
BRANCH   4   5
HETATM    5  S   UNL     1     -11.959  12.521  64.323  1.00  0.00    -0.441 S  
HETATM    6  O   UNL     1     -13.266  12.241  63.777  1.00  0.00    -0.771 OA 
HETATM    7  O   UNL     1     -11.173  13.649  63.885  1.00  0.00    -0.253 OA 
BRANCH   5   8
HETATM    8  N   UNL     1     -11.049  11.114  64.024  1.00  0.00    -0.439 N  
HETATM    9  H   UNL     1     -11.448  10.190  63.858  1.00  0.00     0.000 HD 
BRANCH   8  10
HETATM   10  C   UNL     1      -9.534  11.429  64.039  1.00  0.00    -0.141 C  
HETATM   11  C   UNL     1      -8.841  10.620  62.942  1.00  0.00    -0.245 C  
HETATM   12  O   UNL     1      -7.788  10.938  62.409  1.00  0.00    -0.170 OA 
HETATM   13  O   UNL     1      -9.520   9.494  62.608  1.00  0.00    -0.099 OA 
BRANCH  10  14
HETATM   14  C   UNL     1      -8.824  11.188  65.384  1.00  0.00    -0.110 C  
BRANCH  14  15
HETATM   15  C   UNL     1      -8.955   9.781  65.911  1.00  0.00    -0.189 A  
HETATM   16  C   UNL     1      -7.915   8.884  65.647  1.00  0.00    -0.098 A  
HETATM   17  C   UNL     1      -8.084   7.524  65.893  1.00  0.00    -0.127 A  
HETATM   18  C   UNL     1      -9.295   7.037  66.390  1.00  0.00    -0.138 A  
HETATM   19  C   UNL     1     -10.098   9.311  66.573  1.00  0.00    -0.343 A  
HETATM   20  C   UNL     1     -10.277   7.942  66.792  1.00  0.00    -0.358 A  
BRANCH  18  21
HETATM   21  O   UNL     1      -9.619   5.708  66.492  1.00  0.00    -0.146 OA 
BRANCH  21  22
HETATM   22  C   UNL     1      -8.879   5.011  67.496  1.00  0.00    -0.102 C  
BRANCH  22  23
HETATM   23  C   UNL     1      -9.788   4.510  68.605  1.00  0.00    -0.168 C  
BRANCH  23  24
HETATM   24  C   UNL     1      -9.058   4.218  69.924  1.00  0.00    -0.173 C  
BRANCH  24  25
HETATM   25  C   UNL     1      -9.275   5.398  70.876  1.00  0.00    -0.183 C  
BRANCH  25  26
HETATM   26  C   UNL     1     -10.255   5.166  72.040  1.00  0.00    -0.260 C  
HETATM   27  C   UNL     1      -9.468   5.118  73.364  1.00  0.00    -0.143 C  
HETATM   28  C   UNL     1      -9.078   6.512  73.855  1.00  0.00    -0.148 C  
HETATM   29  N   UNL     1     -10.272   7.324  74.061  1.00  0.00    -0.420 NA 
HETATM   30  H   UNL     1     -10.048   8.216  74.502  1.00  0.00     0.000 HD 
HETATM   31  C   UNL     1     -11.004   7.511  72.808  1.00  0.00    -0.359 C  
HETATM   32  C   UNL     1     -11.401   6.184  72.157  1.00  0.00    -0.347 C  
ENDBRANCH  25  26
ENDBRANCH  24  25
ENDBRANCH  23  24
ENDBRANCH  22  23
ENDBRANCH  21  22
ENDBRANCH  18  21
ENDBRANCH  14  15
ENDBRANCH  10  14
ENDBRANCH   8  10
ENDBRANCH   5   8
ENDBRANCH   4   5
ENDBRANCH   3   4
ENDBRANCH   2   3
TORSDOF 13
ENDMDL
MODEL      212
REMARK 921   NORMALIZED FREE ENERGY PREDICTED BY IDOCK:   -3.56 KCAL/MOL
REMARK 922        TOTAL FREE ENERGY PREDICTED BY IDOCK:   -8.81 KCAL/MOL
REMARK 923 INTER-LIGAND FREE ENERGY PREDICTED BY IDOCK:   -8.78 KCAL/MOL
REMARK 924 INTRA-LIGAND FREE ENERGY PREDICTED BY IDOCK:   -0.02 KCAL/MOL
REMARK 927      BINDING AFFINITY PREDICTED BY RF-SCORE:    0.00 PKD
ROOT
HETATM    1  C   UNL     1     -12.083  13.223  63.876  1.00  0.00    -0.531 C  
HETATM    2  C   UNL     1     -10.697  13.064  64.498  1.00  0.00    -0.404 C  
ENDROOT
BRANCH   2   3
HETATM    3  C   UNL     1     -10.857  12.495  65.897  1.00  0.00    -0.302 C  
BRANCH   3   4
HETATM    4  C   UNL     1      -9.851  12.969  66.951  1.00  0.00    -0.240 C  
BRANCH   4   5
HETATM    5  S   UNL     1     -10.749  14.169  67.958  1.00  0.00    -0.246 S  
HETATM    6  O   UNL     1      -9.866  15.272  68.257  1.00  0.00    -0.213 OA 
HETATM    7  O   UNL     1     -12.031  14.366  67.325  1.00  0.00    -0.399 OA 
BRANCH   5   8
HETATM    8  N   UNL     1     -11.029  13.413  69.457  1.00  0.00    -0.454 N  
HETATM    9  H   UNL     1     -10.351  12.826  69.946  1.00  0.00     0.000 HD 
BRANCH   8  10
HETATM   10  C   UNL     1     -12.450  13.735  69.976  1.00  0.00    -0.240 C  
HETATM   11  C   UNL     1     -12.392  14.980  70.863  1.00  0.00    -0.334 C  
HETATM   12  O   UNL     1     -13.335  15.730  71.063  1.00  0.00    -0.580 OA 
HETATM   13  O   UNL     1     -11.168  15.177  71.416  1.00  0.00    -0.339 OA 
BRANCH  10  14
HETATM   14  C   UNL     1     -13.149  12.593  70.736  1.00  0.00     0.162 C  
BRANCH  14  15
HETATM   15  C   UNL     1     -12.344  11.321  70.822  1.00  0.00    -0.495 A  
HETATM   16  C   UNL     1     -11.603  10.938  69.699  1.00  0.00    -0.394 A  
HETATM   17  C   UNL     1     -11.041   9.666  69.632  1.00  0.00    -0.223 A  
HETATM   18  C   UNL     1     -11.222   8.753  70.673  1.00  0.00    -0.257 A  
HETATM   19  C   UNL     1     -12.372  10.466  71.934  1.00  0.00    -0.181 A  
HETATM   20  C   UNL     1     -11.832   9.180  71.852  1.00  0.00    -0.439 A  
BRANCH  18  21
HETATM   21  O   UNL     1     -10.867   7.428  70.621  1.00  0.00    -0.233 OA 
BRANCH  21  22
HETATM   22  C   UNL     1      -9.676   7.124  71.349  1.00  0.00    -0.168 C  
BRANCH  22  23
HETATM   23  C   UNL     1      -9.058   5.819  70.878  1.00  0.00    -0.157 C  
BRANCH  23  24
HETATM   24  C   UNL     1      -9.259   5.540  69.382  1.00  0.00    -0.145 C  
BRANCH  24  25
HETATM   25  C   UNL     1      -8.203   6.320  68.593  1.00  0.00    -0.112 C  
BRANCH  25  26
HETATM   26  C   UNL     1      -8.570   6.695  67.145  1.00  0.00    -0.112 C  
HETATM   27  C   UNL     1      -8.544   5.426  66.271  1.00  0.00    -0.122 C  
HETATM   28  C   UNL     1      -9.795   4.569  66.458  1.00  0.00    -0.227 C  
HETATM   29  N   UNL     1     -10.987   5.338  66.115  1.00  0.00    -0.756 NA 
HETATM   30  H   UNL     1     -11.824   4.754  66.115  1.00  0.00     0.000 HD 
HETATM   31  C   UNL     1     -11.137   6.496  66.995  1.00  0.00    -0.339 C  
HETATM   32  C   UNL     1      -9.916   7.418  66.966  1.00  0.00    -0.301 C  
ENDBRANCH  25  26
ENDBRANCH  24  25
ENDBRANCH  23  24
ENDBRANCH  22  23
ENDBRANCH  21  22
ENDBRANCH  18  21
ENDBRANCH  14  15
ENDBRANCH  10  14
ENDBRANCH   8  10
ENDBRANCH   5   8
ENDBRANCH   4   5
ENDBRANCH   3   4
ENDBRANCH   2   3
TORSDOF 13
ENDMDL
MODEL      213
REMARK 921   NORMALIZED FREE ENERGY PREDICTED BY IDOCK:   -3.55 KCAL/MOL
REMARK 922        TOTAL FREE ENERGY PREDICTED BY IDOCK:   -8.78 KCAL/MOL
REMARK 923 INTER-LIGAND FREE ENERGY PREDICTED BY IDOCK:   -6.76 KCAL/MOL
REMARK 924 INTRA-LIGAND FREE ENERGY PREDICTED BY IDOCK:   -2.03 KCAL/MOL
REMARK 927      BINDING AFFINITY PREDICTED BY RF-SCORE:    0.00 PKD
ROOT
HETATM    1  C   UNL     1      -9.885   4.316  67.407  1.00  0.00    -0.176 C  
HETATM    2  C   UNL     1     -10.228   5.371  66.358  1.00  0.00    -0.268 C  
ENDROOT
BRANCH   2   3
HETATM    3  C   UNL     1      -8.987   6.202  66.083  1.00  0.00    -0.164 C  
BRANCH   3   4
HETATM    4  C   UNL     1      -9.137   7.722  66.200  1.00  0.00    -0.153 C  
BRANCH   4   5
HETATM    5  S   UNL     1      -7.455   8.351  66.394  1.00  0.00    -0.084 S  
HETATM    6  O   UNL     1      -7.098   8.286  67.792  1.00  0.00    -0.079 OA 
HETATM    7  O   UNL     1      -6.656   7.720  65.372  1.00  0.00    -0.044 OA 
BRANCH   5   8
HETATM    8  N   UNL     1      -7.528  10.013  66.037  1.00  0.00    -0.107 N  
HETATM    9  H   UNL     1      -6.781  10.681  66.232  1.00  0.00     0.000 HD 
BRANCH   8  10
HETATM   10  C   UNL     1      -8.880  10.372  65.377  1.00  0.00    -0.179 C  
HETATM   11  C   UNL     1      -8.754  10.229  63.860  1.00  0.00    -0.204 C  
HETATM   12  O   UNL     1      -9.690  10.012  63.106  1.00  0.00    -0.192 OA 
HETATM   13  O   UNL     1      -7.477  10.366  63.421  1.00  0.00    -0.132 OA 
BRANCH  10  14
HETATM   14  C   UNL     1      -9.430  11.770  65.719  1.00  0.00    -0.232 C  
BRANCH  14  15
HETATM   15  C   UNL     1     -10.014  11.884  67.104  1.00  0.00    -0.209 A  
HETATM   16  C   UNL     1      -9.625  10.939  68.059  1.00  0.00    -0.170 A  
HETATM   17  C   UNL     1     -10.305  10.846  69.270  1.00  0.00    -0.211 A  
HETATM   18  C   UNL     1     -11.391  11.682  69.541  1.00  0.00    -0.260 A  
HETATM   19  C   UNL     1     -10.986  12.833  67.454  1.00  0.00    -0.285 A  
HETATM   20  C   UNL     1     -11.686  12.719  68.658  1.00  0.00    -0.360 A  
BRANCH  18  21
HETATM   21  O   UNL     1     -12.232  11.546  70.617  1.00  0.00    -0.364 OA 
BRANCH  21  22
HETATM   22  C   UNL     1     -13.004  10.344  70.595  1.00  0.00    -0.283 C  
BRANCH  22  23
HETATM   23  C   UNL     1     -13.417   9.926  71.996  1.00  0.00    -0.478 C  
BRANCH  23  24
HETATM   24  C   UNL     1     -13.010   8.493  72.363  1.00  0.00    -0.354 C  
BRANCH  24  25
HETATM   25  C   UNL     1     -11.482   8.421  72.439  1.00  0.00    -0.451 C  
BRANCH  25  26
HETATM   26  C   UNL     1     -10.847   7.047  72.159  1.00  0.00    -0.255 C  
HETATM   27  C   UNL     1     -11.333   6.534  70.790  1.00  0.00    -0.399 C  
HETATM   28  C   UNL     1     -10.602   7.205  69.628  1.00  0.00    -0.234 C  
HETATM   29  N   UNL     1      -9.167   6.959  69.728  1.00  0.00    -0.147 NA 
HETATM   30  H   UNL     1      -8.670   7.293  68.902  1.00  0.00     0.000 HD 
HETATM   31  C   UNL     1      -8.619   7.534  70.956  1.00  0.00    -0.132 C  
HETATM   32  C   UNL     1      -9.311   7.001  72.213  1.00  0.00    -0.150 C  
ENDBRANCH  25  26
ENDBRANCH  24  25
ENDBRANCH  23  24
ENDBRANCH  22  23
ENDBRANCH  21  22
ENDBRANCH  18  21
ENDBRANCH  14  15
ENDBRANCH  10  14
ENDBRANCH   8  10
ENDBRANCH   5   8
ENDBRANCH   4   5
ENDBRANCH   3   4
ENDBRANCH   2   3
TORSDOF 13
ENDMDL
MODEL      214
REMARK 921   NORMALIZED FREE ENERGY PREDICTED BY IDOCK:   -3.55 KCAL/MOL
REMARK 922        TOTAL FREE ENERGY PREDICTED BY IDOCK:   -8.78 KCAL/MOL
REMARK 923 INTER-LIGAND FREE ENERGY PREDICTED BY IDOCK:   -8.02 KCAL/MOL
REMARK 924 INTRA-LIGAND FREE ENERGY PREDICTED BY IDOCK:   -0.77 KCAL/MOL
REMARK 927      BINDING AFFINITY PREDICTED BY RF-SCORE:    0.00 PKD
ROOT
HETATM    1  C   UNL     1     -12.760  15.438  73.053  1.00  0.00    -0.561 C  
HETATM    2  C   UNL     1     -13.121  14.080  72.456  1.00  0.00    -0.547 C  
ENDROOT
BRANCH   2   3
HETATM    3  C   UNL     1     -12.542  13.998  71.055  1.00  0.00    -0.437 C  
BRANCH   3   4
HETATM    4  C   UNL     1     -12.846  15.169  70.115  1.00  0.00    -0.164 C  
BRANCH   4   5
HETATM    5  S   UNL     1     -11.552  15.116  68.857  1.00  0.00    -0.351 S  
HETATM    6  O   UNL     1     -11.381  16.445  68.316  1.00  0.00    -0.350 OA 
HETATM    7  O   UNL     1     -10.451  14.376  69.425  1.00  0.00    -0.190 OA 
BRANCH   5   8
HETATM    8  N   UNL     1     -12.180  14.196  67.571  1.00  0.00    -0.578 N  
HETATM    9  H   UNL     1     -12.751  13.358  67.683  1.00  0.00     0.000 HD 
BRANCH   8  10
HETATM   10  C   UNL     1     -11.766  14.804  66.210  1.00  0.00    -0.257 C  
HETATM   11  C   UNL     1     -12.659  14.229  65.109  1.00  0.00    -0.372 C  
HETATM   12  O   UNL     1     -12.895  14.788  64.049  1.00  0.00    -0.697 OA 
HETATM   13  O   UNL     1     -13.178  13.017  65.430  1.00  0.00    -0.538 OA 
BRANCH  10  14
HETATM   14  C   UNL     1     -10.287  14.614  65.825  1.00  0.00    -0.349 C  
BRANCH  14  15
HETATM   15  C   UNL     1      -9.780  13.204  65.990  1.00  0.00    -0.234 A  
HETATM   16  C   UNL     1      -8.866  12.953  67.020  1.00  0.00    -0.208 A  
HETATM   17  C   UNL     1      -8.184  11.741  67.072  1.00  0.00    -0.172 A  
HETATM   18  C   UNL     1      -8.389  10.769  66.091  1.00  0.00    -0.166 A  
HETATM   19  C   UNL     1     -10.109  12.159  65.114  1.00  0.00    -0.288 A  
HETATM   20  C   UNL     1      -9.402  10.954  65.152  1.00  0.00    -0.252 A  
BRANCH  18  21
HETATM   21  O   UNL     1      -7.637   9.628  65.953  1.00  0.00    -0.099 OA 
BRANCH  21  22
HETATM   22  C   UNL     1      -8.333   8.557  65.312  1.00  0.00    -0.159 C  
BRANCH  22  23
HETATM   23  C   UNL     1      -7.683   7.217  65.615  1.00  0.00    -0.105 C  
BRANCH  23  24
HETATM   24  C   UNL     1      -7.424   6.975  67.109  1.00  0.00    -0.095 C  
BRANCH  24  25
HETATM   25  C   UNL     1      -8.209   5.736  67.548  1.00  0.00    -0.101 C  
BRANCH  25  26
HETATM   26  C   UNL     1      -9.738   5.796  67.369  1.00  0.00    -0.133 C  
HETATM   27  C   UNL     1     -10.381   4.608  68.110  1.00  0.00     0.092 C  
HETATM   28  C   UNL     1     -10.461   4.842  69.618  1.00  0.00     0.170 C  
HETATM   29  N   UNL     1     -11.247   6.039  69.900  1.00  0.00    -0.399 NA 
HETATM   30  H   UNL     1     -11.417   6.149  70.900  1.00  0.00     0.000 HD 
HETATM   31  C   UNL     1     -10.619   7.228  69.325  1.00  0.00    -0.221 C  
HETATM   32  C   UNL     1     -10.408   7.107  67.814  1.00  0.00    -0.257 C  
ENDBRANCH  25  26
ENDBRANCH  24  25
ENDBRANCH  23  24
ENDBRANCH  22  23
ENDBRANCH  21  22
ENDBRANCH  18  21
ENDBRANCH  14  15
ENDBRANCH  10  14
ENDBRANCH   8  10
ENDBRANCH   5   8
ENDBRANCH   4   5
ENDBRANCH   3   4
ENDBRANCH   2   3
TORSDOF 13
ENDMDL
MODEL      215
REMARK 921   NORMALIZED FREE ENERGY PREDICTED BY IDOCK:   -3.53 KCAL/MOL
REMARK 922        TOTAL FREE ENERGY PREDICTED BY IDOCK:   -8.76 KCAL/MOL
REMARK 923 INTER-LIGAND FREE ENERGY PREDICTED BY IDOCK:   -7.34 KCAL/MOL
REMARK 924 INTRA-LIGAND FREE ENERGY PREDICTED BY IDOCK:   -1.43 KCAL/MOL
REMARK 927      BINDING AFFINITY PREDICTED BY RF-SCORE:    0.00 PKD
ROOT
HETATM    1  C   UNL     1      -9.343   2.378  64.202  1.00  0.00    -0.128 C  
HETATM    2  C   UNL     1      -8.661   2.558  65.556  1.00  0.00    -0.119 C  
ENDROOT
BRANCH   2   3
HETATM    3  C   UNL     1      -8.735   4.024  65.945  1.00  0.00    -0.116 C  
BRANCH   3   4
HETATM    4  C   UNL     1      -9.386   4.346  67.293  1.00  0.00    -0.155 C  
BRANCH   4   5
HETATM    5  S   UNL     1      -9.162   6.125  67.515  1.00  0.00    -0.110 S  
HETATM    6  O   UNL     1      -7.989   6.344  68.329  1.00  0.00    -0.104 OA 
HETATM    7  O   UNL     1      -9.310   6.727  66.212  1.00  0.00    -0.161 OA 
BRANCH   5   8
HETATM    8  N   UNL     1     -10.466   6.649  68.473  1.00  0.00    -0.195 N  
HETATM    9  H   UNL     1     -11.249   6.061  68.759  1.00  0.00     0.000 HD 
BRANCH   8  10
HETATM   10  C   UNL     1     -10.302   8.140  68.853  1.00  0.00    -0.211 C  
HETATM   11  C   UNL     1     -10.826   8.360  70.272  1.00  0.00    -0.239 C  
HETATM   12  O   UNL     1     -10.464   9.263  71.011  1.00  0.00    -0.263 OA 
HETATM   13  O   UNL     1     -11.749   7.436  70.642  1.00  0.00    -0.290 OA 
BRANCH  10  14
HETATM   14  C   UNL     1     -10.973   9.142  67.895  1.00  0.00    -0.035 C  
BRANCH  14  15
HETATM   15  C   UNL     1     -10.285  10.482  67.818  1.00  0.00    -0.223 A  
HETATM   16  C   UNL     1      -8.890  10.508  67.916  1.00  0.00    -0.133 A  
HETATM   17  C   UNL     1      -8.223  11.717  68.094  1.00  0.00    -0.151 A  
HETATM   18  C   UNL     1      -8.936  12.914  68.193  1.00  0.00    -0.202 A  
HETATM   19  C   UNL     1     -10.977  11.700  67.740  1.00  0.00    -0.287 A  
HETATM   20  C   UNL     1     -10.308  12.909  67.948  1.00  0.00    -0.233 A  
BRANCH  18  21
HETATM   21  O   UNL     1      -8.389  14.122  68.548  1.00  0.00    -0.156 OA 
BRANCH  21  22
HETATM   22  C   UNL     1      -9.244  15.237  68.287  1.00  0.00    -0.189 C  
BRANCH  22  23
HETATM   23  C   UNL     1      -9.679  15.913  69.577  1.00  0.00    -0.255 C  
BRANCH  23  24
HETATM   24  C   UNL     1     -11.034  16.627  69.478  1.00  0.00    -0.228 C  
BRANCH  24  25
HETATM   25  C   UNL     1     -12.124  15.682  69.989  1.00  0.00    -0.379 C  
BRANCH  25  26
HETATM   26  C   UNL     1     -11.769  14.830  71.222  1.00  0.00    -0.358 C  
HETATM   27  C   UNL     1     -11.795  15.723  72.478  1.00  0.00    -0.605 C  
HETATM   28  C   UNL     1     -13.217  15.994  72.966  1.00  0.00    -0.498 C  
HETATM   29  N   UNL     1     -13.887  14.737  73.283  1.00  0.00    -0.371 NA 
HETATM   30  H   UNL     1     -14.793  14.895  73.724  1.00  0.00     0.000 HD 
HETATM   31  C   UNL     1     -14.006  13.890  72.096  1.00  0.00    -0.545 C  
HETATM   32  C   UNL     1     -12.651  13.591  71.451  1.00  0.00    -0.398 C  
ENDBRANCH  25  26
ENDBRANCH  24  25
ENDBRANCH  23  24
ENDBRANCH  22  23
ENDBRANCH  21  22
ENDBRANCH  18  21
ENDBRANCH  14  15
ENDBRANCH  10  14
ENDBRANCH   8  10
ENDBRANCH   5   8
ENDBRANCH   4   5
ENDBRANCH   3   4
ENDBRANCH   2   3
TORSDOF 13
ENDMDL
MODEL      216
REMARK 921   NORMALIZED FREE ENERGY PREDICTED BY IDOCK:   -3.52 KCAL/MOL
REMARK 922        TOTAL FREE ENERGY PREDICTED BY IDOCK:   -8.75 KCAL/MOL
REMARK 923 INTER-LIGAND FREE ENERGY PREDICTED BY IDOCK:   -7.19 KCAL/MOL
REMARK 924 INTRA-LIGAND FREE ENERGY PREDICTED BY IDOCK:   -1.56 KCAL/MOL
REMARK 927      BINDING AFFINITY PREDICTED BY RF-SCORE:    0.00 PKD
ROOT
HETATM    1  C   UNL     1      -6.957  10.954  69.685  1.00  0.00    -0.128 C  
HETATM    2  C   UNL     1      -7.020  12.148  68.735  1.00  0.00    -0.101 C  
ENDROOT
BRANCH   2   3
HETATM    3  C   UNL     1      -8.462  12.347  68.303  1.00  0.00    -0.170 C  
BRANCH   3   4
HETATM    4  C   UNL     1      -9.370  11.114  68.345  1.00  0.00    -0.185 C  
BRANCH   4   5
HETATM    5  S   UNL     1     -11.040  11.763  68.571  1.00  0.00    -0.262 S  
HETATM    6  O   UNL     1     -11.014  13.190  68.351  1.00  0.00    -0.241 OA 
HETATM    7  O   UNL     1     -11.926  10.893  67.836  1.00  0.00    -0.585 OA 
BRANCH   5   8
HETATM    8  N   UNL     1     -11.398  11.581  70.224  1.00  0.00    -0.491 N  
HETATM    9  H   UNL     1     -11.364  12.334  70.911  1.00  0.00     0.000 HD 
BRANCH   8  10
HETATM   10  C   UNL     1     -11.782  10.116  70.543  1.00  0.00    -0.322 C  
HETATM   11  C   UNL     1     -13.073  10.101  71.363  1.00  0.00    -0.416 C  
HETATM   12  O   UNL     1     -13.855   9.163  71.403  1.00  0.00    -0.359 OA 
HETATM   13  O   UNL     1     -13.272  11.252  72.054  1.00  0.00    -0.506 OA 
BRANCH  10  14
HETATM   14  C   UNL     1     -10.700   9.294  71.269  1.00  0.00    -0.422 C  
BRANCH  14  15
HETATM   15  C   UNL     1     -10.264   8.055  70.530  1.00  0.00    -0.201 A  
HETATM   16  C   UNL     1     -11.241   7.108  70.205  1.00  0.00    -0.295 A  
HETATM   17  C   UNL     1     -10.870   5.848  69.745  1.00  0.00    -0.447 A  
HETATM   18  C   UNL     1      -9.522   5.507  69.618  1.00  0.00    -0.138 A  
HETATM   19  C   UNL     1      -8.923   7.767  70.233  1.00  0.00    -0.148 A  
HETATM   20  C   UNL     1      -8.552   6.492  69.799  1.00  0.00    -0.136 A  
BRANCH  18  21
HETATM   21  O   UNL     1      -9.057   4.243  69.351  1.00  0.00    -0.096 OA 
BRANCH  21  22
HETATM   22  C   UNL     1      -9.410   3.764  68.052  1.00  0.00    -0.179 C  
BRANCH  22  23
HETATM   23  C   UNL     1      -9.366   2.247  67.991  1.00  0.00    -0.251 C  
BRANCH  23  24
HETATM   24  C   UNL     1      -8.333   1.694  66.999  1.00  0.00    -0.083 C  
BRANCH  24  25
HETATM   25  C   UNL     1      -7.716   2.866  66.230  1.00  0.00    -0.077 C  
BRANCH  25  26
HETATM   26  C   UNL     1      -7.870   2.835  64.698  1.00  0.00    -0.078 C  
HETATM   27  C   UNL     1      -9.354   2.624  64.342  1.00  0.00    -0.135 C  
HETATM   28  C   UNL     1     -10.172   3.907  64.485  1.00  0.00    -0.223 C  
HETATM   29  N   UNL     1      -9.634   4.945  63.612  1.00  0.00    -0.328 NA 
HETATM   30  H   UNL     1     -10.232   5.772  63.599  1.00  0.00     0.000 HD 
HETATM   31  C   UNL     1      -8.259   5.281  63.980  1.00  0.00    -0.131 C  
HETATM   32  C   UNL     1      -7.330   4.066  63.951  1.00  0.00    -0.051 C  
ENDBRANCH  25  26
ENDBRANCH  24  25
ENDBRANCH  23  24
ENDBRANCH  22  23
ENDBRANCH  21  22
ENDBRANCH  18  21
ENDBRANCH  14  15
ENDBRANCH  10  14
ENDBRANCH   8  10
ENDBRANCH   5   8
ENDBRANCH   4   5
ENDBRANCH   3   4
ENDBRANCH   2   3
TORSDOF 13
ENDMDL
MODEL      217
REMARK 921   NORMALIZED FREE ENERGY PREDICTED BY IDOCK:   -3.51 KCAL/MOL
REMARK 922        TOTAL FREE ENERGY PREDICTED BY IDOCK:   -8.73 KCAL/MOL
REMARK 923 INTER-LIGAND FREE ENERGY PREDICTED BY IDOCK:   -7.62 KCAL/MOL
REMARK 924 INTRA-LIGAND FREE ENERGY PREDICTED BY IDOCK:   -1.11 KCAL/MOL
REMARK 927      BINDING AFFINITY PREDICTED BY RF-SCORE:    0.00 PKD
ROOT
HETATM    1  C   UNL     1      -6.849  17.671  69.213  1.00  0.00    -0.194 C  
HETATM    2  C   UNL     1      -6.597  19.082  68.685  1.00  0.00    -0.291 C  
ENDROOT
BRANCH   2   3
HETATM    3  C   UNL     1      -7.751  19.473  67.779  1.00  0.00    -0.321 C  
BRANCH   3   4
HETATM    4  C   UNL     1      -9.031  18.641  67.897  1.00  0.00    -0.287 C  
BRANCH   4   5
HETATM    5  S   UNL     1      -9.201  17.803  66.307  1.00  0.00    -0.124 S  
HETATM    6  O   UNL     1     -10.466  18.180  65.720  1.00  0.00    -0.584 OA 
HETATM    7  O   UNL     1      -7.952  17.983  65.608  1.00  0.00    -0.514 OA 
BRANCH   5   8
HETATM    8  N   UNL     1      -9.358  16.146  66.660  1.00  0.00    -0.225 N  
HETATM    9  H   UNL     1      -8.581  15.485  66.693  1.00  0.00     0.000 HD 
BRANCH   8  10
HETATM   10  C   UNL     1     -10.837  15.780  66.924  1.00  0.00    -0.265 C  
HETATM   11  C   UNL     1     -11.046  15.578  68.426  1.00  0.00    -0.315 C  
HETATM   12  O   UNL     1     -12.116  15.712  68.999  1.00  0.00    -0.337 OA 
HETATM   13  O   UNL     1      -9.906  15.230  69.074  1.00  0.00    -0.208 OA 
BRANCH  10  14
HETATM   14  C   UNL     1     -11.359  14.548  66.161  1.00  0.00    -0.348 C  
BRANCH  14  15
HETATM   15  C   UNL     1     -11.023  13.229  66.810  1.00  0.00    -0.302 A  
HETATM   16  C   UNL     1     -12.028  12.584  67.539  1.00  0.00    -0.287 A  
HETATM   17  C   UNL     1     -11.716  11.499  68.353  1.00  0.00    -0.372 A  
HETATM   18  C   UNL     1     -10.398  11.052  68.466  1.00  0.00    -0.190 A  
HETATM   19  C   UNL     1      -9.739  12.666  66.791  1.00  0.00    -0.240 A  
HETATM   20  C   UNL     1      -9.423  11.595  67.632  1.00  0.00    -0.177 A  
BRANCH  18  21
HETATM   21  O   UNL     1      -9.966  10.117  69.374  1.00  0.00    -0.204 OA 
BRANCH  21  22
HETATM   22  C   UNL     1     -10.497   8.810  69.149  1.00  0.00    -0.217 C  
BRANCH  22  23
HETATM   23  C   UNL     1     -10.671   8.052  70.454  1.00  0.00    -0.233 C  
BRANCH  23  24
HETATM   24  C   UNL     1      -9.760   6.824  70.586  1.00  0.00    -0.180 C  
BRANCH  24  25
HETATM   25  C   UNL     1      -8.803   6.793  69.391  1.00  0.00    -0.135 C  
BRANCH  25  26
HETATM   26  C   UNL     1      -8.703   5.459  68.629  1.00  0.00    -0.097 C  
HETATM   27  C   UNL     1     -10.122   4.958  68.297  1.00  0.00    -0.143 C  
HETATM   28  C   UNL     1     -10.731   5.694  67.104  1.00  0.00    -0.232 C  
HETATM   29  N   UNL     1      -9.894   5.515  65.923  1.00  0.00    -0.352 NA 
HETATM   30  H   UNL     1     -10.338   5.894  65.086  1.00  0.00     0.000 HD 
HETATM   31  C   UNL     1      -8.563   6.084  66.131  1.00  0.00    -0.142 C  
HETATM   32  C   UNL     1      -7.852   5.487  67.348  1.00  0.00    -0.101 C  
ENDBRANCH  25  26
ENDBRANCH  24  25
ENDBRANCH  23  24
ENDBRANCH  22  23
ENDBRANCH  21  22
ENDBRANCH  18  21
ENDBRANCH  14  15
ENDBRANCH  10  14
ENDBRANCH   8  10
ENDBRANCH   5   8
ENDBRANCH   4   5
ENDBRANCH   3   4
ENDBRANCH   2   3
TORSDOF 13
ENDMDL
MODEL      218
REMARK 921   NORMALIZED FREE ENERGY PREDICTED BY IDOCK:   -3.51 KCAL/MOL
REMARK 922        TOTAL FREE ENERGY PREDICTED BY IDOCK:   -8.72 KCAL/MOL
REMARK 923 INTER-LIGAND FREE ENERGY PREDICTED BY IDOCK:   -7.86 KCAL/MOL
REMARK 924 INTRA-LIGAND FREE ENERGY PREDICTED BY IDOCK:   -0.86 KCAL/MOL
REMARK 927      BINDING AFFINITY PREDICTED BY RF-SCORE:    0.00 PKD
ROOT
HETATM    1  C   UNL     1     -10.717   3.847  64.388  1.00  0.00    -0.200 C  
HETATM    2  C   UNL     1      -9.578   3.529  65.353  1.00  0.00    -0.132 C  
ENDROOT
BRANCH   2   3
HETATM    3  C   UNL     1      -9.849   4.235  66.671  1.00  0.00    -0.236 C  
BRANCH   3   4
HETATM    4  C   UNL     1      -8.625   4.677  67.479  1.00  0.00    -0.103 C  
BRANCH   4   5
HETATM    5  S   UNL     1      -8.636   6.481  67.407  1.00  0.00    -0.118 S  
HETATM    6  O   UNL     1      -7.459   6.976  68.083  1.00  0.00    -0.094 OA 
HETATM    7  O   UNL     1      -8.942   6.840  66.044  1.00  0.00    -0.153 OA 
BRANCH   5   8
HETATM    8  N   UNL     1      -9.942   6.985  68.376  1.00  0.00    -0.150 N  
HETATM    9  H   UNL     1     -10.912   7.028  68.063  1.00  0.00     0.000 HD 
BRANCH   8  10
HETATM   10  C   UNL     1      -9.456   7.368  69.794  1.00  0.00    -0.159 C  
HETATM   11  C   UNL     1     -10.476   6.881  70.824  1.00  0.00    -0.216 C  
HETATM   12  O   UNL     1     -10.214   6.631  71.991  1.00  0.00    -0.188 OA 
HETATM   13  O   UNL     1     -11.724   6.749  70.309  1.00  0.00    -0.363 OA 
BRANCH  10  14
HETATM   14  C   UNL     1      -9.177   8.866  70.013  1.00  0.00    -0.183 C  
BRANCH  14  15
HETATM   15  C   UNL     1     -10.139   9.786  69.306  1.00  0.00    -0.207 A  
HETATM   16  C   UNL     1      -9.890  10.087  67.962  1.00  0.00    -0.164 A  
HETATM   17  C   UNL     1     -10.594  11.109  67.331  1.00  0.00    -0.272 A  
HETATM   18  C   UNL     1     -11.544  11.855  68.032  1.00  0.00    -0.332 A  
HETATM   19  C   UNL     1     -11.214  10.419  69.949  1.00  0.00    -0.371 A  
HETATM   20  C   UNL     1     -11.899  11.463  69.322  1.00  0.00    -0.417 A  
BRANCH  18  21
HETATM   21  O   UNL     1     -12.153  12.989  67.556  1.00  0.00    -0.333 OA 
BRANCH  21  22
HETATM   22  C   UNL     1     -12.060  14.106  68.442  1.00  0.00    -0.273 C  
BRANCH  22  23
HETATM   23  C   UNL     1     -11.290  15.252  67.808  1.00  0.00    -0.331 C  
BRANCH  23  24
HETATM   24  C   UNL     1     -10.321  15.957  68.768  1.00  0.00    -0.228 C  
BRANCH  24  25
HETATM   25  C   UNL     1     -10.192  17.423  68.343  1.00  0.00    -0.362 C  
BRANCH  25  26
HETATM   26  C   UNL     1      -9.988  17.684  66.839  1.00  0.00    -0.323 C  
HETATM   27  C   UNL     1     -10.727  18.978  66.445  1.00  0.00    -0.410 C  
HETATM   28  C   UNL     1      -9.955  20.232  66.855  1.00  0.00    -0.452 C  
HETATM   29  N   UNL     1      -8.641  20.242  66.222  1.00  0.00    -0.553 NA 
HETATM   30  H   UNL     1      -8.154  21.124  66.382  1.00  0.00     0.000 HD 
HETATM   31  C   UNL     1      -7.840  19.097  66.653  1.00  0.00    -0.267 C  
HETATM   32  C   UNL     1      -8.526  17.760  66.369  1.00  0.00    -0.270 C  
ENDBRANCH  25  26
ENDBRANCH  24  25
ENDBRANCH  23  24
ENDBRANCH  22  23
ENDBRANCH  21  22
ENDBRANCH  18  21
ENDBRANCH  14  15
ENDBRANCH  10  14
ENDBRANCH   8  10
ENDBRANCH   5   8
ENDBRANCH   4   5
ENDBRANCH   3   4
ENDBRANCH   2   3
TORSDOF 13
ENDMDL
MODEL      219
REMARK 921   NORMALIZED FREE ENERGY PREDICTED BY IDOCK:   -3.50 KCAL/MOL
REMARK 922        TOTAL FREE ENERGY PREDICTED BY IDOCK:   -8.71 KCAL/MOL
REMARK 923 INTER-LIGAND FREE ENERGY PREDICTED BY IDOCK:   -6.72 KCAL/MOL
REMARK 924 INTRA-LIGAND FREE ENERGY PREDICTED BY IDOCK:   -1.99 KCAL/MOL
REMARK 927      BINDING AFFINITY PREDICTED BY RF-SCORE:    0.00 PKD
ROOT
HETATM    1  C   UNL     1      -6.381   9.729  69.315  1.00  0.00    -0.047 C  
HETATM    2  C   UNL     1      -7.576   9.825  70.260  1.00  0.00    -0.184 C  
ENDROOT
BRANCH   2   3
HETATM    3  C   UNL     1      -7.525   8.653  71.225  1.00  0.00    -0.117 C  
BRANCH   3   4
HETATM    4  C   UNL     1      -8.788   8.386  72.050  1.00  0.00    -0.211 C  
BRANCH   4   5
HETATM    5  S   UNL     1      -8.347   7.038  73.169  1.00  0.00    -0.114 S  
HETATM    6  O   UNL     1      -6.933   6.774  73.037  1.00  0.00    -0.074 OA 
HETATM    7  O   UNL     1      -8.952   7.342  74.443  1.00  0.00    -0.216 OA 
BRANCH   5   8
HETATM    8  N   UNL     1      -9.112   5.647  72.556  1.00  0.00    -0.136 N  
HETATM    9  H   UNL     1      -8.923   4.695  72.871  1.00  0.00     0.000 HD 
BRANCH   8  10
HETATM   10  C   UNL     1     -10.133   6.023  71.456  1.00  0.00    -0.192 C  
HETATM   11  C   UNL     1     -11.540   6.027  72.055  1.00  0.00    -0.276 C  
HETATM   12  O   UNL     1     -12.478   6.674  71.614  1.00  0.00    -0.352 OA 
HETATM   13  O   UNL     1     -11.651   5.229  73.147  1.00  0.00    -0.297 OA 
BRANCH  10  14
HETATM   14  C   UNL     1     -10.110   5.131  70.201  1.00  0.00    -0.342 C  
BRANCH  14  15
HETATM   15  C   UNL     1      -9.910   5.884  68.910  1.00  0.00    -0.183 A  
HETATM   16  C   UNL     1      -8.612   6.293  68.585  1.00  0.00    -0.121 A  
HETATM   17  C   UNL     1      -8.402   7.190  67.541  1.00  0.00    -0.116 A  
HETATM   18  C   UNL     1      -9.480   7.705  66.818  1.00  0.00    -0.191 A  
HETATM   19  C   UNL     1     -10.966   6.265  68.069  1.00  0.00    -0.418 A  
HETATM   20  C   UNL     1     -10.756   7.188  67.041  1.00  0.00    -0.420 A  
BRANCH  18  21
HETATM   21  O   UNL     1      -9.392   8.723  65.902  1.00  0.00    -0.220 OA 
BRANCH  21  22
HETATM   22  C   UNL     1     -10.222   9.845  66.209  1.00  0.00    -0.211 C  
BRANCH  22  23
HETATM   23  C   UNL     1      -9.925  10.388  67.597  1.00  0.00    -0.205 C  
BRANCH  23  24
HETATM   24  C   UNL     1      -9.268  11.775  67.594  1.00  0.00    -0.180 C  
BRANCH  24  25
HETATM   25  C   UNL     1     -10.365  12.837  67.714  1.00  0.00    -0.222 C  
BRANCH  25  26
HETATM   26  C   UNL     1      -9.981  14.268  67.298  1.00  0.00    -0.252 C  
HETATM   27  C   UNL     1     -11.256  15.129  67.205  1.00  0.00    -0.324 C  
HETATM   28  C   UNL     1     -11.756  15.570  68.580  1.00  0.00    -0.348 C  
HETATM   29  N   UNL     1     -10.727  16.347  69.264  1.00  0.00    -0.304 NA 
HETATM   30  H   UNL     1     -11.078  16.754  70.131  1.00  0.00     0.000 HD 
HETATM   31  C   UNL     1      -9.527  15.543  69.493  1.00  0.00    -0.269 C  
HETATM   32  C   UNL     1      -8.949  14.968  68.198  1.00  0.00    -0.173 C  
ENDBRANCH  25  26
ENDBRANCH  24  25
ENDBRANCH  23  24
ENDBRANCH  22  23
ENDBRANCH  21  22
ENDBRANCH  18  21
ENDBRANCH  14  15
ENDBRANCH  10  14
ENDBRANCH   8  10
ENDBRANCH   5   8
ENDBRANCH   4   5
ENDBRANCH   3   4
ENDBRANCH   2   3
TORSDOF 13
ENDMDL
MODEL      220
REMARK 921   NORMALIZED FREE ENERGY PREDICTED BY IDOCK:   -3.50 KCAL/MOL
REMARK 922        TOTAL FREE ENERGY PREDICTED BY IDOCK:   -8.70 KCAL/MOL
REMARK 923 INTER-LIGAND FREE ENERGY PREDICTED BY IDOCK:   -8.30 KCAL/MOL
REMARK 924 INTRA-LIGAND FREE ENERGY PREDICTED BY IDOCK:   -0.40 KCAL/MOL
REMARK 927      BINDING AFFINITY PREDICTED BY RF-SCORE:    0.00 PKD
ROOT
HETATM    1  C   UNL     1      -9.703   6.103  66.378  1.00  0.00    -0.152 C  
HETATM    2  C   UNL     1      -8.283   5.777  65.923  1.00  0.00    -0.121 C  
ENDROOT
BRANCH   2   3
HETATM    3  C   UNL     1      -7.537   7.080  65.696  1.00  0.00    -0.093 C  
BRANCH   3   4
HETATM    4  C   UNL     1      -8.259   8.153  64.876  1.00  0.00    -0.147 C  
BRANCH   4   5
HETATM    5  S   UNL     1      -7.991   9.697  65.774  1.00  0.00    -0.112 S  
HETATM    6  O   UNL     1      -8.754   9.656  67.000  1.00  0.00    -0.127 OA 
HETATM    7  O   UNL     1      -6.569   9.939  65.767  1.00  0.00    -0.083 OA 
BRANCH   5   8
HETATM    8  N   UNL     1      -8.724  10.919  64.843  1.00  0.00    -0.331 N  
HETATM    9  H   UNL     1      -8.216  11.599  64.276  1.00  0.00     0.000 HD 
BRANCH   8  10
HETATM   10  C   UNL     1     -10.264  10.857  64.974  1.00  0.00    -0.303 C  
HETATM   11  C   UNL     1     -10.899  11.608  63.802  1.00  0.00    -0.424 C  
HETATM   12  O   UNL     1     -12.022  11.393  63.371  1.00  0.00    -0.231 OA 
HETATM   13  O   UNL     1     -10.081  12.553  63.276  1.00  0.00    -0.373 OA 
BRANCH  10  14
HETATM   14  C   UNL     1     -10.835  11.393  66.300  1.00  0.00    -0.318 C  
BRANCH  14  15
HETATM   15  C   UNL     1     -10.767  12.892  66.444  1.00  0.00    -0.286 A  
HETATM   16  C   UNL     1      -9.526  13.466  66.738  1.00  0.00    -0.263 A  
HETATM   17  C   UNL     1      -9.445  14.802  67.119  1.00  0.00    -0.233 A  
HETATM   18  C   UNL     1     -10.598  15.581  67.227  1.00  0.00    -0.299 A  
HETATM   19  C   UNL     1     -11.896  13.723  66.383  1.00  0.00    -0.434 A  
HETATM   20  C   UNL     1     -11.815  15.057  66.794  1.00  0.00    -0.093 A  
BRANCH  18  21
HETATM   21  O   UNL     1     -10.641  16.843  67.766  1.00  0.00    -0.329 OA 
BRANCH  21  22
HETATM   22  C   UNL     1     -10.391  17.881  66.816  1.00  0.00    -0.355 C  
BRANCH  22  23
HETATM   23  C   UNL     1     -10.782  19.241  67.368  1.00  0.00    -0.594 C  
BRANCH  23  24
HETATM   24  C   UNL     1      -9.588  20.163  67.653  1.00  0.00    -0.534 C  
BRANCH  24  25
HETATM   25  C   UNL     1      -8.588  19.411  68.536  1.00  0.00    -0.401 C  
BRANCH  25  26
HETATM   26  C   UNL     1      -7.101  19.563  68.168  1.00  0.00    -0.319 C  
HETATM   27  C   UNL     1      -6.502  18.170  67.892  1.00  0.00    -0.187 C  
HETATM   28  C   UNL     1      -6.880  17.642  66.509  1.00  0.00    -0.242 C  
HETATM   29  N   UNL     1      -6.408  18.558  65.475  1.00  0.00    -0.267 NA 
HETATM   30  H   UNL     1      -6.540  18.170  64.541  1.00  0.00     0.000 HD 
HETATM   31  C   UNL     1      -7.037  19.871  65.609  1.00  0.00    -0.315 C  
HETATM   32  C   UNL     1      -6.801  20.498  66.984  1.00  0.00    -0.336 C  
ENDBRANCH  25  26
ENDBRANCH  24  25
ENDBRANCH  23  24
ENDBRANCH  22  23
ENDBRANCH  21  22
ENDBRANCH  18  21
ENDBRANCH  14  15
ENDBRANCH  10  14
ENDBRANCH   8  10
ENDBRANCH   5   8
ENDBRANCH   4   5
ENDBRANCH   3   4
ENDBRANCH   2   3
TORSDOF 13
ENDMDL
MODEL      221
REMARK 921   NORMALIZED FREE ENERGY PREDICTED BY IDOCK:   -3.49 KCAL/MOL
REMARK 922        TOTAL FREE ENERGY PREDICTED BY IDOCK:   -8.69 KCAL/MOL
REMARK 923 INTER-LIGAND FREE ENERGY PREDICTED BY IDOCK:   -6.79 KCAL/MOL
REMARK 924 INTRA-LIGAND FREE ENERGY PREDICTED BY IDOCK:   -1.90 KCAL/MOL
REMARK 927      BINDING AFFINITY PREDICTED BY RF-SCORE:    0.00 PKD
ROOT
HETATM    1  C   UNL     1     -11.378  15.858  67.576  1.00  0.00    -0.098 C  
HETATM    2  C   UNL     1     -10.743  14.726  66.771  1.00  0.00    -0.309 C  
ENDROOT
BRANCH   2   3
HETATM    3  C   UNL     1     -11.836  14.004  66.004  1.00  0.00    -0.401 C  
BRANCH   3   4
HETATM    4  C   UNL     1     -11.718  12.480  65.906  1.00  0.00    -0.426 C  
BRANCH   4   5
HETATM    5  S   UNL     1     -10.214  12.182  64.952  1.00  0.00    -0.272 S  
HETATM    6  O   UNL     1     -10.320  12.883  63.694  1.00  0.00    -0.346 OA 
HETATM    7  O   UNL     1      -9.104  12.390  65.851  1.00  0.00    -0.073 OA 
BRANCH   5   8
HETATM    8  N   UNL     1     -10.236  10.532  64.539  1.00  0.00    -0.337 N  
HETATM    9  H   UNL     1     -11.067  10.021  64.238  1.00  0.00     0.000 HD 
BRANCH   8  10
HETATM   10  C   UNL     1      -8.826   9.912  64.681  1.00  0.00    -0.204 C  
HETATM   11  C   UNL     1      -8.235   9.680  63.290  1.00  0.00    -0.158 C  
HETATM   12  O   UNL     1      -7.039   9.626  63.048  1.00  0.00    -0.102 OA 
HETATM   13  O   UNL     1      -9.184   9.539  62.331  1.00  0.00    -0.279 OA 
BRANCH  10  14
HETATM   14  C   UNL     1      -8.758   8.606  65.494  1.00  0.00    -0.219 C  
BRANCH  14  15
HETATM   15  C   UNL     1      -9.167   8.753  66.938  1.00  0.00    -0.195 A  
HETATM   16  C   UNL     1     -10.533   8.735  67.237  1.00  0.00    -0.353 A  
HETATM   17  C   UNL     1     -10.978   9.105  68.503  1.00  0.00     0.003 A  
HETATM   18  C   UNL     1     -10.071   9.513  69.484  1.00  0.00    -0.206 A  
HETATM   19  C   UNL     1      -8.254   8.992  67.976  1.00  0.00    -0.110 A  
HETATM   20  C   UNL     1      -8.705   9.391  69.238  1.00  0.00    -0.145 A  
BRANCH  18  21
HETATM   21  O   UNL     1     -10.422  10.065  70.690  1.00  0.00    -0.276 OA 
BRANCH  21  22
HETATM   22  C   UNL     1     -11.531   9.418  71.317  1.00  0.00    -0.363 C  
BRANCH  22  23
HETATM   23  C   UNL     1     -11.148   8.043  71.836  1.00  0.00    -0.333 C  
BRANCH  23  24
HETATM   24  C   UNL     1     -12.074   6.917  71.358  1.00  0.00    -0.408 C  
BRANCH  24  25
HETATM   25  C   UNL     1     -11.302   6.031  70.376  1.00  0.00    -0.322 C  
BRANCH  25  26
HETATM   26  C   UNL     1      -9.798   5.850  70.655  1.00  0.00    -0.230 C  
HETATM   27  C   UNL     1      -9.601   4.668  71.624  1.00  0.00    -0.221 C  
HETATM   28  C   UNL     1      -9.721   3.317  70.919  1.00  0.00    -0.117 C  
HETATM   29  N   UNL     1      -8.723   3.214  69.859  1.00  0.00    -0.068 NA 
HETATM   30  H   UNL     1      -8.702   2.278  69.453  1.00  0.00     0.000 HD 
HETATM   31  C   UNL     1      -8.932   4.239  68.837  1.00  0.00    -0.109 C  
HETATM   32  C   UNL     1      -8.910   5.656  69.415  1.00  0.00    -0.114 C  
ENDBRANCH  25  26
ENDBRANCH  24  25
ENDBRANCH  23  24
ENDBRANCH  22  23
ENDBRANCH  21  22
ENDBRANCH  18  21
ENDBRANCH  14  15
ENDBRANCH  10  14
ENDBRANCH   8  10
ENDBRANCH   5   8
ENDBRANCH   4   5
ENDBRANCH   3   4
ENDBRANCH   2   3
TORSDOF 13
ENDMDL
MODEL      222
REMARK 921   NORMALIZED FREE ENERGY PREDICTED BY IDOCK:   -3.49 KCAL/MOL
REMARK 922        TOTAL FREE ENERGY PREDICTED BY IDOCK:   -8.68 KCAL/MOL
REMARK 923 INTER-LIGAND FREE ENERGY PREDICTED BY IDOCK:   -7.34 KCAL/MOL
REMARK 924 INTRA-LIGAND FREE ENERGY PREDICTED BY IDOCK:   -1.33 KCAL/MOL
REMARK 927      BINDING AFFINITY PREDICTED BY RF-SCORE:    0.00 PKD
ROOT
HETATM    1  C   UNL     1      -6.192  15.057  67.959  1.00  0.00    -0.161 C  
HETATM    2  C   UNL     1      -7.271  16.130  67.835  1.00  0.00    -0.144 C  
ENDROOT
BRANCH   2   3
HETATM    3  C   UNL     1      -8.431  15.560  67.037  1.00  0.00    -0.266 C  
BRANCH   3   4
HETATM    4  C   UNL     1      -8.802  16.292  65.744  1.00  0.00     0.032 C  
BRANCH   4   5
HETATM    5  S   UNL     1     -10.606  16.392  65.757  1.00  0.00    -0.261 S  
HETATM    6  O   UNL     1     -11.007  17.347  66.764  1.00  0.00    -0.051 OA 
HETATM    7  O   UNL     1     -11.024  16.513  64.381  1.00  0.00    -0.872 OA 
BRANCH   5   8
HETATM    8  N   UNL     1     -11.158  14.889  66.332  1.00  0.00    -0.341 N  
HETATM    9  H   UNL     1     -11.322  14.669  67.314  1.00  0.00     0.000 HD 
BRANCH   8  10
HETATM   10  C   UNL     1     -11.377  13.902  65.161  1.00  0.00    -0.318 C  
HETATM   11  C   UNL     1     -12.534  12.963  65.503  1.00  0.00    -0.402 C  
HETATM   12  O   UNL     1     -13.227  12.390  64.676  1.00  0.00    -0.822 OA 
HETATM   13  O   UNL     1     -12.724  12.826  66.839  1.00  0.00     0.080 OA 
BRANCH  10  14
HETATM   14  C   UNL     1     -10.143  13.074  64.757  1.00  0.00    -0.239 C  
BRANCH  14  15
HETATM   15  C   UNL     1      -9.761  12.007  65.751  1.00  0.00    -0.254 A  
HETATM   16  C   UNL     1      -9.999  10.673  65.403  1.00  0.00    -0.343 A  
HETATM   17  C   UNL     1      -9.895   9.670  66.363  1.00  0.00    -0.309 A  
HETATM   18  C   UNL     1      -9.568   9.982  67.684  1.00  0.00    -0.148 A  
HETATM   19  C   UNL     1      -9.262  12.290  67.031  1.00  0.00    -0.205 A  
HETATM   20  C   UNL     1      -9.186  11.285  67.999  1.00  0.00    -0.160 A  
BRANCH  18  21
HETATM   21  O   UNL     1      -9.618   9.097  68.732  1.00  0.00    -0.155 OA 
BRANCH  21  22
HETATM   22  C   UNL     1      -8.390   8.991  69.454  1.00  0.00    -0.119 C  
BRANCH  22  23
HETATM   23  C   UNL     1      -8.547   9.479  70.884  1.00  0.00     0.007 C  
BRANCH  23  24
HETATM   24  C   UNL     1      -9.824   8.980  71.575  1.00  0.00    -0.381 C  
BRANCH  24  25
HETATM   25  C   UNL     1      -9.580   7.558  72.088  1.00  0.00    -0.190 C  
BRANCH  25  26
HETATM   26  C   UNL     1     -10.766   6.581  71.987  1.00  0.00    -0.253 C  
HETATM   27  C   UNL     1     -11.332   6.618  70.554  1.00  0.00    -0.413 C  
HETATM   28  C   UNL     1     -10.477   5.817  69.573  1.00  0.00    -0.293 C  
HETATM   29  N   UNL     1     -10.397   4.423  69.999  1.00  0.00     0.093 NA 
HETATM   30  H   UNL     1      -9.934   3.843  69.300  1.00  0.00     0.000 HD 
HETATM   31  C   UNL     1      -9.753   4.309  71.307  1.00  0.00    -0.185 C  
HETATM   32  C   UNL     1     -10.466   5.127  72.386  1.00  0.00    -0.272 C  
ENDBRANCH  25  26
ENDBRANCH  24  25
ENDBRANCH  23  24
ENDBRANCH  22  23
ENDBRANCH  21  22
ENDBRANCH  18  21
ENDBRANCH  14  15
ENDBRANCH  10  14
ENDBRANCH   8  10
ENDBRANCH   5   8
ENDBRANCH   4   5
ENDBRANCH   3   4
ENDBRANCH   2   3
TORSDOF 13
ENDMDL
MODEL      223
REMARK 921   NORMALIZED FREE ENERGY PREDICTED BY IDOCK:   -3.47 KCAL/MOL
REMARK 922        TOTAL FREE ENERGY PREDICTED BY IDOCK:   -8.65 KCAL/MOL
REMARK 923 INTER-LIGAND FREE ENERGY PREDICTED BY IDOCK:   -7.85 KCAL/MOL
REMARK 924 INTRA-LIGAND FREE ENERGY PREDICTED BY IDOCK:   -0.81 KCAL/MOL
REMARK 927      BINDING AFFINITY PREDICTED BY RF-SCORE:    0.00 PKD
ROOT
HETATM    1  C   UNL     1      -9.786  20.275  67.222  1.00  0.00    -0.593 C  
HETATM    2  C   UNL     1      -8.721  19.606  66.357  1.00  0.00    -0.404 C  
ENDROOT
BRANCH   2   3
HETATM    3  C   UNL     1      -8.536  18.177  66.835  1.00  0.00    -0.265 C  
BRANCH   3   4
HETATM    4  C   UNL     1      -9.132  17.826  68.202  1.00  0.00    -0.274 C  
BRANCH   4   5
HETATM    5  S   UNL     1     -10.412  16.599  67.860  1.00  0.00    -0.331 S  
HETATM    6  O   UNL     1     -11.648  17.044  68.461  1.00  0.00     0.083 OA 
HETATM    7  O   UNL     1     -10.317  16.281  66.456  1.00  0.00    -0.293 OA 
BRANCH   5   8
HETATM    8  N   UNL     1      -9.976  15.206  68.733  1.00  0.00    -0.221 N  
HETATM    9  H   UNL     1      -9.604  15.210  69.683  1.00  0.00     0.000 HD 
BRANCH   8  10
HETATM   10  C   UNL     1     -10.221  13.932  67.889  1.00  0.00    -0.241 C  
HETATM   11  C   UNL     1     -11.686  13.514  68.021  1.00  0.00    -0.359 C  
HETATM   12  O   UNL     1     -12.295  12.857  67.190  1.00  0.00    -0.339 OA 
HETATM   13  O   UNL     1     -12.257  13.951  69.172  1.00  0.00    -0.356 OA 
BRANCH  10  14
HETATM   14  C   UNL     1      -9.311  12.735  68.223  1.00  0.00    -0.194 C  
BRANCH  14  15
HETATM   15  C   UNL     1      -9.787  11.419  67.661  1.00  0.00    -0.189 A  
HETATM   16  C   UNL     1     -10.511  10.571  68.506  1.00  0.00    -0.210 A  
HETATM   17  C   UNL     1     -10.764   9.256  68.127  1.00  0.00    -0.205 A  
HETATM   18  C   UNL     1     -10.288   8.762  66.910  1.00  0.00    -0.274 A  
HETATM   19  C   UNL     1      -9.467  10.972  66.371  1.00  0.00    -0.218 A  
HETATM   20  C   UNL     1      -9.697   9.643  66.005  1.00  0.00    -0.331 A  
BRANCH  18  21
HETATM   21  O   UNL     1     -10.328   7.443  66.533  1.00  0.00    -0.191 OA 
BRANCH  21  22
HETATM   22  C   UNL     1      -9.052   6.799  66.560  1.00  0.00    -0.151 C  
BRANCH  22  23
HETATM   23  C   UNL     1      -8.882   5.965  67.818  1.00  0.00    -0.109 C  
BRANCH  23  24
HETATM   24  C   UNL     1      -8.140   6.689  68.949  1.00  0.00    -0.116 C  
BRANCH  24  25
HETATM   25  C   UNL     1      -8.865   6.407  70.269  1.00  0.00    -0.151 C  
BRANCH  25  26
HETATM   26  C   UNL     1     -10.129   7.241  70.546  1.00  0.00    -0.195 C  
HETATM   27  C   UNL     1     -11.323   6.292  70.768  1.00  0.00    -0.397 C  
HETATM   28  C   UNL     1     -11.319   5.674  72.165  1.00  0.00    -0.214 C  
HETATM   29  N   UNL     1     -11.372   6.722  73.178  1.00  0.00    -0.498 NA 
HETATM   30  H   UNL     1     -11.492   6.334  74.114  1.00  0.00     0.000 HD 
HETATM   31  C   UNL     1     -10.197   7.589  73.100  1.00  0.00    -0.327 C  
HETATM   32  C   UNL     1     -10.030   8.229  71.721  1.00  0.00    -0.284 C  
ENDBRANCH  25  26
ENDBRANCH  24  25
ENDBRANCH  23  24
ENDBRANCH  22  23
ENDBRANCH  21  22
ENDBRANCH  18  21
ENDBRANCH  14  15
ENDBRANCH  10  14
ENDBRANCH   8  10
ENDBRANCH   5   8
ENDBRANCH   4   5
ENDBRANCH   3   4
ENDBRANCH   2   3
TORSDOF 13
ENDMDL
MODEL      224
REMARK 921   NORMALIZED FREE ENERGY PREDICTED BY IDOCK:   -3.47 KCAL/MOL
REMARK 922        TOTAL FREE ENERGY PREDICTED BY IDOCK:   -8.65 KCAL/MOL
REMARK 923 INTER-LIGAND FREE ENERGY PREDICTED BY IDOCK:   -6.49 KCAL/MOL
REMARK 924 INTRA-LIGAND FREE ENERGY PREDICTED BY IDOCK:   -2.16 KCAL/MOL
REMARK 927      BINDING AFFINITY PREDICTED BY RF-SCORE:    0.00 PKD
ROOT
HETATM    1  C   UNL     1     -10.914   5.621  69.899  1.00  0.00    -0.309 C  
HETATM    2  C   UNL     1     -10.464   6.072  68.511  1.00  0.00    -0.287 C  
ENDROOT
BRANCH   2   3
HETATM    3  C   UNL     1      -9.742   7.401  68.645  1.00  0.00    -0.152 C  
BRANCH   3   4
HETATM    4  C   UNL     1     -10.444   8.486  69.468  1.00  0.00    -0.220 C  
BRANCH   4   5
HETATM    5  S   UNL     1      -9.702  10.043  68.931  1.00  0.00    -0.191 S  
HETATM    6  O   UNL     1      -8.900   9.790  67.757  1.00  0.00    -0.128 OA 
HETATM    7  O   UNL     1     -10.755  11.029  68.939  1.00  0.00    -0.188 OA 
BRANCH   5   8
HETATM    8  N   UNL     1      -8.585  10.475  70.140  1.00  0.00    -0.144 N  
HETATM    9  H   UNL     1      -8.798  11.073  70.939  1.00  0.00     0.000 HD 
BRANCH   8  10
HETATM   10  C   UNL     1      -7.203   9.838  69.862  1.00  0.00    -0.116 C  
HETATM   11  C   UNL     1      -6.973   8.686  70.841  1.00  0.00    -0.064 C  
HETATM   12  O   UNL     1      -6.233   7.737  70.631  1.00  0.00    -0.037 OA 
HETATM   13  O   UNL     1      -7.685   8.819  71.989  1.00  0.00    -0.290 OA 
BRANCH  10  14
HETATM   14  C   UNL     1      -6.007  10.807  69.917  1.00  0.00    -0.082 C  
BRANCH  14  15
HETATM   15  C   UNL     1      -6.265  12.147  69.276  1.00  0.00    -0.097 A  
HETATM   16  C   UNL     1      -6.155  13.288  70.079  1.00  0.00    -0.122 A  
HETATM   17  C   UNL     1      -6.612  14.518  69.614  1.00  0.00    -0.153 A  
HETATM   18  C   UNL     1      -7.200  14.626  68.352  1.00  0.00    -0.117 A  
HETATM   19  C   UNL     1      -6.692  12.297  67.949  1.00  0.00    -0.093 A  
HETATM   20  C   UNL     1      -7.177  13.527  67.495  1.00  0.00    -0.165 A  
BRANCH  18  21
HETATM   21  O   UNL     1      -7.840  15.746  67.882  1.00  0.00    -0.132 OA 
BRANCH  21  22
HETATM   22  C   UNL     1      -9.225  15.537  67.595  1.00  0.00    -0.190 C  
BRANCH  22  23
HETATM   23  C   UNL     1      -9.860  16.783  67.001  1.00  0.00    -0.262 C  
BRANCH  23  24
HETATM   24  C   UNL     1     -10.573  16.541  65.664  1.00  0.00    -0.317 C  
BRANCH  24  25
HETATM   25  C   UNL     1     -10.108  15.196  65.097  1.00  0.00    -0.331 C  
BRANCH  25  26
HETATM   26  C   UNL     1     -11.209  14.258  64.571  1.00  0.00    -0.331 C  
HETATM   27  C   UNL     1     -10.602  12.868  64.295  1.00  0.00    -0.430 C  
HETATM   28  C   UNL     1     -10.405  12.059  65.576  1.00  0.00    -0.263 C  
HETATM   29  N   UNL     1     -11.683  11.875  66.256  1.00  0.00    -0.520 NA 
HETATM   30  H   UNL     1     -11.599  11.238  67.048  1.00  0.00     0.000 HD 
HETATM   31  C   UNL     1     -12.256  13.160  66.656  1.00  0.00    -0.267 C  
HETATM   32  C   UNL     1     -12.446  14.112  65.473  1.00  0.00    -0.495 C  
ENDBRANCH  25  26
ENDBRANCH  24  25
ENDBRANCH  23  24
ENDBRANCH  22  23
ENDBRANCH  21  22
ENDBRANCH  18  21
ENDBRANCH  14  15
ENDBRANCH  10  14
ENDBRANCH   8  10
ENDBRANCH   5   8
ENDBRANCH   4   5
ENDBRANCH   3   4
ENDBRANCH   2   3
TORSDOF 13
ENDMDL
MODEL      225
REMARK 921   NORMALIZED FREE ENERGY PREDICTED BY IDOCK:   -3.46 KCAL/MOL
REMARK 922        TOTAL FREE ENERGY PREDICTED BY IDOCK:   -8.64 KCAL/MOL
REMARK 923 INTER-LIGAND FREE ENERGY PREDICTED BY IDOCK:   -8.51 KCAL/MOL
REMARK 924 INTRA-LIGAND FREE ENERGY PREDICTED BY IDOCK:   -0.13 KCAL/MOL
REMARK 927      BINDING AFFINITY PREDICTED BY RF-SCORE:    0.00 PKD
ROOT
HETATM    1  C   UNL     1      -6.520  13.444  67.822  1.00  0.00    -0.165 C  
HETATM    2  C   UNL     1      -8.041  13.411  67.694  1.00  0.00    -0.175 C  
ENDROOT
BRANCH   2   3
HETATM    3  C   UNL     1      -8.465  14.471  66.692  1.00  0.00    -0.006 C  
BRANCH   3   4
HETATM    4  C   UNL     1      -9.626  15.382  67.104  1.00  0.00    -0.212 C  
BRANCH   4   5
HETATM    5  S   UNL     1     -10.706  15.456  65.658  1.00  0.00    -0.387 S  
HETATM    6  O   UNL     1     -12.067  15.239  66.089  1.00  0.00     0.169 OA 
HETATM    7  O   UNL     1     -10.319  16.629  64.911  1.00  0.00    -0.577 OA 
BRANCH   5   8
HETATM    8  N   UNL     1     -10.323  14.095  64.712  1.00  0.00    -0.525 N  
HETATM    9  H   UNL     1      -9.521  14.033  64.083  1.00  0.00     0.000 HD 
BRANCH   8  10
HETATM   10  C   UNL     1     -11.355  12.965  64.935  1.00  0.00    -0.307 C  
HETATM   11  C   UNL     1     -12.354  12.959  63.777  1.00  0.00    -0.417 C  
HETATM   12  O   UNL     1     -12.994  11.981  63.420  1.00  0.00    -0.772 OA 
HETATM   13  O   UNL     1     -12.463  14.168  63.169  1.00  0.00    -0.678 OA 
BRANCH  10  14
HETATM   14  C   UNL     1     -12.117  13.022  66.272  1.00  0.00    -0.453 C  
BRANCH  14  15
HETATM   15  C   UNL     1     -11.541  12.142  67.352  1.00  0.00    -0.410 A  
HETATM   16  C   UNL     1     -10.964  10.927  66.968  1.00  0.00    -0.310 A  
HETATM   17  C   UNL     1     -10.637   9.973  67.928  1.00  0.00    -0.298 A  
HETATM   18  C   UNL     1     -10.895  10.208  69.280  1.00  0.00    -0.235 A  
HETATM   19  C   UNL     1     -11.632  12.442  68.720  1.00  0.00    -0.373 A  
HETATM   20  C   UNL     1     -11.331  11.471  69.679  1.00  0.00    -0.329 A  
BRANCH  18  21
HETATM   21  O   UNL     1     -10.779   9.267  70.272  1.00  0.00    -0.215 OA 
BRANCH  21  22
HETATM   22  C   UNL     1      -9.448   9.120  70.772  1.00  0.00    -0.272 C  
BRANCH  22  23
HETATM   23  C   UNL     1      -8.983   7.677  70.688  1.00  0.00    -0.153 C  
BRANCH  23  24
HETATM   24  C   UNL     1      -9.887   6.781  69.831  1.00  0.00    -0.174 C  
BRANCH  24  25
HETATM   25  C   UNL     1      -9.168   5.450  69.587  1.00  0.00    -0.153 C  
BRANCH  25  26
HETATM   26  C   UNL     1      -8.381   5.330  68.269  1.00  0.00    -0.097 C  
HETATM   27  C   UNL     1      -8.148   3.839  67.953  1.00  0.00    -0.084 C  
HETATM   28  C   UNL     1      -9.393   3.170  67.372  1.00  0.00    -0.191 C  
HETATM   29  N   UNL     1      -9.796   3.843  66.141  1.00  0.00    -0.369 NA 
HETATM   30  H   UNL     1     -10.550   3.343  65.670  1.00  0.00     0.000 HD 
HETATM   31  C   UNL     1     -10.152   5.238  66.397  1.00  0.00    -0.226 C  
HETATM   32  C   UNL     1      -9.013   6.024  67.051  1.00  0.00    -0.113 C  
ENDBRANCH  25  26
ENDBRANCH  24  25
ENDBRANCH  23  24
ENDBRANCH  22  23
ENDBRANCH  21  22
ENDBRANCH  18  21
ENDBRANCH  14  15
ENDBRANCH  10  14
ENDBRANCH   8  10
ENDBRANCH   5   8
ENDBRANCH   4   5
ENDBRANCH   3   4
ENDBRANCH   2   3
TORSDOF 13
ENDMDL
MODEL      226
REMARK 921   NORMALIZED FREE ENERGY PREDICTED BY IDOCK:   -3.45 KCAL/MOL
REMARK 922        TOTAL FREE ENERGY PREDICTED BY IDOCK:   -8.61 KCAL/MOL
REMARK 923 INTER-LIGAND FREE ENERGY PREDICTED BY IDOCK:   -7.62 KCAL/MOL
REMARK 924 INTRA-LIGAND FREE ENERGY PREDICTED BY IDOCK:   -0.99 KCAL/MOL
REMARK 927      BINDING AFFINITY PREDICTED BY RF-SCORE:    0.00 PKD
ROOT
HETATM    1  C   UNL     1     -12.485  11.515  70.581  1.00  0.00    -0.405 C  
HETATM    2  C   UNL     1     -13.137  10.409  71.407  1.00  0.00    -0.512 C  
ENDROOT
BRANCH   2   3
HETATM    3  C   UNL     1     -12.321   9.138  71.245  1.00  0.00    -0.382 C  
BRANCH   3   4
HETATM    4  C   UNL     1     -11.145   9.196  70.265  1.00  0.00    -0.239 C  
BRANCH   4   5
HETATM    5  S   UNL     1     -10.153   7.731  70.627  1.00  0.00    -0.191 S  
HETATM    6  O   UNL     1      -9.169   8.077  71.627  1.00  0.00    -0.134 OA 
HETATM    7  O   UNL     1     -11.078   6.639  70.811  1.00  0.00    -0.252 OA 
BRANCH   5   8
HETATM    8  N   UNL     1      -9.253   7.410  69.219  1.00  0.00    -0.148 N  
HETATM    9  H   UNL     1      -8.297   7.728  69.057  1.00  0.00     0.000 HD 
BRANCH   8  10
HETATM   10  C   UNL     1     -10.083   6.572  68.219  1.00  0.00    -0.159 C  
HETATM   11  C   UNL     1      -9.262   5.361  67.774  1.00  0.00    -0.109 C  
HETATM   12  O   UNL     1      -9.741   4.314  67.362  1.00  0.00    -0.184 OA 
HETATM   13  O   UNL     1      -7.924   5.561  67.883  1.00  0.00    -0.096 OA 
BRANCH  10  14
HETATM   14  C   UNL     1     -10.590   7.334  66.980  1.00  0.00    -0.415 C  
BRANCH  14  15
HETATM   15  C   UNL     1     -10.052   8.736  66.852  1.00  0.00    -0.348 A  
HETATM   16  C   UNL     1      -8.676   8.893  66.651  1.00  0.00    -0.140 A  
HETATM   17  C   UNL     1      -8.091  10.151  66.767  1.00  0.00    -0.119 A  
HETATM   18  C   UNL     1      -8.863  11.266  67.100  1.00  0.00    -0.153 A  
HETATM   19  C   UNL     1     -10.844   9.883  67.010  1.00  0.00    -0.186 A  
HETATM   20  C   UNL     1     -10.250  11.139  67.155  1.00  0.00    -0.235 A  
BRANCH  18  21
HETATM   21  O   UNL     1      -8.355  12.502  67.413  1.00  0.00    -0.164 OA 
BRANCH  21  22
HETATM   22  C   UNL     1      -9.196  13.586  67.014  1.00  0.00    -0.246 C  
BRANCH  22  23
HETATM   23  C   UNL     1      -9.074  14.761  67.968  1.00  0.00    -0.179 C  
BRANCH  23  24
HETATM   24  C   UNL     1     -10.387  15.527  68.185  1.00  0.00    -0.237 C  
BRANCH  24  25
HETATM   25  C   UNL     1     -10.062  16.891  68.801  1.00  0.00    -0.295 C  
BRANCH  25  26
HETATM   26  C   UNL     1     -10.376  18.125  67.935  1.00  0.00    -0.410 C  
HETATM   27  C   UNL     1      -9.793  19.381  68.612  1.00  0.00    -0.522 C  
HETATM   28  C   UNL     1      -8.286  19.506  68.397  1.00  0.00    -0.344 C  
HETATM   29  N   UNL     1      -7.985  19.572  66.971  1.00  0.00    -0.260 NA 
HETATM   30  H   UNL     1      -6.999  19.777  66.804  1.00  0.00     0.000 HD 
HETATM   31  C   UNL     1      -8.405  18.349  66.288  1.00  0.00    -0.207 C  
HETATM   32  C   UNL     1      -9.894  18.053  66.476  1.00  0.00    -0.353 C  
ENDBRANCH  25  26
ENDBRANCH  24  25
ENDBRANCH  23  24
ENDBRANCH  22  23
ENDBRANCH  21  22
ENDBRANCH  18  21
ENDBRANCH  14  15
ENDBRANCH  10  14
ENDBRANCH   8  10
ENDBRANCH   5   8
ENDBRANCH   4   5
ENDBRANCH   3   4
ENDBRANCH   2   3
TORSDOF 13
ENDMDL
MODEL      227
REMARK 921   NORMALIZED FREE ENERGY PREDICTED BY IDOCK:   -3.44 KCAL/MOL
REMARK 922        TOTAL FREE ENERGY PREDICTED BY IDOCK:   -8.60 KCAL/MOL
REMARK 923 INTER-LIGAND FREE ENERGY PREDICTED BY IDOCK:   -6.97 KCAL/MOL
REMARK 924 INTRA-LIGAND FREE ENERGY PREDICTED BY IDOCK:   -1.63 KCAL/MOL
REMARK 927      BINDING AFFINITY PREDICTED BY RF-SCORE:    0.00 PKD
ROOT
HETATM    1  C   UNL     1     -11.220   8.291  70.653  1.00  0.00    -0.270 C  
HETATM    2  C   UNL     1     -10.132   9.340  70.866  1.00  0.00    -0.373 C  
ENDROOT
BRANCH   2   3
HETATM    3  C   UNL     1      -9.670   9.843  69.509  1.00  0.00    -0.238 C  
BRANCH   3   4
HETATM    4  C   UNL     1     -10.761  10.119  68.470  1.00  0.00    -0.230 C  
BRANCH   4   5
HETATM    5  S   UNL     1     -10.758  11.911  68.245  1.00  0.00    -0.235 S  
HETATM    6  O   UNL     1     -11.436  12.518  69.367  1.00  0.00    -0.270 OA 
HETATM    7  O   UNL     1      -9.413  12.281  67.875  1.00  0.00    -0.187 OA 
BRANCH   5   8
HETATM    8  N   UNL     1     -11.762  12.221  66.907  1.00  0.00    -0.359 N  
HETATM    9  H   UNL     1     -12.777  12.119  66.908  1.00  0.00     0.000 HD 
BRANCH   8  10
HETATM   10  C   UNL     1     -10.925  12.678  65.689  1.00  0.00    -0.280 C  
HETATM   11  C   UNL     1     -11.192  14.159  65.421  1.00  0.00    -0.325 C  
HETATM   12  O   UNL     1     -10.414  14.911  64.853  1.00  0.00    -0.414 OA 
HETATM   13  O   UNL     1     -12.400  14.569  65.884  1.00  0.00    -0.331 OA 
BRANCH  10  14
HETATM   14  C   UNL     1     -11.148  11.872  64.396  1.00  0.00    -0.395 C  
BRANCH  14  15
HETATM   15  C   UNL     1     -10.039  10.903  64.070  1.00  0.00    -0.419 A  
HETATM   16  C   UNL     1      -9.764  10.652  62.721  1.00  0.00    -0.279 A  
HETATM   17  C   UNL     1      -8.928   9.599  62.361  1.00  0.00    -0.282 A  
HETATM   18  C   UNL     1      -8.368   8.772  63.337  1.00  0.00    -0.156 A  
HETATM   19  C   UNL     1      -9.335  10.182  65.046  1.00  0.00    -0.299 A  
HETATM   20  C   UNL     1      -8.520   9.107  64.681  1.00  0.00    -0.197 A  
BRANCH  18  21
HETATM   21  O   UNL     1      -7.686   7.609  63.077  1.00  0.00    -0.112 OA 
BRANCH  21  22
HETATM   22  C   UNL     1      -7.127   6.999  64.242  1.00  0.00    -0.059 C  
BRANCH  22  23
HETATM   23  C   UNL     1      -7.713   5.616  64.476  1.00  0.00    -0.096 C  
BRANCH  23  24
HETATM   24  C   UNL     1      -8.703   5.550  65.646  1.00  0.00    -0.153 C  
BRANCH  24  25
HETATM   25  C   UNL     1      -8.687   4.131  66.222  1.00  0.00    -0.115 C  
BRANCH  25  26
HETATM   26  C   UNL     1      -9.649   3.857  67.393  1.00  0.00    -0.218 C  
HETATM   27  C   UNL     1      -9.189   2.589  68.139  1.00  0.00    -0.256 C  
HETATM   28  C   UNL     1      -8.003   2.860  69.064  1.00  0.00    -0.055 C  
HETATM   29  N   UNL     1      -8.359   3.872  70.053  1.00  0.00    -0.056 NA 
HETATM   30  H   UNL     1      -7.627   3.984  70.755  1.00  0.00     0.000 HD 
HETATM   31  C   UNL     1      -8.688   5.144  69.410  1.00  0.00    -0.099 C  
HETATM   32  C   UNL     1      -9.824   5.011  68.394  1.00  0.00    -0.209 C  
ENDBRANCH  25  26
ENDBRANCH  24  25
ENDBRANCH  23  24
ENDBRANCH  22  23
ENDBRANCH  21  22
ENDBRANCH  18  21
ENDBRANCH  14  15
ENDBRANCH  10  14
ENDBRANCH   8  10
ENDBRANCH   5   8
ENDBRANCH   4   5
ENDBRANCH   3   4
ENDBRANCH   2   3
TORSDOF 13
ENDMDL
MODEL      228
REMARK 921   NORMALIZED FREE ENERGY PREDICTED BY IDOCK:   -3.42 KCAL/MOL
REMARK 922        TOTAL FREE ENERGY PREDICTED BY IDOCK:   -8.57 KCAL/MOL
REMARK 923 INTER-LIGAND FREE ENERGY PREDICTED BY IDOCK:   -9.00 KCAL/MOL
REMARK 924 INTRA-LIGAND FREE ENERGY PREDICTED BY IDOCK:    0.43 KCAL/MOL
REMARK 927      BINDING AFFINITY PREDICTED BY RF-SCORE:    0.00 PKD
ROOT
HETATM    1  C   UNL     1     -10.710  15.774  69.707  1.00  0.00    -0.317 C  
HETATM    2  C   UNL     1      -9.481  16.137  68.875  1.00  0.00    -0.244 C  
ENDROOT
BRANCH   2   3
HETATM    3  C   UNL     1      -9.221  15.017  67.882  1.00  0.00    -0.182 C  
BRANCH   3   4
HETATM    4  C   UNL     1      -8.908  15.434  66.442  1.00  0.00    -0.305 C  
BRANCH   4   5
HETATM    5  S   UNL     1     -10.481  15.317  65.562  1.00  0.00    -0.406 S  
HETATM    6  O   UNL     1     -11.428  14.621  66.401  1.00  0.00    -0.349 OA 
HETATM    7  O   UNL     1     -10.755  16.628  65.026  1.00  0.00    -0.677 OA 
BRANCH   5   8
HETATM    8  N   UNL     1     -10.209  14.272  64.247  1.00  0.00    -0.300 N  
HETATM    9  H   UNL     1      -9.649  14.505  63.426  1.00  0.00     0.000 HD 
BRANCH   8  10
HETATM   10  C   UNL     1     -10.928  12.919  64.465  1.00  0.00    -0.351 C  
HETATM   11  C   UNL     1     -12.295  12.959  63.780  1.00  0.00    -0.417 C  
HETATM   12  O   UNL     1     -12.902  11.973  63.392  1.00  0.00    -0.760 OA 
HETATM   13  O   UNL     1     -12.777  14.219  63.639  1.00  0.00    -0.783 OA 
BRANCH  10  14
HETATM   14  C   UNL     1     -11.100  12.493  65.934  1.00  0.00    -0.334 C  
BRANCH  14  15
HETATM   15  C   UNL     1     -10.285  11.288  66.330  1.00  0.00    -0.273 A  
HETATM   16  C   UNL     1      -9.314  11.452  67.324  1.00  0.00    -0.173 A  
HETATM   17  C   UNL     1      -8.376  10.451  67.558  1.00  0.00    -0.114 A  
HETATM   18  C   UNL     1      -8.382   9.280  66.797  1.00  0.00    -0.123 A  
HETATM   19  C   UNL     1     -10.394  10.042  65.695  1.00  0.00    -0.171 A  
HETATM   20  C   UNL     1      -9.434   9.051  65.912  1.00  0.00    -0.317 A  
BRANCH  18  21
HETATM   21  O   UNL     1      -7.398   8.324  66.828  1.00  0.00    -0.080 OA 
BRANCH  21  22
HETATM   22  C   UNL     1      -7.683   7.180  66.020  1.00  0.00    -0.099 C  
BRANCH  22  23
HETATM   23  C   UNL     1      -6.532   6.189  66.039  1.00  0.00    -0.046 C  
BRANCH  23  24
HETATM   24  C   UNL     1      -6.942   4.766  66.441  1.00  0.00    -0.067 C  
BRANCH  24  25
HETATM   25  C   UNL     1      -7.555   4.070  65.222  1.00  0.00    -0.081 C  
BRANCH  25  26
HETATM   26  C   UNL     1      -8.728   3.111  65.500  1.00  0.00    -0.121 C  
HETATM   27  C   UNL     1      -9.637   3.723  66.584  1.00  0.00    -0.197 C  
HETATM   28  C   UNL     1     -10.548   4.815  66.025  1.00  0.00    -0.254 C  
HETATM   29  N   UNL     1     -11.395   4.271  64.969  1.00  0.00    -1.043 NA 
HETATM   30  H   UNL     1     -12.095   4.948  64.664  1.00  0.00     0.000 HD 
HETATM   31  C   UNL     1     -10.592   3.783  63.849  1.00  0.00    -0.261 C  
HETATM   32  C   UNL     1      -9.573   2.723  64.275  1.00  0.00    -0.152 C  
ENDBRANCH  25  26
ENDBRANCH  24  25
ENDBRANCH  23  24
ENDBRANCH  22  23
ENDBRANCH  21  22
ENDBRANCH  18  21
ENDBRANCH  14  15
ENDBRANCH  10  14
ENDBRANCH   8  10
ENDBRANCH   5   8
ENDBRANCH   4   5
ENDBRANCH   3   4
ENDBRANCH   2   3
TORSDOF 13
ENDMDL
MODEL      229
REMARK 921   NORMALIZED FREE ENERGY PREDICTED BY IDOCK:   -3.41 KCAL/MOL
REMARK 922        TOTAL FREE ENERGY PREDICTED BY IDOCK:   -8.55 KCAL/MOL
REMARK 923 INTER-LIGAND FREE ENERGY PREDICTED BY IDOCK:   -8.10 KCAL/MOL
REMARK 924 INTRA-LIGAND FREE ENERGY PREDICTED BY IDOCK:   -0.45 KCAL/MOL
REMARK 927      BINDING AFFINITY PREDICTED BY RF-SCORE:    0.00 PKD
ROOT
HETATM    1  C   UNL     1     -13.131  10.596  71.648  1.00  0.00    -0.555 C  
HETATM    2  C   UNL     1     -13.383   9.245  72.314  1.00  0.00    -0.547 C  
ENDROOT
BRANCH   2   3
HETATM    3  C   UNL     1     -12.051   8.535  72.487  1.00  0.00    -0.395 C  
BRANCH   3   4
HETATM    4  C   UNL     1     -11.662   7.527  71.402  1.00  0.00    -0.283 C  
BRANCH   4   5
HETATM    5  S   UNL     1     -10.303   8.302  70.499  1.00  0.00    -0.206 S  
HETATM    6  O   UNL     1      -9.769   9.376  71.304  1.00  0.00    -0.262 OA 
HETATM    7  O   UNL     1      -9.472   7.233  70.002  1.00  0.00    -0.161 OA 
BRANCH   5   8
HETATM    8  N   UNL     1     -11.008   9.072  69.155  1.00  0.00    -0.426 N  
HETATM    9  H   UNL     1     -12.010   9.218  69.030  1.00  0.00     0.000 HD 
BRANCH   8  10
HETATM   10  C   UNL     1      -9.921   9.519  68.149  1.00  0.00    -0.165 C  
HETATM   11  C   UNL     1     -10.134   8.791  66.821  1.00  0.00    -0.288 C  
HETATM   12  O   UNL     1      -9.759   9.208  65.735  1.00  0.00    -0.274 OA 
HETATM   13  O   UNL     1     -10.794   7.614  66.964  1.00  0.00    -0.334 OA 
BRANCH  10  14
HETATM   14  C   UNL     1      -8.467   9.322  68.617  1.00  0.00    -0.123 C  
BRANCH  14  15
HETATM   15  C   UNL     1      -7.608  10.556  68.507  1.00  0.00    -0.097 A  
HETATM   16  C   UNL     1      -6.916  10.976  69.648  1.00  0.00    -0.110 A  
HETATM   17  C   UNL     1      -6.308  12.228  69.678  1.00  0.00    -0.111 A  
HETATM   18  C   UNL     1      -6.394  13.085  68.579  1.00  0.00    -0.081 A  
HETATM   19  C   UNL     1      -7.538  11.345  67.349  1.00  0.00    -0.124 A  
HETATM   20  C   UNL     1      -6.952  12.613  67.391  1.00  0.00    -0.143 A  
BRANCH  18  21
HETATM   21  O   UNL     1      -5.989  14.396  68.577  1.00  0.00    -0.082 OA 
BRANCH  21  22
HETATM   22  C   UNL     1      -6.283  15.089  69.792  1.00  0.00    -0.143 C  
BRANCH  22  23
HETATM   23  C   UNL     1      -6.654  16.538  69.525  1.00  0.00    -0.217 C  
BRANCH  23  24
HETATM   24  C   UNL     1      -6.964  16.840  68.052  1.00  0.00    -0.156 C  
BRANCH  24  25
HETATM   25  C   UNL     1      -8.441  17.226  67.932  1.00  0.00    -0.218 C  
BRANCH  25  26
HETATM   26  C   UNL     1      -8.816  18.649  68.388  1.00  0.00    -0.367 C  
HETATM   27  C   UNL     1      -7.904  19.666  67.674  1.00  0.00    -0.317 C  
HETATM   28  C   UNL     1      -8.339  19.919  66.231  1.00  0.00    -0.340 C  
HETATM   29  N   UNL     1      -9.706  20.428  66.201  1.00  0.00    -0.659 NA 
HETATM   30  H   UNL     1      -9.978  20.719  65.262  1.00  0.00     0.000 HD 
HETATM   31  C   UNL     1     -10.643  19.452  66.756  1.00  0.00    -0.472 C  
HETATM   32  C   UNL     1     -10.288  19.045  68.188  1.00  0.00    -0.446 C  
ENDBRANCH  25  26
ENDBRANCH  24  25
ENDBRANCH  23  24
ENDBRANCH  22  23
ENDBRANCH  21  22
ENDBRANCH  18  21
ENDBRANCH  14  15
ENDBRANCH  10  14
ENDBRANCH   8  10
ENDBRANCH   5   8
ENDBRANCH   4   5
ENDBRANCH   3   4
ENDBRANCH   2   3
TORSDOF 13
ENDMDL
MODEL      230
REMARK 921   NORMALIZED FREE ENERGY PREDICTED BY IDOCK:   -3.40 KCAL/MOL
REMARK 922        TOTAL FREE ENERGY PREDICTED BY IDOCK:   -8.53 KCAL/MOL
REMARK 923 INTER-LIGAND FREE ENERGY PREDICTED BY IDOCK:   -6.57 KCAL/MOL
REMARK 924 INTRA-LIGAND FREE ENERGY PREDICTED BY IDOCK:   -1.96 KCAL/MOL
REMARK 927      BINDING AFFINITY PREDICTED BY RF-SCORE:    0.00 PKD
ROOT
HETATM    1  C   UNL     1      -8.700   5.274  66.087  1.00  0.00    -0.129 C  
HETATM    2  C   UNL     1      -9.669   4.252  66.678  1.00  0.00    -0.239 C  
ENDROOT
BRANCH   2   3
HETATM    3  C   UNL     1      -9.585   4.326  68.193  1.00  0.00    -0.196 C  
BRANCH   3   4
HETATM    4  C   UNL     1      -8.242   3.952  68.827  1.00  0.00    -0.073 C  
BRANCH   4   5
HETATM    5  S   UNL     1      -8.194   4.843  70.397  1.00  0.00    -0.089 S  
HETATM    6  O   UNL     1      -7.446   4.057  71.351  1.00  0.00    -0.055 OA 
HETATM    7  O   UNL     1      -7.842   6.208  70.089  1.00  0.00    -0.098 OA 
BRANCH   5   8
HETATM    8  N   UNL     1      -9.790   4.845  70.988  1.00  0.00    -0.184 N  
HETATM    9  H   UNL     1     -10.358   4.009  71.127  1.00  0.00     0.000 HD 
BRANCH   8  10
HETATM   10  C   UNL     1     -10.262   6.289  71.283  1.00  0.00    -0.200 C  
HETATM   11  C   UNL     1     -11.004   6.312  72.620  1.00  0.00    -0.252 C  
HETATM   12  O   UNL     1     -11.113   7.299  73.333  1.00  0.00    -0.323 OA 
HETATM   13  O   UNL     1     -11.538   5.109  72.949  1.00  0.00    -0.297 OA 
BRANCH  10  14
HETATM   14  C   UNL     1     -11.142   6.931  70.195  1.00  0.00    -0.344 C  
BRANCH  14  15
HETATM   15  C   UNL     1     -10.478   8.058  69.445  1.00  0.00    -0.223 A  
HETATM   16  C   UNL     1     -10.204   7.869  68.086  1.00  0.00    -0.248 A  
HETATM   17  C   UNL     1      -9.384   8.765  67.406  1.00  0.00    -0.166 A  
HETATM   18  C   UNL     1      -8.812   9.851  68.072  1.00  0.00    -0.125 A  
HETATM   19  C   UNL     1     -10.046   9.242  70.060  1.00  0.00    -0.240 A  
HETATM   20  C   UNL     1      -9.199  10.124  69.383  1.00  0.00    -0.229 A  
BRANCH  18  21
HETATM   21  O   UNL     1      -7.854  10.677  67.540  1.00  0.00    -0.104 OA 
BRANCH  21  22
HETATM   22  C   UNL     1      -7.670  11.890  68.272  1.00  0.00    -0.127 C  
BRANCH  22  23
HETATM   23  C   UNL     1      -7.538  13.083  67.341  1.00  0.00    -0.141 C  
BRANCH  23  24
HETATM   24  C   UNL     1      -8.694  14.086  67.447  1.00  0.00    -0.212 C  
BRANCH  24  25
HETATM   25  C   UNL     1      -9.711  13.557  68.463  1.00  0.00    -0.168 C  
BRANCH  25  26
HETATM   26  C   UNL     1     -11.196  13.775  68.122  1.00  0.00    -0.298 C  
HETATM   27  C   UNL     1     -12.067  13.154  69.232  1.00  0.00    -0.270 C  
HETATM   28  C   UNL     1     -12.134  14.037  70.477  1.00  0.00    -0.353 C  
HETATM   29  N   UNL     1     -12.687  15.344  70.137  1.00  0.00    -0.624 NA 
HETATM   30  H   UNL     1     -12.854  15.909  70.970  1.00  0.00     0.000 HD 
HETATM   31  C   UNL     1     -11.835  16.041  69.174  1.00  0.00    -0.261 C  
HETATM   32  C   UNL     1     -11.618  15.236  67.891  1.00  0.00    -0.301 C  
ENDBRANCH  25  26
ENDBRANCH  24  25
ENDBRANCH  23  24
ENDBRANCH  22  23
ENDBRANCH  21  22
ENDBRANCH  18  21
ENDBRANCH  14  15
ENDBRANCH  10  14
ENDBRANCH   8  10
ENDBRANCH   5   8
ENDBRANCH   4   5
ENDBRANCH   3   4
ENDBRANCH   2   3
TORSDOF 13
ENDMDL
MODEL      231
REMARK 921   NORMALIZED FREE ENERGY PREDICTED BY IDOCK:   -3.39 KCAL/MOL
REMARK 922        TOTAL FREE ENERGY PREDICTED BY IDOCK:   -8.50 KCAL/MOL
REMARK 923 INTER-LIGAND FREE ENERGY PREDICTED BY IDOCK:   -7.40 KCAL/MOL
REMARK 924 INTRA-LIGAND FREE ENERGY PREDICTED BY IDOCK:   -1.10 KCAL/MOL
REMARK 927      BINDING AFFINITY PREDICTED BY RF-SCORE:    0.00 PKD
ROOT
HETATM    1  C   UNL     1     -12.520  11.081  70.947  1.00  0.00    -0.509 C  
HETATM    2  C   UNL     1     -13.489  10.383  71.897  1.00  0.00    -0.384 C  
ENDROOT
BRANCH   2   3
HETATM    3  C   UNL     1     -12.966   8.986  72.183  1.00  0.00    -0.490 C  
BRANCH   3   4
HETATM    4  C   UNL     1     -11.520   8.696  71.769  1.00  0.00    -0.324 C  
BRANCH   4   5
HETATM    5  S   UNL     1     -11.179   7.029  72.375  1.00  0.00    -0.275 S  
HETATM    6  O   UNL     1     -10.574   7.129  73.683  1.00  0.00    -0.372 OA 
HETATM    7  O   UNL     1     -12.372   6.251  72.143  1.00  0.00    -0.315 OA 
BRANCH   5   8
HETATM    8  N   UNL     1      -9.955   6.403  71.372  1.00  0.00    -0.184 N  
HETATM    9  H   UNL     1      -8.992   6.740  71.354  1.00  0.00     0.000 HD 
BRANCH   8  10
HETATM   10  C   UNL     1     -10.502   5.253  70.493  1.00  0.00    -0.242 C  
HETATM   11  C   UNL     1      -9.557   4.054  70.586  1.00  0.00    -0.190 C  
HETATM   12  O   UNL     1      -9.890   2.895  70.391  1.00  0.00    -0.067 OA 
HETATM   13  O   UNL     1      -8.289   4.407  70.914  1.00  0.00    -0.084 OA 
BRANCH  10  14
HETATM   14  C   UNL     1     -10.739   5.610  69.014  1.00  0.00    -0.307 C  
BRANCH  14  15
HETATM   15  C   UNL     1      -9.977   6.821  68.538  1.00  0.00    -0.149 A  
HETATM   16  C   UNL     1      -8.586   6.718  68.431  1.00  0.00    -0.125 A  
HETATM   17  C   UNL     1      -7.813   7.859  68.234  1.00  0.00    -0.120 A  
HETATM   18  C   UNL     1      -8.412   9.118  68.157  1.00  0.00    -0.125 A  
HETATM   19  C   UNL     1     -10.583   8.060  68.283  1.00  0.00    -0.155 A  
HETATM   20  C   UNL     1      -9.803   9.207  68.115  1.00  0.00    -0.188 A  
BRANCH  18  21
HETATM   21  O   UNL     1      -7.730  10.309  68.147  1.00  0.00    -0.090 OA 
BRANCH  21  22
HETATM   22  C   UNL     1      -8.579  11.458  68.111  1.00  0.00    -0.153 C  
BRANCH  22  23
HETATM   23  C   UNL     1      -8.063  12.495  67.128  1.00  0.00    -0.156 C  
BRANCH  23  24
HETATM   24  C   UNL     1      -8.437  13.938  67.494  1.00  0.00    -0.200 C  
BRANCH  24  25
HETATM   25  C   UNL     1      -9.369  14.491  66.411  1.00  0.00    -0.300 C  
BRANCH  25  26
HETATM   26  C   UNL     1     -10.634  15.218  66.903  1.00  0.00    -0.304 C  
HETATM   27  C   UNL     1     -11.859  14.309  66.681  1.00  0.00    -0.442 C  
HETATM   28  C   UNL     1     -11.968  13.216  67.743  1.00  0.00    -0.307 C  
HETATM   29  N   UNL     1     -12.075  13.814  69.070  1.00  0.00    -0.350 NA 
HETATM   30  H   UNL     1     -12.270  13.111  69.783  1.00  0.00     0.000 HD 
HETATM   31  C   UNL     1     -10.881  14.594  69.393  1.00  0.00    -0.243 C  
HETATM   32  C   UNL     1     -10.602  15.693  68.366  1.00  0.00    -0.252 C  
ENDBRANCH  25  26
ENDBRANCH  24  25
ENDBRANCH  23  24
ENDBRANCH  22  23
ENDBRANCH  21  22
ENDBRANCH  18  21
ENDBRANCH  14  15
ENDBRANCH  10  14
ENDBRANCH   8  10
ENDBRANCH   5   8
ENDBRANCH   4   5
ENDBRANCH   3   4
ENDBRANCH   2   3
TORSDOF 13
ENDMDL
MODEL      232
REMARK 921   NORMALIZED FREE ENERGY PREDICTED BY IDOCK:   -3.38 KCAL/MOL
REMARK 922        TOTAL FREE ENERGY PREDICTED BY IDOCK:   -8.49 KCAL/MOL
REMARK 923 INTER-LIGAND FREE ENERGY PREDICTED BY IDOCK:   -6.99 KCAL/MOL
REMARK 924 INTRA-LIGAND FREE ENERGY PREDICTED BY IDOCK:   -1.50 KCAL/MOL
REMARK 927      BINDING AFFINITY PREDICTED BY RF-SCORE:    0.00 PKD
ROOT
HETATM    1  C   UNL     1      -5.954   9.781  67.863  1.00  0.00    -0.050 C  
HETATM    2  C   UNL     1      -6.882  10.351  66.792  1.00  0.00    -0.091 C  
ENDROOT
BRANCH   2   3
HETATM    3  C   UNL     1      -7.749  11.425  67.426  1.00  0.00    -0.135 C  
BRANCH   3   4
HETATM    4  C   UNL     1      -8.183  12.582  66.520  1.00  0.00     0.215 C  
BRANCH   4   5
HETATM    5  S   UNL     1      -8.043  14.063  67.543  1.00  0.00    -0.191 S  
HETATM    6  O   UNL     1      -8.491  13.745  68.879  1.00  0.00    -0.030 OA 
HETATM    7  O   UNL     1      -6.738  14.622  67.288  1.00  0.00    -0.280 OA 
BRANCH   5   8
HETATM    8  N   UNL     1      -9.197  15.161  66.944  1.00  0.00    -0.224 N  
HETATM    9  H   UNL     1      -9.061  16.171  66.885  1.00  0.00     0.000 HD 
BRANCH   8  10
HETATM   10  C   UNL     1     -10.481  14.420  66.504  1.00  0.00    -0.289 C  
HETATM   11  C   UNL     1     -11.018  15.059  65.222  1.00  0.00    -0.382 C  
HETATM   12  O   UNL     1     -11.716  14.483  64.402  1.00  0.00    -0.404 OA 
HETATM   13  O   UNL     1     -10.635  16.353  65.078  1.00  0.00    -0.651 OA 
BRANCH  10  14
HETATM   14  C   UNL     1     -11.603  14.359  67.557  1.00  0.00    -0.398 C  
BRANCH  14  15
HETATM   15  C   UNL     1     -11.762  13.012  68.216  1.00  0.00    -0.390 A  
HETATM   16  C   UNL     1     -12.175  12.981  69.552  1.00  0.00    -0.198 A  
HETATM   17  C   UNL     1     -12.106  11.796  70.279  1.00  0.00    -0.426 A  
HETATM   18  C   UNL     1     -11.612  10.629  69.691  1.00  0.00    -0.296 A  
HETATM   19  C   UNL     1     -11.436  11.802  67.584  1.00  0.00    -0.370 A  
HETATM   20  C   UNL     1     -11.341  10.621  68.324  1.00  0.00    -0.357 A  
BRANCH  18  21
HETATM   21  O   UNL     1     -11.337   9.469  70.370  1.00  0.00    -0.251 OA 
BRANCH  21  22
HETATM   22  C   UNL     1     -11.993   9.375  71.636  1.00  0.00    -0.393 C  
BRANCH  22  23
HETATM   23  C   UNL     1     -11.263   8.422  72.567  1.00  0.00    -0.406 C  
BRANCH  23  24
HETATM   24  C   UNL     1      -9.852   8.047  72.092  1.00  0.00    -0.286 C  
BRANCH  24  25
HETATM   25  C   UNL     1      -9.771   6.524  71.953  1.00  0.00    -0.159 C  
BRANCH  25  26
HETATM   26  C   UNL     1      -9.028   5.773  73.074  1.00  0.00    -0.122 C  
HETATM   27  C   UNL     1      -8.019   4.793  72.444  1.00  0.00    -0.099 C  
HETATM   28  C   UNL     1      -6.753   5.498  71.959  1.00  0.00    -0.059 C  
HETATM   29  N   UNL     1      -6.099   6.178  73.071  1.00  0.00    -0.052 NA 
HETATM   30  H   UNL     1      -5.190   6.555  72.800  1.00  0.00     0.000 HD 
HETATM   31  C   UNL     1      -6.964   7.213  73.637  1.00  0.00    -0.068 C  
HETATM   32  C   UNL     1      -8.311   6.660  74.106  1.00  0.00    -0.146 C  
ENDBRANCH  25  26
ENDBRANCH  24  25
ENDBRANCH  23  24
ENDBRANCH  22  23
ENDBRANCH  21  22
ENDBRANCH  18  21
ENDBRANCH  14  15
ENDBRANCH  10  14
ENDBRANCH   8  10
ENDBRANCH   5   8
ENDBRANCH   4   5
ENDBRANCH   3   4
ENDBRANCH   2   3
TORSDOF 13
ENDMDL
MODEL      233
REMARK 921   NORMALIZED FREE ENERGY PREDICTED BY IDOCK:   -3.37 KCAL/MOL
REMARK 922        TOTAL FREE ENERGY PREDICTED BY IDOCK:   -8.48 KCAL/MOL
REMARK 923 INTER-LIGAND FREE ENERGY PREDICTED BY IDOCK:   -6.97 KCAL/MOL
REMARK 924 INTRA-LIGAND FREE ENERGY PREDICTED BY IDOCK:   -1.51 KCAL/MOL
REMARK 927      BINDING AFFINITY PREDICTED BY RF-SCORE:    0.00 PKD
ROOT
HETATM    1  C   UNL     1     -12.404  11.828  63.514  1.00  0.00    -0.495 C  
HETATM    2  C   UNL     1     -12.533  12.844  64.646  1.00  0.00    -0.499 C  
ENDROOT
BRANCH   2   3
HETATM    3  C   UNL     1     -11.202  12.933  65.371  1.00  0.00    -0.314 C  
BRANCH   3   4
HETATM    4  C   UNL     1     -10.245  14.042  64.920  1.00  0.00    -0.348 C  
BRANCH   4   5
HETATM    5  S   UNL     1     -11.091  15.588  65.315  1.00  0.00    -0.305 S  
HETATM    6  O   UNL     1     -11.666  16.121  64.102  1.00  0.00    -0.735 OA 
HETATM    7  O   UNL     1     -11.888  15.336  66.492  1.00  0.00    -0.046 OA 
BRANCH   5   8
HETATM    8  N   UNL     1      -9.874  16.695  65.747  1.00  0.00    -0.258 N  
HETATM    9  H   UNL     1      -9.063  16.919  65.170  1.00  0.00     0.000 HD 
BRANCH   8  10
HETATM   10  C   UNL     1     -10.165  17.315  67.134  1.00  0.00    -0.319 C  
HETATM   11  C   UNL     1     -10.254  18.835  66.998  1.00  0.00    -0.381 C  
HETATM   12  O   UNL     1     -10.875  19.562  67.759  1.00  0.00    -0.417 OA 
HETATM   13  O   UNL     1      -9.565  19.310  65.930  1.00  0.00    -0.429 OA 
BRANCH  10  14
HETATM   14  C   UNL     1      -9.158  16.954  68.242  1.00  0.00    -0.235 C  
BRANCH  14  15
HETATM   15  C   UNL     1      -8.806  15.490  68.308  1.00  0.00    -0.179 A  
HETATM   16  C   UNL     1      -7.539  15.100  67.861  1.00  0.00    -0.151 A  
HETATM   17  C   UNL     1      -7.247  13.753  67.670  1.00  0.00    -0.183 A  
HETATM   18  C   UNL     1      -8.216  12.776  67.907  1.00  0.00    -0.168 A  
HETATM   19  C   UNL     1      -9.712  14.497  68.711  1.00  0.00    -0.210 A  
HETATM   20  C   UNL     1      -9.426  13.147  68.491  1.00  0.00    -0.104 A  
BRANCH  18  21
HETATM   21  O   UNL     1      -8.085  11.450  67.578  1.00  0.00    -0.119 OA 
BRANCH  21  22
HETATM   22  C   UNL     1      -6.997  10.799  68.236  1.00  0.00    -0.069 C  
BRANCH  22  23
HETATM   23  C   UNL     1      -7.463  10.068  69.483  1.00  0.00    -0.123 C  
BRANCH  23  24
HETATM   24  C   UNL     1      -8.497   8.967  69.209  1.00  0.00    -0.128 C  
BRANCH  24  25
HETATM   25  C   UNL     1      -7.908   7.986  68.191  1.00  0.00    -0.126 C  
BRANCH  25  26
HETATM   26  C   UNL     1      -8.881   6.947  67.601  1.00  0.00    -0.118 C  
HETATM   27  C   UNL     1      -9.319   7.405  66.197  1.00  0.00    -0.111 C  
HETATM   28  C   UNL     1      -8.250   7.132  65.140  1.00  0.00    -0.113 C  
HETATM   29  N   UNL     1      -7.950   5.705  65.085  1.00  0.00    -0.106 NA 
HETATM   30  H   UNL     1      -7.329   5.481  64.307  1.00  0.00     0.000 HD 
HETATM   31  C   UNL     1      -7.410   5.232  66.359  1.00  0.00    -0.082 C  
HETATM   32  C   UNL     1      -8.352   5.505  67.533  1.00  0.00    -0.100 C  
ENDBRANCH  25  26
ENDBRANCH  24  25
ENDBRANCH  23  24
ENDBRANCH  22  23
ENDBRANCH  21  22
ENDBRANCH  18  21
ENDBRANCH  14  15
ENDBRANCH  10  14
ENDBRANCH   8  10
ENDBRANCH   5   8
ENDBRANCH   4   5
ENDBRANCH   3   4
ENDBRANCH   2   3
TORSDOF 13
ENDMDL
MODEL      234
REMARK 921   NORMALIZED FREE ENERGY PREDICTED BY IDOCK:   -3.35 KCAL/MOL
REMARK 922        TOTAL FREE ENERGY PREDICTED BY IDOCK:   -8.43 KCAL/MOL
REMARK 923 INTER-LIGAND FREE ENERGY PREDICTED BY IDOCK:   -7.09 KCAL/MOL
REMARK 924 INTRA-LIGAND FREE ENERGY PREDICTED BY IDOCK:   -1.35 KCAL/MOL
REMARK 927      BINDING AFFINITY PREDICTED BY RF-SCORE:    0.00 PKD
ROOT
HETATM    1  C   UNL     1      -7.429   8.855  71.397  1.00  0.00    -0.108 C  
HETATM    2  C   UNL     1      -8.135   9.599  70.266  1.00  0.00    -0.206 C  
ENDROOT
BRANCH   2   3
HETATM    3  C   UNL     1      -7.111  10.444  69.529  1.00  0.00    -0.113 C  
BRANCH   3   4
HETATM    4  C   UNL     1      -6.862  10.097  68.058  1.00  0.00    -0.071 C  
BRANCH   4   5
HETATM    5  S   UNL     1      -6.841  11.683  67.194  1.00  0.00    -0.147 S  
HETATM    6  O   UNL     1      -7.011  12.739  68.164  1.00  0.00    -0.076 OA 
HETATM    7  O   UNL     1      -5.716  11.649  66.291  1.00  0.00    -0.225 OA 
BRANCH   5   8
HETATM    8  N   UNL     1      -8.255  11.724  66.248  1.00  0.00    -0.382 N  
HETATM    9  H   UNL     1      -8.496  12.472  65.597  1.00  0.00     0.000 HD 
BRANCH   8  10
HETATM   10  C   UNL     1      -9.127  10.474  66.512  1.00  0.00    -0.157 C  
HETATM   11  C   UNL     1      -9.065   9.550  65.295  1.00  0.00    -0.224 C  
HETATM   12  O   UNL     1      -9.259   8.344  65.331  1.00  0.00    -0.074 OA 
HETATM   13  O   UNL     1      -8.767  10.210  64.147  1.00  0.00    -0.172 OA 
BRANCH  10  14
HETATM   14  C   UNL     1     -10.598  10.758  66.869  1.00  0.00    -0.312 C  
BRANCH  14  15
HETATM   15  C   UNL     1     -10.889  12.201  67.196  1.00  0.00    -0.286 A  
HETATM   16  C   UNL     1     -11.576  12.962  66.245  1.00  0.00    -0.424 A  
HETATM   17  C   UNL     1     -11.660  14.345  66.382  1.00  0.00    -0.383 A  
HETATM   18  C   UNL     1     -11.047  14.990  67.459  1.00  0.00    -0.317 A  
HETATM   19  C   UNL     1     -10.431  12.834  68.361  1.00  0.00    -0.253 A  
HETATM   20  C   UNL     1     -10.491  14.224  68.482  1.00  0.00    -0.253 A  
BRANCH  18  21
HETATM   21  O   UNL     1     -10.919  16.351  67.583  1.00  0.00    -0.308 OA 
BRANCH  21  22
HETATM   22  C   UNL     1     -10.731  17.026  66.337  1.00  0.00    -0.075 C  
BRANCH  22  23
HETATM   23  C   UNL     1      -9.624  18.062  66.432  1.00  0.00    -0.301 C  
BRANCH  23  24
HETATM   24  C   UNL     1      -9.609  18.839  67.755  1.00  0.00    -0.346 C  
BRANCH  24  25
HETATM   25  C   UNL     1      -8.281  18.567  68.468  1.00  0.00    -0.360 C  
BRANCH  25  26
HETATM   26  C   UNL     1      -7.235  19.696  68.419  1.00  0.00    -0.355 C  
HETATM   27  C   UNL     1      -5.826  19.078  68.322  1.00  0.00    -0.218 C  
HETATM   28  C   UNL     1      -5.502  18.599  66.908  1.00  0.00    -0.136 C  
HETATM   29  N   UNL     1      -5.580  19.714  65.969  1.00  0.00    -0.158 NA 
HETATM   30  H   UNL     1      -5.251  19.447  65.041  1.00  0.00     0.000 HD 
HETATM   31  C   UNL     1      -6.932  20.269  65.923  1.00  0.00    -0.267 C  
HETATM   32  C   UNL     1      -7.424  20.730  67.297  1.00  0.00    -0.381 C  
ENDBRANCH  25  26
ENDBRANCH  24  25
ENDBRANCH  23  24
ENDBRANCH  22  23
ENDBRANCH  21  22
ENDBRANCH  18  21
ENDBRANCH  14  15
ENDBRANCH  10  14
ENDBRANCH   8  10
ENDBRANCH   5   8
ENDBRANCH   4   5
ENDBRANCH   3   4
ENDBRANCH   2   3
TORSDOF 13
ENDMDL
MODEL      235
REMARK 921   NORMALIZED FREE ENERGY PREDICTED BY IDOCK:   -3.33 KCAL/MOL
REMARK 922        TOTAL FREE ENERGY PREDICTED BY IDOCK:   -8.41 KCAL/MOL
REMARK 923 INTER-LIGAND FREE ENERGY PREDICTED BY IDOCK:   -7.23 KCAL/MOL
REMARK 924 INTRA-LIGAND FREE ENERGY PREDICTED BY IDOCK:   -1.17 KCAL/MOL
REMARK 927      BINDING AFFINITY PREDICTED BY RF-SCORE:    0.00 PKD
ROOT
HETATM    1  C   UNL     1     -12.006   6.362  71.491  1.00  0.00    -0.331 C  
HETATM    2  C   UNL     1     -10.803   6.237  70.559  1.00  0.00    -0.348 C  
ENDROOT
BRANCH   2   3
HETATM    3  C   UNL     1      -9.619   6.939  71.200  1.00  0.00    -0.167 C  
BRANCH   3   4
HETATM    4  C   UNL     1      -8.241   6.660  70.591  1.00  0.00    -0.124 C  
BRANCH   4   5
HETATM    5  S   UNL     1      -7.285   8.166  70.871  1.00  0.00    -0.059 S  
HETATM    6  O   UNL     1      -7.743   8.782  72.095  1.00  0.00    -0.315 OA 
HETATM    7  O   UNL     1      -5.899   7.823  70.661  1.00  0.00    -0.030 OA 
BRANCH   5   8
HETATM    8  N   UNL     1      -7.737   9.249  69.639  1.00  0.00    -0.080 N  
HETATM    9  H   UNL     1      -7.832  10.258  69.760  1.00  0.00     0.000 HD 
BRANCH   8  10
HETATM   10  C   UNL     1      -7.986   8.495  68.311  1.00  0.00    -0.114 C  
HETATM   11  C   UNL     1      -6.945   8.934  67.280  1.00  0.00    -0.078 C  
HETATM   12  O   UNL     1      -6.588   8.257  66.328  1.00  0.00    -0.050 OA 
HETATM   13  O   UNL     1      -6.444  10.170  67.530  1.00  0.00    -0.065 OA 
BRANCH  10  14
HETATM   14  C   UNL     1      -9.398   8.653  67.717  1.00  0.00    -0.157 C  
BRANCH  14  15
HETATM   15  C   UNL     1      -9.795  10.080  67.432  1.00  0.00    -0.226 A  
HETATM   16  C   UNL     1     -10.377  10.817  68.469  1.00  0.00    -0.202 A  
HETATM   17  C   UNL     1     -10.980  12.043  68.203  1.00  0.00    -0.273 A  
HETATM   18  C   UNL     1     -11.026  12.545  66.901  1.00  0.00    -0.257 A  
HETATM   19  C   UNL     1      -9.689  10.670  66.164  1.00  0.00    -0.253 A  
HETATM   20  C   UNL     1     -10.320  11.887  65.895  1.00  0.00    -0.277 A  
BRANCH  18  21
HETATM   21  O   UNL     1     -11.749  13.645  66.512  1.00  0.00    -0.345 OA 
BRANCH  21  22
HETATM   22  C   UNL     1     -12.206  14.446  67.604  1.00  0.00    -0.165 C  
BRANCH  22  23
HETATM   23  C   UNL     1     -11.242  15.582  67.897  1.00  0.00    -0.325 C  
BRANCH  23  24
HETATM   24  C   UNL     1     -10.600  16.193  66.644  1.00  0.00    -0.274 C  
BRANCH  24  25
HETATM   25  C   UNL     1      -9.312  16.912  67.055  1.00  0.00    -0.245 C  
BRANCH  25  26
HETATM   26  C   UNL     1      -9.473  18.117  67.999  1.00  0.00    -0.290 C  
HETATM   27  C   UNL     1      -8.098  18.783  68.210  1.00  0.00    -0.353 C  
HETATM   28  C   UNL     1      -7.691  19.656  67.024  1.00  0.00    -0.262 C  
HETATM   29  N   UNL     1      -8.681  20.706  66.810  1.00  0.00    -0.564 NA 
HETATM   30  H   UNL     1      -8.373  21.374  66.103  1.00  0.00     0.000 HD 
HETATM   31  C   UNL     1      -9.988  20.138  66.482  1.00  0.00    -0.457 C  
HETATM   32  C   UNL     1     -10.497  19.176  67.558  1.00  0.00    -0.549 C  
ENDBRANCH  25  26
ENDBRANCH  24  25
ENDBRANCH  23  24
ENDBRANCH  22  23
ENDBRANCH  21  22
ENDBRANCH  18  21
ENDBRANCH  14  15
ENDBRANCH  10  14
ENDBRANCH   8  10
ENDBRANCH   5   8
ENDBRANCH   4   5
ENDBRANCH   3   4
ENDBRANCH   2   3
TORSDOF 13
ENDMDL
MODEL      236
REMARK 921   NORMALIZED FREE ENERGY PREDICTED BY IDOCK:   -3.32 KCAL/MOL
REMARK 922        TOTAL FREE ENERGY PREDICTED BY IDOCK:   -8.39 KCAL/MOL
REMARK 923 INTER-LIGAND FREE ENERGY PREDICTED BY IDOCK:   -7.46 KCAL/MOL
REMARK 924 INTRA-LIGAND FREE ENERGY PREDICTED BY IDOCK:   -0.94 KCAL/MOL
REMARK 927      BINDING AFFINITY PREDICTED BY RF-SCORE:    0.00 PKD
ROOT
HETATM    1  C   UNL     1     -10.602   5.606  74.144  1.00  0.00    -0.220 C  
HETATM    2  C   UNL     1      -9.837   6.761  73.503  1.00  0.00    -0.249 C  
ENDROOT
BRANCH   2   3
HETATM    3  C   UNL     1      -9.834   6.564  71.997  1.00  0.00    -0.169 C  
BRANCH   3   4
HETATM    4  C   UNL     1      -9.534   7.799  71.142  1.00  0.00    -0.154 C  
BRANCH   4   5
HETATM    5  S   UNL     1      -9.813   7.274  69.437  1.00  0.00    -0.165 S  
HETATM    6  O   UNL     1      -9.046   6.075  69.192  1.00  0.00    -0.123 OA 
HETATM    7  O   UNL     1     -11.238   7.329  69.214  1.00  0.00    -0.091 OA 
BRANCH   5   8
HETATM    8  N   UNL     1      -9.094   8.462  68.453  1.00  0.00    -0.136 N  
HETATM    9  H   UNL     1      -8.559   9.258  68.802  1.00  0.00     0.000 HD 
BRANCH   8  10
HETATM   10  C   UNL     1      -9.364   8.171  66.958  1.00  0.00    -0.155 C  
HETATM   11  C   UNL     1      -8.042   8.218  66.190  1.00  0.00    -0.111 C  
HETATM   12  O   UNL     1      -7.832   7.632  65.139  1.00  0.00    -0.108 OA 
HETATM   13  O   UNL     1      -7.104   8.986  66.800  1.00  0.00    -0.080 OA 
BRANCH  10  14
HETATM   14  C   UNL     1     -10.387   9.100  66.279  1.00  0.00    -0.166 C  
BRANCH  14  15
HETATM   15  C   UNL     1     -10.451  10.487  66.866  1.00  0.00    -0.303 A  
HETATM   16  C   UNL     1      -9.575  11.454  66.358  1.00  0.00    -0.228 A  
HETATM   17  C   UNL     1      -9.418  12.671  67.015  1.00  0.00    -0.220 A  
HETATM   18  C   UNL     1     -10.117  12.936  68.195  1.00  0.00    -0.240 A  
HETATM   19  C   UNL     1     -11.277  10.829  67.946  1.00  0.00    -0.386 A  
HETATM   20  C   UNL     1     -11.096  12.040  68.621  1.00  0.00    -0.298 A  
BRANCH  18  21
HETATM   21  O   UNL     1      -9.895  14.020  69.006  1.00  0.00    -0.128 OA 
BRANCH  21  22
HETATM   22  C   UNL     1     -11.089  14.576  69.561  1.00  0.00    -0.253 C  
BRANCH  22  23
HETATM   23  C   UNL     1     -11.634  15.695  68.690  1.00  0.00    -0.391 C  
BRANCH  23  24
HETATM   24  C   UNL     1     -10.659  16.168  67.603  1.00  0.00    -0.315 C  
BRANCH  24  25
HETATM   25  C   UNL     1     -10.498  17.687  67.717  1.00  0.00    -0.379 C  
BRANCH  25  26
HETATM   26  C   UNL     1      -9.934  18.410  66.480  1.00  0.00    -0.392 C  
HETATM   27  C   UNL     1     -10.496  19.845  66.433  1.00  0.00    -0.589 C  
HETATM   28  C   UNL     1      -9.782  20.777  67.411  1.00  0.00    -0.332 C  
HETATM   29  N   UNL     1      -8.357  20.832  67.104  1.00  0.00    -0.546 NA 
HETATM   30  H   UNL     1      -7.879  21.538  67.664  1.00  0.00     0.000 HD 
HETATM   31  C   UNL     1      -7.736  19.516  67.252  1.00  0.00    -0.255 C  
HETATM   32  C   UNL     1      -8.401  18.452  66.376  1.00  0.00    -0.272 C  
ENDBRANCH  25  26
ENDBRANCH  24  25
ENDBRANCH  23  24
ENDBRANCH  22  23
ENDBRANCH  21  22
ENDBRANCH  18  21
ENDBRANCH  14  15
ENDBRANCH  10  14
ENDBRANCH   8  10
ENDBRANCH   5   8
ENDBRANCH   4   5
ENDBRANCH   3   4
ENDBRANCH   2   3
TORSDOF 13
ENDMDL
MODEL      237
REMARK 921   NORMALIZED FREE ENERGY PREDICTED BY IDOCK:   -3.32 KCAL/MOL
REMARK 922        TOTAL FREE ENERGY PREDICTED BY IDOCK:   -8.39 KCAL/MOL
REMARK 923 INTER-LIGAND FREE ENERGY PREDICTED BY IDOCK:   -7.80 KCAL/MOL
REMARK 924 INTRA-LIGAND FREE ENERGY PREDICTED BY IDOCK:   -0.59 KCAL/MOL
REMARK 927      BINDING AFFINITY PREDICTED BY RF-SCORE:    0.00 PKD
ROOT
HETATM    1  C   UNL     1     -11.497  10.218  69.870  1.00  0.00    -0.340 C  
HETATM    2  C   UNL     1     -12.033  11.322  68.962  1.00  0.00    -0.393 C  
ENDROOT
BRANCH   2   3
HETATM    3  C   UNL     1     -11.620  12.665  69.537  1.00  0.00    -0.348 C  
BRANCH   3   4
HETATM    4  C   UNL     1     -12.112  13.912  68.797  1.00  0.00    -0.309 C  
BRANCH   4   5
HETATM    5  S   UNL     1     -10.615  14.738  68.213  1.00  0.00    -0.247 S  
HETATM    6  O   UNL     1     -10.361  14.323  66.853  1.00  0.00    -0.265 OA 
HETATM    7  O   UNL     1     -10.740  16.129  68.576  1.00  0.00    -0.268 OA 
BRANCH   5   8
HETATM    8  N   UNL     1      -9.331  14.085  69.118  1.00  0.00    -0.385 N  
HETATM    9  H   UNL     1      -9.229  14.176  70.129  1.00  0.00     0.000 HD 
BRANCH   8  10
HETATM   10  C   UNL     1      -8.340  13.333  68.198  1.00  0.00    -0.161 C  
HETATM   11  C   UNL     1      -7.157  14.249  67.878  1.00  0.00    -0.160 C  
HETATM   12  O   UNL     1      -6.043  13.855  67.567  1.00  0.00    -0.317 OA 
HETATM   13  O   UNL     1      -7.468  15.566  67.976  1.00  0.00    -0.116 OA 
BRANCH  10  14
HETATM   14  C   UNL     1      -8.938  12.788  66.889  1.00  0.00    -0.213 C  
BRANCH  14  15
HETATM   15  C   UNL     1      -8.900  11.285  66.768  1.00  0.00    -0.170 A  
HETATM   16  C   UNL     1      -9.922  10.661  66.044  1.00  0.00    -0.295 A  
HETATM   17  C   UNL     1     -10.076   9.278  66.101  1.00  0.00    -0.304 A  
HETATM   18  C   UNL     1      -9.226   8.501  66.891  1.00  0.00    -0.158 A  
HETATM   19  C   UNL     1      -7.947  10.485  67.414  1.00  0.00    -0.110 A  
HETATM   20  C   UNL     1      -8.121   9.101  67.493  1.00  0.00    -0.104 A  
BRANCH  18  21
HETATM   21  O   UNL     1      -9.408   7.166  67.154  1.00  0.00    -0.131 OA 
BRANCH  21  22
HETATM   22  C   UNL     1     -10.773   6.749  67.087  1.00  0.00    -0.371 C  
BRANCH  22  23
HETATM   23  C   UNL     1     -11.390   6.654  68.471  1.00  0.00    -0.128 C  
BRANCH  23  24
HETATM   24  C   UNL     1     -10.623   5.736  69.433  1.00  0.00    -0.383 C  
BRANCH  24  25
HETATM   25  C   UNL     1      -9.992   6.596  70.532  1.00  0.00    -0.197 C  
BRANCH  25  26
HETATM   26  C   UNL     1     -10.953   7.172  71.588  1.00  0.00    -0.255 C  
HETATM   27  C   UNL     1     -11.697   6.014  72.281  1.00  0.00    -0.338 C  
HETATM   28  C   UNL     1     -10.829   5.313  73.326  1.00  0.00    -0.297 C  
HETATM   29  N   UNL     1     -10.408   6.265  74.349  1.00  0.00    -0.353 NA 
HETATM   30  H   UNL     1      -9.930   5.799  75.121  1.00  0.00     0.000 HD 
HETATM   31  C   UNL     1      -9.589   7.330  73.770  1.00  0.00    -0.285 C  
HETATM   32  C   UNL     1     -10.309   8.081  72.648  1.00  0.00    -0.398 C  
ENDBRANCH  25  26
ENDBRANCH  24  25
ENDBRANCH  23  24
ENDBRANCH  22  23
ENDBRANCH  21  22
ENDBRANCH  18  21
ENDBRANCH  14  15
ENDBRANCH  10  14
ENDBRANCH   8  10
ENDBRANCH   5   8
ENDBRANCH   4   5
ENDBRANCH   3   4
ENDBRANCH   2   3
TORSDOF 13
ENDMDL
MODEL      238
REMARK 921   NORMALIZED FREE ENERGY PREDICTED BY IDOCK:   -3.29 KCAL/MOL
REMARK 922        TOTAL FREE ENERGY PREDICTED BY IDOCK:   -8.34 KCAL/MOL
REMARK 923 INTER-LIGAND FREE ENERGY PREDICTED BY IDOCK:   -5.88 KCAL/MOL
REMARK 924 INTRA-LIGAND FREE ENERGY PREDICTED BY IDOCK:   -2.46 KCAL/MOL
REMARK 927      BINDING AFFINITY PREDICTED BY RF-SCORE:    0.00 PKD
ROOT
HETATM    1  C   UNL     1     -12.694  13.852  65.742  1.00  0.00    -0.503 C  
HETATM    2  C   UNL     1     -11.421  13.758  66.580  1.00  0.00    -0.364 C  
ENDROOT
BRANCH   2   3
HETATM    3  C   UNL     1     -10.943  12.317  66.575  1.00  0.00    -0.320 C  
BRANCH   3   4
HETATM    4  C   UNL     1     -10.541  11.721  67.927  1.00  0.00    -0.201 C  
BRANCH   4   5
HETATM    5  S   UNL     1      -8.941  10.933  67.641  1.00  0.00    -0.142 S  
HETATM    6  O   UNL     1      -8.194  11.735  66.701  1.00  0.00    -0.171 OA 
HETATM    7  O   UNL     1      -8.412  10.585  68.938  1.00  0.00    -0.134 OA 
BRANCH   5   8
HETATM    8  N   UNL     1      -9.270   9.482  66.816  1.00  0.00    -0.145 N  
HETATM    9  H   UNL     1      -9.498   9.418  65.823  1.00  0.00     0.000 HD 
BRANCH   8  10
HETATM   10  C   UNL     1      -9.177   8.273  67.776  1.00  0.00    -0.134 C  
HETATM   11  C   UNL     1      -8.262   7.212  67.163  1.00  0.00    -0.118 C  
HETATM   12  O   UNL     1      -7.646   6.375  67.806  1.00  0.00    -0.098 OA 
HETATM   13  O   UNL     1      -8.196   7.290  65.810  1.00  0.00    -0.121 OA 
BRANCH  10  14
HETATM   14  C   UNL     1     -10.523   7.631  68.161  1.00  0.00    -0.233 C  
BRANCH  14  15
HETATM   15  C   UNL     1     -10.685   7.368  69.637  1.00  0.00    -0.245 A  
HETATM   16  C   UNL     1      -9.728   7.904  70.506  1.00  0.00    -0.174 A  
HETATM   17  C   UNL     1      -9.686   7.499  71.837  1.00  0.00    -0.191 A  
HETATM   18  C   UNL     1     -10.584   6.544  72.318  1.00  0.00    -0.212 A  
HETATM   19  C   UNL     1     -11.691   6.547  70.168  1.00  0.00    -0.419 A  
HETATM   20  C   UNL     1     -11.628   6.119  71.497  1.00  0.00    -0.304 A  
BRANCH  18  21
HETATM   21  O   UNL     1     -10.507   5.951  73.553  1.00  0.00    -0.225 OA 
BRANCH  21  22
HETATM   22  C   UNL     1     -11.157   4.680  73.621  1.00  0.00    -0.300 C  
BRANCH  22  23
HETATM   23  C   UNL     1     -10.161   3.564  73.887  1.00  0.00    -0.208 C  
BRANCH  23  24
HETATM   24  C   UNL     1      -8.853   3.696  73.096  1.00  0.00    -0.097 C  
BRANCH  24  25
HETATM   25  C   UNL     1      -9.063   3.101  71.700  1.00  0.00    -0.169 C  
BRANCH  25  26
HETATM   26  C   UNL     1      -8.819   4.047  70.510  1.00  0.00    -0.136 C  
HETATM   27  C   UNL     1      -7.317   4.051  70.165  1.00  0.00    -0.045 C  
HETATM   28  C   UNL     1      -6.902   2.810  69.376  1.00  0.00    -0.034 C  
HETATM   29  N   UNL     1      -7.658   2.731  68.130  1.00  0.00    -0.056 NA 
HETATM   30  H   UNL     1      -7.316   1.980  67.530  1.00  0.00     0.000 HD 
HETATM   31  C   UNL     1      -9.091   2.600  68.393  1.00  0.00    -0.172 C  
HETATM   32  C   UNL     1      -9.639   3.748  69.243  1.00  0.00    -0.209 C  
ENDBRANCH  25  26
ENDBRANCH  24  25
ENDBRANCH  23  24
ENDBRANCH  22  23
ENDBRANCH  21  22
ENDBRANCH  18  21
ENDBRANCH  14  15
ENDBRANCH  10  14
ENDBRANCH   8  10
ENDBRANCH   5   8
ENDBRANCH   4   5
ENDBRANCH   3   4
ENDBRANCH   2   3
TORSDOF 13
ENDMDL
MODEL      239
REMARK 921   NORMALIZED FREE ENERGY PREDICTED BY IDOCK:   -3.28 KCAL/MOL
REMARK 922        TOTAL FREE ENERGY PREDICTED BY IDOCK:   -8.32 KCAL/MOL
REMARK 923 INTER-LIGAND FREE ENERGY PREDICTED BY IDOCK:   -7.71 KCAL/MOL
REMARK 924 INTRA-LIGAND FREE ENERGY PREDICTED BY IDOCK:   -0.61 KCAL/MOL
REMARK 927      BINDING AFFINITY PREDICTED BY RF-SCORE:    0.00 PKD
ROOT
HETATM    1  C   UNL     1      -7.928   7.311  73.686  1.00  0.00    -0.133 C  
HETATM    2  C   UNL     1      -9.215   6.898  74.396  1.00  0.00    -0.244 C  
ENDROOT
BRANCH   2   3
HETATM    3  C   UNL     1     -10.352   6.923  73.389  1.00  0.00    -0.337 C  
BRANCH   3   4
HETATM    4  C   UNL     1     -10.003   6.545  71.947  1.00  0.00    -0.177 C  
BRANCH   4   5
HETATM    5  S   UNL     1     -11.261   7.346  70.928  1.00  0.00    -0.276 S  
HETATM    6  O   UNL     1     -11.878   6.346  70.087  1.00  0.00    -0.409 OA 
HETATM    7  O   UNL     1     -12.036   8.185  71.810  1.00  0.00    -0.286 OA 
BRANCH   5   8
HETATM    8  N   UNL     1     -10.422   8.365  69.855  1.00  0.00    -0.219 N  
HETATM    9  H   UNL     1     -10.429   9.385  69.899  1.00  0.00     0.000 HD 
BRANCH   8  10
HETATM   10  C   UNL     1      -9.649   7.535  68.803  1.00  0.00    -0.149 C  
HETATM   11  C   UNL     1      -8.181   7.963  68.804  1.00  0.00    -0.127 C  
HETATM   12  O   UNL     1      -7.254   7.254  68.442  1.00  0.00    -0.085 OA 
HETATM   13  O   UNL     1      -8.001   9.230  69.256  1.00  0.00    -0.091 OA 
BRANCH  10  14
HETATM   14  C   UNL     1     -10.205   7.604  67.369  1.00  0.00    -0.320 C  
BRANCH  14  15
HETATM   15  C   UNL     1     -10.191   8.986  66.764  1.00  0.00    -0.341 A  
HETATM   16  C   UNL     1     -10.919   9.990  67.410  1.00  0.00    -0.258 A  
HETATM   17  C   UNL     1     -11.142  11.210  66.778  1.00  0.00    -0.280 A  
HETATM   18  C   UNL     1     -10.656  11.441  65.489  1.00  0.00    -0.271 A  
HETATM   19  C   UNL     1      -9.559   9.287  65.549  1.00  0.00    -0.291 A  
HETATM   20  C   UNL     1      -9.808  10.502  64.904  1.00  0.00    -0.379 A  
BRANCH  18  21
HETATM   21  O   UNL     1     -10.975  12.531  64.717  1.00  0.00    -0.284 OA 
BRANCH  21  22
HETATM   22  C   UNL     1     -11.490  13.634  65.467  1.00  0.00    -0.305 C  
BRANCH  22  23
HETATM   23  C   UNL     1     -10.564  14.004  66.612  1.00  0.00    -0.274 C  
BRANCH  23  24
HETATM   24  C   UNL     1     -11.258  14.754  67.757  1.00  0.00    -0.323 C  
BRANCH  24  25
HETATM   25  C   UNL     1     -12.026  13.741  68.612  1.00  0.00    -0.401 C  
BRANCH  25  26
HETATM   26  C   UNL     1     -11.403  13.386  69.975  1.00  0.00    -0.009 C  
HETATM   27  C   UNL     1     -11.926  14.368  71.041  1.00  0.00    -0.389 C  
HETATM   28  C   UNL     1     -13.342  14.023  71.500  1.00  0.00    -0.350 C  
HETATM   29  N   UNL     1     -13.375  12.676  72.061  1.00  0.00    -0.504 NA 
HETATM   30  H   UNL     1     -14.280  12.467  72.484  1.00  0.00     0.000 HD 
HETATM   31  C   UNL     1     -13.006  11.679  71.057  1.00  0.00    -0.135 C  
HETATM   32  C   UNL     1     -11.625  11.940  70.451  1.00  0.00    -0.060 C  
ENDBRANCH  25  26
ENDBRANCH  24  25
ENDBRANCH  23  24
ENDBRANCH  22  23
ENDBRANCH  21  22
ENDBRANCH  18  21
ENDBRANCH  14  15
ENDBRANCH  10  14
ENDBRANCH   8  10
ENDBRANCH   5   8
ENDBRANCH   4   5
ENDBRANCH   3   4
ENDBRANCH   2   3
TORSDOF 13
ENDMDL
MODEL      240
REMARK 921   NORMALIZED FREE ENERGY PREDICTED BY IDOCK:   -3.27 KCAL/MOL
REMARK 922        TOTAL FREE ENERGY PREDICTED BY IDOCK:   -8.30 KCAL/MOL
REMARK 923 INTER-LIGAND FREE ENERGY PREDICTED BY IDOCK:   -7.01 KCAL/MOL
REMARK 924 INTRA-LIGAND FREE ENERGY PREDICTED BY IDOCK:   -1.29 KCAL/MOL
REMARK 927      BINDING AFFINITY PREDICTED BY RF-SCORE:    0.00 PKD
ROOT
HETATM    1  C   UNL     1     -10.820   3.602  63.522  1.00  0.00    -0.194 C  
HETATM    2  C   UNL     1      -9.659   2.822  64.135  1.00  0.00    -0.144 C  
ENDROOT
BRANCH   2   3
HETATM    3  C   UNL     1      -8.900   3.743  65.074  1.00  0.00    -0.122 C  
BRANCH   3   4
HETATM    4  C   UNL     1      -7.420   3.981  64.758  1.00  0.00    -0.073 C  
BRANCH   4   5
HETATM    5  S   UNL     1      -7.366   5.580  63.920  1.00  0.00    -0.058 S  
HETATM    6  O   UNL     1      -6.104   6.215  64.221  1.00  0.00    -0.025 OA 
HETATM    7  O   UNL     1      -7.801   5.353  62.563  1.00  0.00    -0.067 OA 
BRANCH   5   8
HETATM    8  N   UNL     1      -8.538   6.551  64.680  1.00  0.00    -0.347 N  
HETATM    9  H   UNL     1      -9.489   6.687  64.337  1.00  0.00     0.000 HD 
BRANCH   8  10
HETATM   10  C   UNL     1      -7.964   7.201  65.961  1.00  0.00    -0.112 C  
HETATM   11  C   UNL     1      -8.939   6.981  67.118  1.00  0.00    -0.121 C  
HETATM   12  O   UNL     1      -8.621   6.969  68.297  1.00  0.00    -0.128 OA 
HETATM   13  O   UNL     1     -10.217   6.794  66.702  1.00  0.00    -0.197 OA 
BRANCH  10  14
HETATM   14  C   UNL     1      -7.629   8.700  65.847  1.00  0.00    -0.089 C  
BRANCH  14  15
HETATM   15  C   UNL     1      -8.673   9.516  65.127  1.00  0.00    -0.200 A  
HETATM   16  C   UNL     1      -8.539   9.676  63.743  1.00  0.00    -0.217 A  
HETATM   17  C   UNL     1      -9.323  10.606  63.067  1.00  0.00    -0.342 A  
HETATM   18  C   UNL     1     -10.239  11.401  63.760  1.00  0.00    -0.382 A  
HETATM   19  C   UNL     1      -9.714  10.188  65.784  1.00  0.00    -0.307 A  
HETATM   20  C   UNL     1     -10.480  11.142  65.108  1.00  0.00    -0.341 A  
BRANCH  18  21
HETATM   21  O   UNL     1     -10.919  12.462  63.217  1.00  0.00    -0.438 OA 
BRANCH  21  22
HETATM   22  C   UNL     1     -12.128  12.783  63.909  1.00  0.00    -0.486 C  
BRANCH  22  23
HETATM   23  C   UNL     1     -12.064  14.174  64.517  1.00  0.00    -0.489 C  
BRANCH  23  24
HETATM   24  C   UNL     1     -12.182  14.189  66.047  1.00  0.00    -0.464 C  
BRANCH  24  25
HETATM   25  C   UNL     1     -10.784  14.374  66.645  1.00  0.00    -0.292 C  
BRANCH  25  26
HETATM   26  C   UNL     1     -10.439  15.785  67.155  1.00  0.00    -0.309 C  
HETATM   27  C   UNL     1     -10.765  15.874  68.659  1.00  0.00    -0.274 C  
HETATM   28  C   UNL     1      -9.697  15.205  69.523  1.00  0.00    -0.165 C  
HETATM   29  N   UNL     1      -8.401  15.837  69.297  1.00  0.00    -0.244 NA 
HETATM   30  H   UNL     1      -7.696  15.491  69.948  1.00  0.00     0.000 HD 
HETATM   31  C   UNL     1      -7.974  15.679  67.907  1.00  0.00    -0.142 C  
HETATM   32  C   UNL     1      -8.991  16.244  66.913  1.00  0.00    -0.242 C  
ENDBRANCH  25  26
ENDBRANCH  24  25
ENDBRANCH  23  24
ENDBRANCH  22  23
ENDBRANCH  21  22
ENDBRANCH  18  21
ENDBRANCH  14  15
ENDBRANCH  10  14
ENDBRANCH   8  10
ENDBRANCH   5   8
ENDBRANCH   4   5
ENDBRANCH   3   4
ENDBRANCH   2   3
TORSDOF 13
ENDMDL
MODEL      241
REMARK 921   NORMALIZED FREE ENERGY PREDICTED BY IDOCK:   -3.26 KCAL/MOL
REMARK 922        TOTAL FREE ENERGY PREDICTED BY IDOCK:   -8.29 KCAL/MOL
REMARK 923 INTER-LIGAND FREE ENERGY PREDICTED BY IDOCK:   -9.42 KCAL/MOL
REMARK 924 INTRA-LIGAND FREE ENERGY PREDICTED BY IDOCK:    1.13 KCAL/MOL
REMARK 927      BINDING AFFINITY PREDICTED BY RF-SCORE:    0.00 PKD
ROOT
HETATM    1  C   UNL     1     -11.253  15.971  70.110  1.00  0.00    -0.376 C  
HETATM    2  C   UNL     1      -9.978  16.031  69.272  1.00  0.00    -0.252 C  
ENDROOT
BRANCH   2   3
HETATM    3  C   UNL     1      -9.966  14.846  68.322  1.00  0.00    -0.222 C  
BRANCH   3   4
HETATM    4  C   UNL     1      -9.282  15.057  66.968  1.00  0.00    -0.230 C  
BRANCH   4   5
HETATM    5  S   UNL     1     -10.622  15.077  65.758  1.00  0.00    -0.364 S  
HETATM    6  O   UNL     1     -11.755  14.374  66.313  1.00  0.00    -0.370 OA 
HETATM    7  O   UNL     1     -10.726  16.434  65.277  1.00  0.00    -0.501 OA 
BRANCH   5   8
HETATM    8  N   UNL     1     -10.100  14.111  64.458  1.00  0.00    -0.595 N  
HETATM    9  H   UNL     1      -9.442  14.413  63.739  1.00  0.00     0.000 HD 
BRANCH   8  10
HETATM   10  C   UNL     1     -10.759  12.713  64.516  1.00  0.00    -0.341 C  
HETATM   11  C   UNL     1     -12.002  12.705  63.625  1.00  0.00    -0.535 C  
HETATM   12  O   UNL     1     -12.480  11.703  63.115  1.00  0.00    -0.427 OA 
HETATM   13  O   UNL     1     -12.534  13.941  63.451  1.00  0.00    -0.833 OA 
BRANCH  10  14
HETATM   14  C   UNL     1     -11.132  12.217  65.926  1.00  0.00    -0.360 C  
BRANCH  14  15
HETATM   15  C   UNL     1     -10.198  11.174  66.484  1.00  0.00    -0.275 A  
HETATM   16  C   UNL     1     -10.408   9.841  66.113  1.00  0.00    -0.215 A  
HETATM   17  C   UNL     1      -9.740   8.816  66.777  1.00  0.00    -0.286 A  
HETATM   18  C   UNL     1      -8.867   9.101  67.829  1.00  0.00    -0.124 A  
HETATM   19  C   UNL     1      -9.190  11.462  67.417  1.00  0.00    -0.164 A  
HETATM   20  C   UNL     1      -8.543  10.430  68.101  1.00  0.00    -0.125 A  
BRANCH  18  21
HETATM   21  O   UNL     1      -8.307   8.160  68.656  1.00  0.00    -0.124 OA 
BRANCH  21  22
HETATM   22  C   UNL     1      -8.568   6.814  68.254  1.00  0.00    -0.124 C  
BRANCH  22  23
HETATM   23  C   UNL     1      -8.860   5.926  69.452  1.00  0.00    -0.122 C  
BRANCH  23  24
HETATM   24  C   UNL     1     -10.316   5.449  69.532  1.00  0.00    -0.350 C  
BRANCH  24  25
HETATM   25  C   UNL     1     -11.223   6.671  69.702  1.00  0.00    -0.397 C  
BRANCH  25  26
HETATM   26  C   UNL     1     -11.679   6.991  71.138  1.00  0.00    -0.366 C  
HETATM   27  C   UNL     1     -11.029   5.987  72.111  1.00  0.00    -0.314 C  
HETATM   28  C   UNL     1      -9.569   6.329  72.405  1.00  0.00    -0.150 C  
HETATM   29  N   UNL     1      -9.474   7.663  72.990  1.00  0.00    -0.201 NA 
HETATM   30  H   UNL     1      -8.526   7.867  73.306  1.00  0.00     0.000 HD 
HETATM   31  C   UNL     1      -9.964   8.681  72.061  1.00  0.00    -0.329 C  
HETATM   32  C   UNL     1     -11.406   8.426  71.618  1.00  0.00    -0.349 C  
ENDBRANCH  25  26
ENDBRANCH  24  25
ENDBRANCH  23  24
ENDBRANCH  22  23
ENDBRANCH  21  22
ENDBRANCH  18  21
ENDBRANCH  14  15
ENDBRANCH  10  14
ENDBRANCH   8  10
ENDBRANCH   5   8
ENDBRANCH   4   5
ENDBRANCH   3   4
ENDBRANCH   2   3
TORSDOF 13
ENDMDL
MODEL      242
REMARK 921   NORMALIZED FREE ENERGY PREDICTED BY IDOCK:   -3.25 KCAL/MOL
REMARK 922        TOTAL FREE ENERGY PREDICTED BY IDOCK:   -8.27 KCAL/MOL
REMARK 923 INTER-LIGAND FREE ENERGY PREDICTED BY IDOCK:   -6.84 KCAL/MOL
REMARK 924 INTRA-LIGAND FREE ENERGY PREDICTED BY IDOCK:   -1.42 KCAL/MOL
REMARK 927      BINDING AFFINITY PREDICTED BY RF-SCORE:    0.00 PKD
ROOT
HETATM    1  C   UNL     1     -12.554  13.052  70.872  1.00  0.00    -0.364 C  
HETATM    2  C   UNL     1     -11.970  13.937  69.773  1.00  0.00    -0.398 C  
ENDROOT
BRANCH   2   3
HETATM    3  C   UNL     1     -11.686  13.073  68.556  1.00  0.00    -0.377 C  
BRANCH   3   4
HETATM    4  C   UNL     1     -11.856  13.736  67.186  1.00  0.00    -0.406 C  
BRANCH   4   5
HETATM    5  S   UNL     1     -11.193  12.548  65.999  1.00  0.00    -0.332 S  
HETATM    6  O   UNL     1     -12.287  12.012  65.224  1.00  0.00    -0.442 OA 
HETATM    7  O   UNL     1     -10.052  13.176  65.376  1.00  0.00    -0.289 OA 
BRANCH   5   8
HETATM    8  N   UNL     1     -10.618  11.235  66.915  1.00  0.00    -0.245 N  
HETATM    9  H   UNL     1     -11.071  10.871  67.754  1.00  0.00     0.000 HD 
BRANCH   8  10
HETATM   10  C   UNL     1      -9.316  10.668  66.302  1.00  0.00    -0.171 C  
HETATM   11  C   UNL     1      -9.448   9.151  66.152  1.00  0.00    -0.245 C  
HETATM   12  O   UNL     1      -8.827   8.480  65.342  1.00  0.00    -0.179 OA 
HETATM   13  O   UNL     1     -10.341   8.612  67.020  1.00  0.00    -0.270 OA 
BRANCH  10  14
HETATM   14  C   UNL     1      -8.025  10.998  67.074  1.00  0.00    -0.137 C  
BRANCH  14  15
HETATM   15  C   UNL     1      -7.752  10.087  68.244  1.00  0.00    -0.084 A  
HETATM   16  C   UNL     1      -6.935   8.972  68.028  1.00  0.00    -0.077 A  
HETATM   17  C   UNL     1      -6.844   7.973  68.994  1.00  0.00    -0.057 A  
HETATM   18  C   UNL     1      -7.577   8.063  70.179  1.00  0.00    -0.081 A  
HETATM   19  C   UNL     1      -8.343  10.255  69.505  1.00  0.00    -0.162 A  
HETATM   20  C   UNL     1      -8.273   9.237  70.460  1.00  0.00    -0.219 A  
BRANCH  18  21
HETATM   21  O   UNL     1      -7.695   7.054  71.102  1.00  0.00    -0.089 OA 
BRANCH  21  22
HETATM   22  C   UNL     1      -8.306   5.870  70.584  1.00  0.00    -0.124 C  
BRANCH  22  23
HETATM   23  C   UNL     1      -8.946   5.049  71.691  1.00  0.00    -0.152 C  
BRANCH  23  24
HETATM   24  C   UNL     1     -10.471   4.926  71.572  1.00  0.00    -0.179 C  
BRANCH  24  25
HETATM   25  C   UNL     1     -11.106   6.237  72.044  1.00  0.00    -0.313 C  
BRANCH  25  26
HETATM   26  C   UNL     1     -11.885   7.041  70.986  1.00  0.00    -0.395 C  
HETATM   27  C   UNL     1     -13.394   6.781  71.162  1.00  0.00     0.011 C  
HETATM   28  C   UNL     1     -13.985   7.576  72.326  1.00  0.00     0.067 C  
HETATM   29  N   UNL     1     -13.787   9.005  72.110  1.00  0.00    -0.454 NA 
HETATM   30  H   UNL     1     -14.277   9.562  72.810  1.00  0.00     0.000 HD 
HETATM   31  C   UNL     1     -12.364   9.337  72.056  1.00  0.00    -0.363 C  
HETATM   32  C   UNL     1     -11.619   8.555  70.972  1.00  0.00    -0.317 C  
ENDBRANCH  25  26
ENDBRANCH  24  25
ENDBRANCH  23  24
ENDBRANCH  22  23
ENDBRANCH  21  22
ENDBRANCH  18  21
ENDBRANCH  14  15
ENDBRANCH  10  14
ENDBRANCH   8  10
ENDBRANCH   5   8
ENDBRANCH   4   5
ENDBRANCH   3   4
ENDBRANCH   2   3
TORSDOF 13
ENDMDL
MODEL      243
REMARK 921   NORMALIZED FREE ENERGY PREDICTED BY IDOCK:   -3.22 KCAL/MOL
REMARK 922        TOTAL FREE ENERGY PREDICTED BY IDOCK:   -8.22 KCAL/MOL
REMARK 923 INTER-LIGAND FREE ENERGY PREDICTED BY IDOCK:   -6.86 KCAL/MOL
REMARK 924 INTRA-LIGAND FREE ENERGY PREDICTED BY IDOCK:   -1.36 KCAL/MOL
REMARK 927      BINDING AFFINITY PREDICTED BY RF-SCORE:    0.00 PKD
ROOT
HETATM    1  C   UNL     1     -12.275  11.909  63.308  1.00  0.00    -0.487 C  
HETATM    2  C   UNL     1     -12.252  12.178  64.810  1.00  0.00    -0.341 C  
ENDROOT
BRANCH   2   3
HETATM    3  C   UNL     1     -10.854  12.625  65.200  1.00  0.00    -0.321 C  
BRANCH   3   4
HETATM    4  C   UNL     1     -10.305  13.867  64.490  1.00  0.00    -0.232 C  
BRANCH   4   5
HETATM    5  S   UNL     1     -10.696  15.250  65.585  1.00  0.00    -0.388 S  
HETATM    6  O   UNL     1     -10.814  16.449  64.788  1.00  0.00    -0.697 OA 
HETATM    7  O   UNL     1     -11.756  14.803  66.455  1.00  0.00    -0.350 OA 
BRANCH   5   8
HETATM    8  N   UNL     1      -9.313  15.497  66.545  1.00  0.00    -0.259 N  
HETATM    9  H   UNL     1      -8.457  15.949  66.223  1.00  0.00     0.000 HD 
BRANCH   8  10
HETATM   10  C   UNL     1      -9.532  14.942  67.972  1.00  0.00    -0.198 C  
HETATM   11  C   UNL     1      -9.864  16.098  68.917  1.00  0.00    -0.239 C  
HETATM   12  O   UNL     1     -10.495  15.982  69.957  1.00  0.00    -0.296 OA 
HETATM   13  O   UNL     1      -9.382  17.289  68.482  1.00  0.00    -0.262 OA 
BRANCH  10  14
HETATM   14  C   UNL     1      -8.361  14.125  68.549  1.00  0.00    -0.155 C  
BRANCH  14  15
HETATM   15  C   UNL     1      -8.278  12.710  68.034  1.00  0.00    -0.167 A  
HETATM   16  C   UNL     1      -7.236  12.393  67.156  1.00  0.00    -0.081 A  
HETATM   17  C   UNL     1      -7.246  11.186  66.463  1.00  0.00    -0.124 A  
HETATM   18  C   UNL     1      -8.301  10.285  66.622  1.00  0.00    -0.125 A  
HETATM   19  C   UNL     1      -9.238  11.729  68.320  1.00  0.00    -0.188 A  
HETATM   20  C   UNL     1      -9.262  10.530  67.602  1.00  0.00    -0.153 A  
BRANCH  18  21
HETATM   21  O   UNL     1      -8.493   9.163  65.855  1.00  0.00    -0.130 OA 
BRANCH  21  22
HETATM   22  C   UNL     1      -7.310   8.382  65.676  1.00  0.00    -0.076 C  
BRANCH  22  23
HETATM   23  C   UNL     1      -6.576   8.181  66.990  1.00  0.00    -0.058 C  
BRANCH  23  24
HETATM   24  C   UNL     1      -6.673   6.754  67.546  1.00  0.00    -0.070 C  
BRANCH  24  25
HETATM   25  C   UNL     1      -7.783   6.011  66.796  1.00  0.00    -0.100 C  
BRANCH  25  26
HETATM   26  C   UNL     1      -8.794   5.238  67.662  1.00  0.00    -0.105 C  
HETATM   27  C   UNL     1      -9.083   6.042  68.944  1.00  0.00    -0.121 C  
HETATM   28  C   UNL     1     -10.049   7.200  68.696  1.00  0.00    -0.173 C  
HETATM   29  N   UNL     1     -11.316   6.694  68.176  1.00  0.00    -0.556 NA 
HETATM   30  H   UNL     1     -12.018   7.432  68.116  1.00  0.00     0.000 HD 
HETATM   31  C   UNL     1     -11.126   6.023  66.891  1.00  0.00    -0.165 C  
HETATM   32  C   UNL     1     -10.119   4.874  66.971  1.00  0.00    -0.243 C  
ENDBRANCH  25  26
ENDBRANCH  24  25
ENDBRANCH  23  24
ENDBRANCH  22  23
ENDBRANCH  21  22
ENDBRANCH  18  21
ENDBRANCH  14  15
ENDBRANCH  10  14
ENDBRANCH   8  10
ENDBRANCH   5   8
ENDBRANCH   4   5
ENDBRANCH   3   4
ENDBRANCH   2   3
TORSDOF 13
ENDMDL
MODEL      244
REMARK 921   NORMALIZED FREE ENERGY PREDICTED BY IDOCK:   -3.22 KCAL/MOL
REMARK 922        TOTAL FREE ENERGY PREDICTED BY IDOCK:   -8.20 KCAL/MOL
REMARK 923 INTER-LIGAND FREE ENERGY PREDICTED BY IDOCK:   -6.52 KCAL/MOL
REMARK 924 INTRA-LIGAND FREE ENERGY PREDICTED BY IDOCK:   -1.68 KCAL/MOL
REMARK 927      BINDING AFFINITY PREDICTED BY RF-SCORE:    0.00 PKD
ROOT
HETATM    1  C   UNL     1     -12.675  14.257  65.677  1.00  0.00    -0.395 C  
HETATM    2  C   UNL     1     -11.189  14.608  65.680  1.00  0.00    -0.342 C  
ENDROOT
BRANCH   2   3
HETATM    3  C   UNL     1     -10.448  13.570  66.504  1.00  0.00    -0.284 C  
BRANCH   3   4
HETATM    4  C   UNL     1      -9.615  12.543  65.730  1.00  0.00    -0.129 C  
BRANCH   4   5
HETATM    5  S   UNL     1     -10.764  11.212  65.319  1.00  0.00    -0.153 S  
HETATM    6  O   UNL     1     -11.634  10.990  66.450  1.00  0.00    -0.147 OA 
HETATM    7  O   UNL     1     -11.281  11.502  64.003  1.00  0.00    -0.369 OA 
BRANCH   5   8
HETATM    8  N   UNL     1      -9.826   9.798  65.202  1.00  0.00    -0.405 N  
HETATM    9  H   UNL     1      -9.611   9.316  64.329  1.00  0.00     0.000 HD 
BRANCH   8  10
HETATM   10  C   UNL     1      -9.345   9.343  66.600  1.00  0.00    -0.163 C  
HETATM   11  C   UNL     1      -7.844   9.607  66.727  1.00  0.00    -0.102 C  
HETATM   12  O   UNL     1      -7.259   9.775  67.786  1.00  0.00    -0.086 OA 
HETATM   13  O   UNL     1      -7.211   9.640  65.527  1.00  0.00    -0.091 OA 
BRANCH  10  14
HETATM   14  C   UNL     1      -9.641   7.873  66.954  1.00  0.00    -0.263 C  
BRANCH  14  15
HETATM   15  C   UNL     1     -10.437   7.689  68.221  1.00  0.00    -0.219 A  
HETATM   16  C   UNL     1     -10.537   8.776  69.095  1.00  0.00    -0.200 A  
HETATM   17  C   UNL     1     -11.046   8.598  70.379  1.00  0.00    -0.250 A  
HETATM   18  C   UNL     1     -11.449   7.334  70.814  1.00  0.00    -0.299 A  
HETATM   19  C   UNL     1     -11.005   6.464  68.602  1.00  0.00    -0.404 A  
HETATM   20  C   UNL     1     -11.489   6.282  69.900  1.00  0.00    -0.459 A  
BRANCH  18  21
HETATM   21  O   UNL     1     -11.789   7.025  72.107  1.00  0.00    -0.283 OA 
BRANCH  21  22
HETATM   22  C   UNL     1     -10.839   7.476  73.075  1.00  0.00    -0.392 C  
BRANCH  22  23
HETATM   23  C   UNL     1      -9.705   6.479  73.241  1.00  0.00    -0.181 C  
BRANCH  23  24
HETATM   24  C   UNL     1     -10.173   5.054  73.573  1.00  0.00    -0.226 C  
BRANCH  24  25
HETATM   25  C   UNL     1      -9.021   4.084  73.293  1.00  0.00    -0.108 C  
BRANCH  25  26
HETATM   26  C   UNL     1      -9.263   3.036  72.191  1.00  0.00    -0.160 C  
HETATM   27  C   UNL     1      -9.414   3.752  70.835  1.00  0.00    -0.236 C  
HETATM   28  C   UNL     1      -8.067   4.180  70.253  1.00  0.00    -0.058 C  
HETATM   29  N   UNL     1      -7.210   3.014  70.064  1.00  0.00    -0.040 NA 
HETATM   30  H   UNL     1      -6.352   3.256  69.566  1.00  0.00     0.000 HD 
HETATM   31  C   UNL     1      -6.926   2.357  71.339  1.00  0.00    -0.032 C  
HETATM   32  C   UNL     1      -8.198   1.933  72.077  1.00  0.00    -0.049 C  
ENDBRANCH  25  26
ENDBRANCH  24  25
ENDBRANCH  23  24
ENDBRANCH  22  23
ENDBRANCH  21  22
ENDBRANCH  18  21
ENDBRANCH  14  15
ENDBRANCH  10  14
ENDBRANCH   8  10
ENDBRANCH   5   8
ENDBRANCH   4   5
ENDBRANCH   3   4
ENDBRANCH   2   3
TORSDOF 13
ENDMDL
MODEL      245
REMARK 921   NORMALIZED FREE ENERGY PREDICTED BY IDOCK:   -3.21 KCAL/MOL
REMARK 922        TOTAL FREE ENERGY PREDICTED BY IDOCK:   -8.20 KCAL/MOL
REMARK 923 INTER-LIGAND FREE ENERGY PREDICTED BY IDOCK:   -6.50 KCAL/MOL
REMARK 924 INTRA-LIGAND FREE ENERGY PREDICTED BY IDOCK:   -1.70 KCAL/MOL
REMARK 927      BINDING AFFINITY PREDICTED BY RF-SCORE:    0.00 PKD
ROOT
HETATM    1  C   UNL     1      -9.813  13.218  65.043  1.00  0.00    -0.065 C  
HETATM    2  C   UNL     1      -9.863  13.062  66.561  1.00  0.00    -0.263 C  
ENDROOT
BRANCH   2   3
HETATM    3  C   UNL     1      -9.670  14.428  67.195  1.00  0.00    -0.248 C  
BRANCH   3   4
HETATM    4  C   UNL     1     -10.867  15.382  67.154  1.00  0.00    -0.321 C  
BRANCH   4   5
HETATM    5  S   UNL     1     -10.224  16.922  66.464  1.00  0.00    -0.311 S  
HETATM    6  O   UNL     1     -10.587  16.988  65.067  1.00  0.00    -0.703 OA 
HETATM    7  O   UNL     1     -10.571  17.970  67.393  1.00  0.00    -0.386 OA 
BRANCH   5   8
HETATM    8  N   UNL     1      -8.529  16.770  66.470  1.00  0.00    -0.256 N  
HETATM    9  H   UNL     1      -8.011  16.040  65.981  1.00  0.00     0.000 HD 
BRANCH   8  10
HETATM   10  C   UNL     1      -7.883  17.891  67.317  1.00  0.00    -0.213 C  
HETATM   11  C   UNL     1      -7.404  19.011  66.391  1.00  0.00    -0.245 C  
HETATM   12  O   UNL     1      -7.262  20.175  66.731  1.00  0.00    -0.235 OA 
HETATM   13  O   UNL     1      -7.150  18.579  65.130  1.00  0.00    -0.483 OA 
BRANCH  10  14
HETATM   14  C   UNL     1      -6.723  17.445  68.227  1.00  0.00    -0.183 C  
BRANCH  14  15
HETATM   15  C   UNL     1      -6.670  15.960  68.481  1.00  0.00    -0.123 A  
HETATM   16  C   UNL     1      -7.120  15.491  69.720  1.00  0.00    -0.119 A  
HETATM   17  C   UNL     1      -6.874  14.175  70.102  1.00  0.00     0.122 A  
HETATM   18  C   UNL     1      -6.163  13.313  69.264  1.00  0.00    -0.104 A  
HETATM   19  C   UNL     1      -6.115  15.044  67.575  1.00  0.00    -0.024 A  
HETATM   20  C   UNL     1      -5.843  13.732  67.973  1.00  0.00    -0.133 A  
BRANCH  18  21
HETATM   21  O   UNL     1      -5.715  12.067  69.623  1.00  0.00    -0.076 OA 
BRANCH  21  22
HETATM   22  C   UNL     1      -6.711  11.047  69.519  1.00  0.00    -0.126 C  
BRANCH  22  23
HETATM   23  C   UNL     1      -7.132  10.831  68.076  1.00  0.00    -0.081 C  
BRANCH  23  24
HETATM   24  C   UNL     1      -6.808   9.431  67.536  1.00  0.00    -0.076 C  
BRANCH  24  25
HETATM   25  C   UNL     1      -7.892   8.460  68.012  1.00  0.00    -0.111 C  
BRANCH  25  26
HETATM   26  C   UNL     1      -9.351   8.918  67.826  1.00  0.00    -0.157 C  
HETATM   27  C   UNL     1     -10.049   7.986  66.816  1.00  0.00    -0.357 C  
HETATM   28  C   UNL     1     -10.456   6.654  67.443  1.00  0.00    -0.260 C  
HETATM   29  N   UNL     1     -11.365   6.882  68.561  1.00  0.00    -0.527 NA 
HETATM   30  H   UNL     1     -11.746   6.006  68.920  1.00  0.00     0.000 HD 
HETATM   31  C   UNL     1     -10.717   7.661  69.616  1.00  0.00    -0.228 C  
HETATM   32  C   UNL     1     -10.189   9.006  69.112  1.00  0.00    -0.213 C  
ENDBRANCH  25  26
ENDBRANCH  24  25
ENDBRANCH  23  24
ENDBRANCH  22  23
ENDBRANCH  21  22
ENDBRANCH  18  21
ENDBRANCH  14  15
ENDBRANCH  10  14
ENDBRANCH   8  10
ENDBRANCH   5   8
ENDBRANCH   4   5
ENDBRANCH   3   4
ENDBRANCH   2   3
TORSDOF 13
ENDMDL
MODEL      246
REMARK 921   NORMALIZED FREE ENERGY PREDICTED BY IDOCK:   -3.21 KCAL/MOL
REMARK 922        TOTAL FREE ENERGY PREDICTED BY IDOCK:   -8.19 KCAL/MOL
REMARK 923 INTER-LIGAND FREE ENERGY PREDICTED BY IDOCK:   -6.94 KCAL/MOL
REMARK 924 INTRA-LIGAND FREE ENERGY PREDICTED BY IDOCK:   -1.25 KCAL/MOL
REMARK 927      BINDING AFFINITY PREDICTED BY RF-SCORE:    0.00 PKD
ROOT
HETATM    1  C   UNL     1     -12.037  13.152  63.764  1.00  0.00    -0.563 C  
HETATM    2  C   UNL     1     -12.619  14.216  64.691  1.00  0.00    -0.285 C  
ENDROOT
BRANCH   2   3
HETATM    3  C   UNL     1     -12.113  13.961  66.100  1.00  0.00    -0.478 C  
BRANCH   3   4
HETATM    4  C   UNL     1     -10.969  14.854  66.592  1.00  0.00    -0.325 C  
BRANCH   4   5
HETATM    5  S   UNL     1      -9.648  13.716  67.061  1.00  0.00    -0.259 S  
HETATM    6  O   UNL     1      -9.666  13.556  68.497  1.00  0.00    -0.222 OA 
HETATM    7  O   UNL     1      -9.734  12.588  66.166  1.00  0.00    -0.254 OA 
BRANCH   5   8
HETATM    8  N   UNL     1      -8.188  14.525  66.729  1.00  0.00    -0.386 N  
HETATM    9  H   UNL     1      -8.051  15.180  65.959  1.00  0.00     0.000 HD 
BRANCH   8  10
HETATM   10  C   UNL     1      -7.098  14.130  67.753  1.00  0.00    -0.174 C  
HETATM   11  C   UNL     1      -6.128  15.299  67.932  1.00  0.00    -0.153 C  
HETATM   12  O   UNL     1      -5.452  15.489  68.932  1.00  0.00    -0.097 OA 
HETATM   13  O   UNL     1      -6.090  16.123  66.855  1.00  0.00    -0.321 OA 
BRANCH  10  14
HETATM   14  C   UNL     1      -6.308  12.852  67.416  1.00  0.00    -0.119 C  
BRANCH  14  15
HETATM   15  C   UNL     1      -6.489  11.731  68.409  1.00  0.00    -0.053 A  
HETATM   16  C   UNL     1      -7.464  10.766  68.134  1.00  0.00    -0.091 A  
HETATM   17  C   UNL     1      -7.842   9.854  69.116  1.00  0.00    -0.105 A  
HETATM   18  C   UNL     1      -7.268   9.902  70.388  1.00  0.00    -0.134 A  
HETATM   19  C   UNL     1      -5.794  11.660  69.625  1.00  0.00    -0.091 A  
HETATM   20  C   UNL     1      -6.196  10.763  70.618  1.00  0.00    -0.030 A  
BRANCH  18  21
HETATM   21  O   UNL     1      -7.700   9.173  71.468  1.00  0.00    -0.325 OA 
BRANCH  21  22
HETATM   22  C   UNL     1      -6.863   8.058  71.781  1.00  0.00    -0.067 C  
BRANCH  22  23
HETATM   23  C   UNL     1      -7.400   6.775  71.171  1.00  0.00    -0.079 C  
BRANCH  23  24
HETATM   24  C   UNL     1      -8.852   6.462  71.559  1.00  0.00    -0.137 C  
BRANCH  24  25
HETATM   25  C   UNL     1      -9.448   5.524  70.506  1.00  0.00    -0.209 C  
BRANCH  25  26
HETATM   26  C   UNL     1     -10.878   5.847  70.033  1.00  0.00    -0.421 C  
HETATM   27  C   UNL     1     -11.481   6.930  70.948  1.00  0.00    -0.368 C  
HETATM   28  C   UNL     1     -10.960   8.327  70.612  1.00  0.00    -0.240 C  
HETATM   29  N   UNL     1     -11.282   8.664  69.229  1.00  0.00    -0.417 NA 
HETATM   30  H   UNL     1     -11.053   9.635  69.015  1.00  0.00     0.000 HD 
HETATM   31  C   UNL     1     -10.634   7.740  68.298  1.00  0.00    -0.117 C  
HETATM   32  C   UNL     1     -11.010   6.280  68.563  1.00  0.00    -0.421 C  
ENDBRANCH  25  26
ENDBRANCH  24  25
ENDBRANCH  23  24
ENDBRANCH  22  23
ENDBRANCH  21  22
ENDBRANCH  18  21
ENDBRANCH  14  15
ENDBRANCH  10  14
ENDBRANCH   8  10
ENDBRANCH   5   8
ENDBRANCH   4   5
ENDBRANCH   3   4
ENDBRANCH   2   3
TORSDOF 13
ENDMDL
MODEL      247
REMARK 921   NORMALIZED FREE ENERGY PREDICTED BY IDOCK:   -3.21 KCAL/MOL
REMARK 922        TOTAL FREE ENERGY PREDICTED BY IDOCK:   -8.19 KCAL/MOL
REMARK 923 INTER-LIGAND FREE ENERGY PREDICTED BY IDOCK:   -7.62 KCAL/MOL
REMARK 924 INTRA-LIGAND FREE ENERGY PREDICTED BY IDOCK:   -0.57 KCAL/MOL
REMARK 927      BINDING AFFINITY PREDICTED BY RF-SCORE:    0.00 PKD
ROOT
HETATM    1  C   UNL     1     -12.552  13.739  69.878  1.00  0.00    -0.147 C  
HETATM    2  C   UNL     1     -12.179  12.835  71.050  1.00  0.00    -0.202 C  
ENDROOT
BRANCH   2   3
HETATM    3  C   UNL     1     -12.176  11.395  70.568  1.00  0.00    -0.478 C  
BRANCH   3   4
HETATM    4  C   UNL     1     -12.127  11.176  69.053  1.00  0.00    -0.246 C  
BRANCH   4   5
HETATM    5  S   UNL     1     -10.657  10.166  68.767  1.00  0.00    -0.225 S  
HETATM    6  O   UNL     1      -9.810  10.245  69.934  1.00  0.00    -0.211 OA 
HETATM    7  O   UNL     1     -11.117   8.904  68.241  1.00  0.00     0.044 OA 
BRANCH   5   8
HETATM    8  N   UNL     1      -9.780  10.947  67.536  1.00  0.00    -0.166 N  
HETATM    9  H   UNL     1      -8.764  11.036  67.515  1.00  0.00     0.000 HD 
BRANCH   8  10
HETATM   10  C   UNL     1     -10.735  11.503  66.452  1.00  0.00    -0.273 C  
HETATM   11  C   UNL     1     -10.181  11.159  65.069  1.00  0.00    -0.296 C  
HETATM   12  O   UNL     1     -10.860  11.058  64.058  1.00  0.00    -0.361 OA 
HETATM   13  O   UNL     1      -8.837  10.973  65.070  1.00  0.00    -0.173 OA 
BRANCH  10  14
HETATM   14  C   UNL     1     -11.016  13.014  66.534  1.00  0.00    -0.307 C  
BRANCH  14  15
HETATM   15  C   UNL     1      -9.778  13.874  66.577  1.00  0.00    -0.303 A  
HETATM   16  C   UNL     1      -8.724  13.463  67.399  1.00  0.00    -0.209 A  
HETATM   17  C   UNL     1      -7.666  14.327  67.667  1.00  0.00    -0.190 A  
HETATM   18  C   UNL     1      -7.651  15.618  67.134  1.00  0.00    -0.223 A  
HETATM   19  C   UNL     1      -9.670  15.102  65.907  1.00  0.00    -0.385 A  
HETATM   20  C   UNL     1      -8.621  15.978  66.200  1.00  0.00    -0.315 A  
BRANCH  18  21
HETATM   21  O   UNL     1      -6.755  16.597  67.483  1.00  0.00    -0.131 OA 
BRANCH  21  22
HETATM   22  C   UNL     1      -5.909  17.011  66.407  1.00  0.00    -0.039 C  
BRANCH  22  23
HETATM   23  C   UNL     1      -5.557  18.484  66.517  1.00  0.00    -0.173 C  
BRANCH  23  24
HETATM   24  C   UNL     1      -6.307  19.379  65.520  1.00  0.00    -0.274 C  
BRANCH  24  25
HETATM   25  C   UNL     1      -7.800  19.345  65.858  1.00  0.00    -0.230 C  
BRANCH  25  26
HETATM   26  C   UNL     1      -8.293  20.383  66.884  1.00  0.00    -0.313 C  
HETATM   27  C   UNL     1      -9.834  20.381  66.906  1.00  0.00    -0.572 C  
HETATM   28  C   UNL     1     -10.400  19.202  67.696  1.00  0.00    -0.430 C  
HETATM   29  N   UNL     1      -9.921  19.246  69.074  1.00  0.00    -0.505 NA 
HETATM   30  H   UNL     1     -10.378  18.541  69.653  1.00  0.00     0.000 HD 
HETATM   31  C   UNL     1      -8.465  19.127  69.129  1.00  0.00    -0.099 C  
HETATM   32  C   UNL     1      -7.756  20.211  68.314  1.00  0.00    -0.186 C  
ENDBRANCH  25  26
ENDBRANCH  24  25
ENDBRANCH  23  24
ENDBRANCH  22  23
ENDBRANCH  21  22
ENDBRANCH  18  21
ENDBRANCH  14  15
ENDBRANCH  10  14
ENDBRANCH   8  10
ENDBRANCH   5   8
ENDBRANCH   4   5
ENDBRANCH   3   4
ENDBRANCH   2   3
TORSDOF 13
ENDMDL
MODEL      248
REMARK 921   NORMALIZED FREE ENERGY PREDICTED BY IDOCK:   -3.21 KCAL/MOL
REMARK 922        TOTAL FREE ENERGY PREDICTED BY IDOCK:   -8.19 KCAL/MOL
REMARK 923 INTER-LIGAND FREE ENERGY PREDICTED BY IDOCK:   -7.03 KCAL/MOL
REMARK 924 INTRA-LIGAND FREE ENERGY PREDICTED BY IDOCK:   -1.15 KCAL/MOL
REMARK 927      BINDING AFFINITY PREDICTED BY RF-SCORE:    0.00 PKD
ROOT
HETATM    1  C   UNL     1      -7.914   5.470  64.404  1.00  0.00    -0.120 C  
HETATM    2  C   UNL     1      -8.985   4.521  64.938  1.00  0.00    -0.151 C  
ENDROOT
BRANCH   2   3
HETATM    3  C   UNL     1      -9.103   4.722  66.439  1.00  0.00    -0.119 C  
BRANCH   3   4
HETATM    4  C   UNL     1      -7.804   4.654  67.247  1.00  0.00    -0.090 C  
BRANCH   4   5
HETATM    5  S   UNL     1      -8.137   5.585  68.758  1.00  0.00    -0.099 S  
HETATM    6  O   UNL     1      -7.935   4.712  69.891  1.00  0.00    -0.066 OA 
HETATM    7  O   UNL     1      -7.442   6.844  68.631  1.00  0.00    -0.094 OA 
BRANCH   5   8
HETATM    8  N   UNL     1      -9.806   5.917  68.751  1.00  0.00    -0.133 N  
HETATM    9  H   UNL     1     -10.535   5.218  68.609  1.00  0.00     0.000 HD 
BRANCH   8  10
HETATM   10  C   UNL     1     -10.065   7.423  68.990  1.00  0.00    -0.193 C  
HETATM   11  C   UNL     1     -10.893   7.596  70.264  1.00  0.00    -0.246 C  
HETATM   12  O   UNL     1     -10.900   8.605  70.953  1.00  0.00    -0.222 OA 
HETATM   13  O   UNL     1     -11.633   6.499  70.565  1.00  0.00    -0.361 OA 
BRANCH  10  14
HETATM   14  C   UNL     1     -10.748   8.167  67.828  1.00  0.00    -0.166 C  
BRANCH  14  15
HETATM   15  C   UNL     1     -10.520   9.658  67.826  1.00  0.00    -0.309 A  
HETATM   16  C   UNL     1      -9.202  10.118  67.913  1.00  0.00    -0.144 A  
HETATM   17  C   UNL     1      -8.945  11.464  68.159  1.00  0.00    -0.169 A  
HETATM   18  C   UNL     1      -9.995  12.367  68.338  1.00  0.00    -0.210 A  
HETATM   19  C   UNL     1     -11.562  10.597  67.830  1.00  0.00    -0.132 A  
HETATM   20  C   UNL     1     -11.303  11.942  68.106  1.00  0.00    -0.350 A  
BRANCH  18  21
HETATM   21  O   UNL     1      -9.847  13.664  68.761  1.00  0.00    -0.176 OA 
BRANCH  21  22
HETATM   22  C   UNL     1      -8.986  14.444  67.930  1.00  0.00    -0.186 C  
BRANCH  22  23
HETATM   23  C   UNL     1      -7.924  15.157  68.750  1.00  0.00    -0.162 C  
BRANCH  23  24
HETATM   24  C   UNL     1      -8.330  16.566  69.204  1.00  0.00    -0.157 C  
BRANCH  24  25
HETATM   25  C   UNL     1      -9.067  17.258  68.054  1.00  0.00    -0.249 C  
BRANCH  25  26
HETATM   26  C   UNL     1      -9.564  18.690  68.323  1.00  0.00    -0.382 C  
HETATM   27  C   UNL     1      -8.399  19.678  68.114  1.00  0.00    -0.347 C  
HETATM   28  C   UNL     1      -8.134  19.955  66.635  1.00  0.00    -0.319 C  
HETATM   29  N   UNL     1      -9.327  20.513  66.007  1.00  0.00    -0.609 NA 
HETATM   30  H   UNL     1      -9.141  20.818  65.052  1.00  0.00     0.000 HD 
HETATM   31  C   UNL     1     -10.442  19.568  66.063  1.00  0.00    -0.516 C  
HETATM   32  C   UNL     1     -10.778  19.141  67.494  1.00  0.00    -0.555 C  
ENDBRANCH  25  26
ENDBRANCH  24  25
ENDBRANCH  23  24
ENDBRANCH  22  23
ENDBRANCH  21  22
ENDBRANCH  18  21
ENDBRANCH  14  15
ENDBRANCH  10  14
ENDBRANCH   8  10
ENDBRANCH   5   8
ENDBRANCH   4   5
ENDBRANCH   3   4
ENDBRANCH   2   3
TORSDOF 13
ENDMDL
MODEL      249
REMARK 921   NORMALIZED FREE ENERGY PREDICTED BY IDOCK:   -3.20 KCAL/MOL
REMARK 922        TOTAL FREE ENERGY PREDICTED BY IDOCK:   -8.18 KCAL/MOL
REMARK 923 INTER-LIGAND FREE ENERGY PREDICTED BY IDOCK:   -6.41 KCAL/MOL
REMARK 924 INTRA-LIGAND FREE ENERGY PREDICTED BY IDOCK:   -1.77 KCAL/MOL
REMARK 927      BINDING AFFINITY PREDICTED BY RF-SCORE:    0.00 PKD
ROOT
HETATM    1  C   UNL     1     -10.726  14.778  66.109  1.00  0.00    -0.314 C  
HETATM    2  C   UNL     1     -10.648  14.660  67.630  1.00  0.00    -0.256 C  
ENDROOT
BRANCH   2   3
HETATM    3  C   UNL     1     -10.044  15.938  68.184  1.00  0.00    -0.229 C  
BRANCH   3   4
HETATM    4  C   UNL     1     -10.995  17.124  68.370  1.00  0.00    -0.221 C  
BRANCH   4   5
HETATM    5  S   UNL     1     -10.165  18.525  67.589  1.00  0.00    -0.408 S  
HETATM    6  O   UNL     1     -10.892  18.883  66.393  1.00  0.00    -0.325 OA 
HETATM    7  O   UNL     1      -9.895  19.483  68.634  1.00  0.00    -0.398 OA 
BRANCH   5   8
HETATM    8  N   UNL     1      -8.668  17.937  67.033  1.00  0.00    -0.239 N  
HETATM    9  H   UNL     1      -8.551  17.101  66.459  1.00  0.00     0.000 HD 
BRANCH   8  10
HETATM   10  C   UNL     1      -7.511  18.842  67.516  1.00  0.00    -0.228 C  
HETATM   11  C   UNL     1      -7.065  19.747  66.367  1.00  0.00    -0.236 C  
HETATM   12  O   UNL     1      -6.514  20.828  66.512  1.00  0.00    -0.243 OA 
HETATM   13  O   UNL     1      -7.346  19.226  65.146  1.00  0.00    -0.359 OA 
BRANCH  10  14
HETATM   14  C   UNL     1      -6.290  18.101  68.092  1.00  0.00    -0.190 C  
BRANCH  14  15
HETATM   15  C   UNL     1      -6.512  16.628  68.327  1.00  0.00    -0.133 A  
HETATM   16  C   UNL     1      -6.934  16.225  69.598  1.00  0.00    -0.086 A  
HETATM   17  C   UNL     1      -6.923  14.877  69.945  1.00  0.00    -0.143 A  
HETATM   18  C   UNL     1      -6.476  13.914  69.037  1.00  0.00    -0.103 A  
HETATM   19  C   UNL     1      -6.235  15.645  67.366  1.00  0.00    -0.110 A  
HETATM   20  C   UNL     1      -6.197  14.295  67.726  1.00  0.00    -0.152 A  
BRANCH  18  21
HETATM   21  O   UNL     1      -6.257  12.594  69.343  1.00  0.00    -0.098 OA 
BRANCH  21  22
HETATM   22  C   UNL     1      -6.930  11.683  68.473  1.00  0.00    -0.085 C  
BRANCH  22  23
HETATM   23  C   UNL     1      -7.616  10.576  69.255  1.00  0.00    -0.134 C  
BRANCH  23  24
HETATM   24  C   UNL     1      -8.807   9.941  68.523  1.00  0.00    -0.122 C  
BRANCH  24  25
HETATM   25  C   UNL     1      -8.287   9.223  67.274  1.00  0.00    -0.125 C  
BRANCH  25  26
HETATM   26  C   UNL     1      -9.264   9.123  66.087  1.00  0.00    -0.259 C  
HETATM   27  C   UNL     1     -10.198  10.349  66.096  1.00  0.00    -0.288 C  
HETATM   28  C   UNL     1      -9.517  11.599  65.542  1.00  0.00    -0.195 C  
HETATM   29  N   UNL     1      -9.077  11.366  64.170  1.00  0.00    -0.404 NA 
HETATM   30  H   UNL     1      -8.728  12.222  63.737  1.00  0.00     0.000 HD 
HETATM   31  C   UNL     1      -8.089  10.290  64.110  1.00  0.00    -0.138 C  
HETATM   32  C   UNL     1      -8.613   8.979  64.702  1.00  0.00    -0.190 C  
ENDBRANCH  25  26
ENDBRANCH  24  25
ENDBRANCH  23  24
ENDBRANCH  22  23
ENDBRANCH  21  22
ENDBRANCH  18  21
ENDBRANCH  14  15
ENDBRANCH  10  14
ENDBRANCH   8  10
ENDBRANCH   5   8
ENDBRANCH   4   5
ENDBRANCH   3   4
ENDBRANCH   2   3
TORSDOF 13
ENDMDL
MODEL      250
REMARK 921   NORMALIZED FREE ENERGY PREDICTED BY IDOCK:   -3.20 KCAL/MOL
REMARK 922        TOTAL FREE ENERGY PREDICTED BY IDOCK:   -8.17 KCAL/MOL
REMARK 923 INTER-LIGAND FREE ENERGY PREDICTED BY IDOCK:   -6.72 KCAL/MOL
REMARK 924 INTRA-LIGAND FREE ENERGY PREDICTED BY IDOCK:   -1.45 KCAL/MOL
REMARK 927      BINDING AFFINITY PREDICTED BY RF-SCORE:    0.00 PKD
ROOT
HETATM    1  C   UNL     1      -8.859   7.771  72.178  1.00  0.00    -0.176 C  
HETATM    2  C   UNL     1      -9.028   7.590  70.671  1.00  0.00    -0.154 C  
ENDROOT
BRANCH   2   3
HETATM    3  C   UNL     1     -10.107   6.549  70.427  1.00  0.00    -0.213 C  
BRANCH   3   4
HETATM    4  C   UNL     1     -10.057   5.289  71.297  1.00  0.00    -0.213 C  
BRANCH   4   5
HETATM    5  S   UNL     1      -8.915   4.175  70.452  1.00  0.00    -0.102 S  
HETATM    6  O   UNL     1      -7.614   4.295  71.068  1.00  0.00    -0.056 OA 
HETATM    7  O   UNL     1      -9.588   2.904  70.331  1.00  0.00    -0.153 OA 
BRANCH   5   8
HETATM    8  N   UNL     1      -8.716   4.802  68.883  1.00  0.00    -0.088 N  
HETATM    9  H   UNL     1      -8.356   5.733  68.672  1.00  0.00     0.000 HD 
BRANCH   8  10
HETATM   10  C   UNL     1      -9.157   3.768  67.820  1.00  0.00    -0.157 C  
HETATM   11  C   UNL     1      -7.921   3.054  67.269  1.00  0.00    -0.077 C  
HETATM   12  O   UNL     1      -7.932   1.938  66.774  1.00  0.00    -0.069 OA 
HETATM   13  O   UNL     1      -6.789   3.793  67.387  1.00  0.00    -0.052 OA 
BRANCH  10  14
HETATM   14  C   UNL     1      -9.988   4.333  66.654  1.00  0.00    -0.202 C  
BRANCH  14  15
HETATM   15  C   UNL     1      -9.913   5.832  66.509  1.00  0.00    -0.202 A  
HETATM   16  C   UNL     1      -8.788   6.373  65.877  1.00  0.00    -0.142 A  
HETATM   17  C   UNL     1      -8.547   7.743  65.928  1.00  0.00    -0.170 A  
HETATM   18  C   UNL     1      -9.412   8.591  66.622  1.00  0.00    -0.207 A  
HETATM   19  C   UNL     1     -10.867   6.707  67.049  1.00  0.00    -0.467 A  
HETATM   20  C   UNL     1     -10.607   8.078  67.124  1.00  0.00    -0.367 A  
BRANCH  18  21
HETATM   21  O   UNL     1      -9.166   9.916  66.882  1.00  0.00    -0.143 OA 
BRANCH  21  22
HETATM   22  C   UNL     1      -9.867  10.811  66.016  1.00  0.00    -0.235 C  
BRANCH  22  23
HETATM   23  C   UNL     1     -10.283  12.075  66.748  1.00  0.00    -0.225 C  
BRANCH  23  24
HETATM   24  C   UNL     1     -11.769  12.427  66.587  1.00  0.00    -0.438 C  
BRANCH  24  25
HETATM   25  C   UNL     1     -12.110  13.564  67.554  1.00  0.00    -0.340 C  
BRANCH  25  26
HETATM   26  C   UNL     1     -11.296  13.619  68.861  1.00  0.00    -0.332 C  
HETATM   27  C   UNL     1     -10.486  14.929  68.898  1.00  0.00    -0.242 C  
HETATM   28  C   UNL     1     -11.347  16.131  69.282  1.00  0.00    -0.328 C  
HETATM   29  N   UNL     1     -11.943  15.922  70.598  1.00  0.00    -0.405 NA 
HETATM   30  H   UNL     1     -12.424  16.759  70.930  1.00  0.00     0.000 HD 
HETATM   31  C   UNL     1     -12.826  14.757  70.597  1.00  0.00    -0.343 C  
HETATM   32  C   UNL     1     -12.110  13.478  70.158  1.00  0.00    -0.425 C  
ENDBRANCH  25  26
ENDBRANCH  24  25
ENDBRANCH  23  24
ENDBRANCH  22  23
ENDBRANCH  21  22
ENDBRANCH  18  21
ENDBRANCH  14  15
ENDBRANCH  10  14
ENDBRANCH   8  10
ENDBRANCH   5   8
ENDBRANCH   4   5
ENDBRANCH   3   4
ENDBRANCH   2   3
TORSDOF 13
ENDMDL
MODEL      251
REMARK 921   NORMALIZED FREE ENERGY PREDICTED BY IDOCK:   -3.19 KCAL/MOL
REMARK 922        TOTAL FREE ENERGY PREDICTED BY IDOCK:   -8.16 KCAL/MOL
REMARK 923 INTER-LIGAND FREE ENERGY PREDICTED BY IDOCK:   -7.17 KCAL/MOL
REMARK 924 INTRA-LIGAND FREE ENERGY PREDICTED BY IDOCK:   -0.99 KCAL/MOL
REMARK 927      BINDING AFFINITY PREDICTED BY RF-SCORE:    0.00 PKD
ROOT
HETATM    1  C   UNL     1     -10.374   9.196  67.857  1.00  0.00    -0.285 C  
HETATM    2  C   UNL     1      -9.055   8.548  67.442  1.00  0.00    -0.148 C  
ENDROOT
BRANCH   2   3
HETATM    3  C   UNL     1      -8.839   7.305  68.288  1.00  0.00    -0.127 C  
BRANCH   3   4
HETATM    4  C   UNL     1     -10.046   6.794  69.080  1.00  0.00    -0.171 C  
BRANCH   4   5
HETATM    5  S   UNL     1      -9.461   5.312  69.931  1.00  0.00    -0.168 S  
HETATM    6  O   UNL     1     -10.027   4.153  69.281  1.00  0.00    -0.138 OA 
HETATM    7  O   UNL     1      -8.037   5.469  70.108  1.00  0.00    -0.094 OA 
BRANCH   5   8
HETATM    8  N   UNL     1     -10.175   5.341  71.475  1.00  0.00    -0.205 N  
HETATM    9  H   UNL     1     -10.689   4.564  71.891  1.00  0.00     0.000 HD 
BRANCH   8  10
HETATM   10  C   UNL     1      -9.939   6.707  72.162  1.00  0.00    -0.160 C  
HETATM   11  C   UNL     1      -8.751   6.592  73.118  1.00  0.00    -0.123 C  
HETATM   12  O   UNL     1      -8.050   7.530  73.466  1.00  0.00    -0.113 OA 
HETATM   13  O   UNL     1      -8.544   5.323  73.551  1.00  0.00    -0.112 OA 
BRANCH  10  14
HETATM   14  C   UNL     1     -11.152   7.286  72.915  1.00  0.00    -0.369 C  
BRANCH  14  15
HETATM   15  C   UNL     1     -11.784   8.481  72.247  1.00  0.00    -0.443 A  
HETATM   16  C   UNL     1     -10.959   9.321  71.491  1.00  0.00    -0.446 A  
HETATM   17  C   UNL     1     -11.427  10.557  71.057  1.00  0.00    -0.207 A  
HETATM   18  C   UNL     1     -12.717  10.982  71.382  1.00  0.00    -0.429 A  
HETATM   19  C   UNL     1     -13.130   8.836  72.418  1.00  0.00    -0.444 A  
HETATM   20  C   UNL     1     -13.589  10.090  72.006  1.00  0.00    -0.366 A  
BRANCH  18  21
HETATM   21  O   UNL     1     -13.203  12.246  71.160  1.00  0.00    -0.125 OA 
BRANCH  21  22
HETATM   22  C   UNL     1     -12.189  13.253  71.126  1.00  0.00    -0.113 C  
BRANCH  22  23
HETATM   23  C   UNL     1     -12.657  14.482  70.366  1.00  0.00    -0.405 C  
BRANCH  23  24
HETATM   24  C   UNL     1     -11.787  14.831  69.150  1.00  0.00    -0.340 C  
BRANCH  24  25
HETATM   25  C   UNL     1     -11.425  13.534  68.420  1.00  0.00    -0.346 C  
BRANCH  25  26
HETATM   26  C   UNL     1     -10.231  13.606  67.450  1.00  0.00    -0.241 C  
HETATM   27  C   UNL     1     -10.398  14.830  66.529  1.00  0.00    -0.287 C  
HETATM   28  C   UNL     1     -10.021  16.135  67.228  1.00  0.00    -0.248 C  
HETATM   29  N   UNL     1      -8.632  16.083  67.674  1.00  0.00    -0.164 NA 
HETATM   30  H   UNL     1      -8.320  16.985  68.035  1.00  0.00     0.000 HD 
HETATM   31  C   UNL     1      -8.433  15.013  68.650  1.00  0.00    -0.168 C  
HETATM   32  C   UNL     1      -8.841  13.641  68.109  1.00  0.00    -0.189 C  
ENDBRANCH  25  26
ENDBRANCH  24  25
ENDBRANCH  23  24
ENDBRANCH  22  23
ENDBRANCH  21  22
ENDBRANCH  18  21
ENDBRANCH  14  15
ENDBRANCH  10  14
ENDBRANCH   8  10
ENDBRANCH   5   8
ENDBRANCH   4   5
ENDBRANCH   3   4
ENDBRANCH   2   3
TORSDOF 13
ENDMDL
MODEL      252
REMARK 921   NORMALIZED FREE ENERGY PREDICTED BY IDOCK:   -3.18 KCAL/MOL
REMARK 922        TOTAL FREE ENERGY PREDICTED BY IDOCK:   -8.15 KCAL/MOL
REMARK 923 INTER-LIGAND FREE ENERGY PREDICTED BY IDOCK:   -5.48 KCAL/MOL
REMARK 924 INTRA-LIGAND FREE ENERGY PREDICTED BY IDOCK:   -2.67 KCAL/MOL
REMARK 927      BINDING AFFINITY PREDICTED BY RF-SCORE:    0.00 PKD
ROOT
HETATM    1  C   UNL     1      -7.134   8.794  71.427  1.00  0.00    -0.099 C  
HETATM    2  C   UNL     1      -7.839   9.590  70.331  1.00  0.00    -0.190 C  
ENDROOT
BRANCH   2   3
HETATM    3  C   UNL     1      -6.806  10.431  69.602  1.00  0.00    -0.108 C  
BRANCH   3   4
HETATM    4  C   UNL     1      -6.697  10.227  68.088  1.00  0.00    -0.058 C  
BRANCH   4   5
HETATM    5  S   UNL     1      -6.671  11.890  67.385  1.00  0.00    -0.139 S  
HETATM    6  O   UNL     1      -6.717  12.848  68.466  1.00  0.00    -0.077 OA 
HETATM    7  O   UNL     1      -5.622  11.906  66.395  1.00  0.00    -0.284 OA 
BRANCH   5   8
HETATM    8  N   UNL     1      -8.151  12.081  66.568  1.00  0.00    -0.388 N  
HETATM    9  H   UNL     1      -8.461  12.946  66.124  1.00  0.00     0.000 HD 
BRANCH   8  10
HETATM   10  C   UNL     1      -8.963  10.764  66.590  1.00  0.00    -0.153 C  
HETATM   11  C   UNL     1      -8.910  10.117  65.206  1.00  0.00    -0.178 C  
HETATM   12  O   UNL     1      -9.055   8.922  64.996  1.00  0.00    -0.165 OA 
HETATM   13  O   UNL     1      -8.682  11.013  64.213  1.00  0.00    -0.066 OA 
BRANCH  10  14
HETATM   14  C   UNL     1     -10.429  10.900  67.040  1.00  0.00    -0.291 C  
BRANCH  14  15
HETATM   15  C   UNL     1     -10.837   9.934  68.124  1.00  0.00    -0.282 A  
HETATM   16  C   UNL     1     -11.411  10.460  69.287  1.00  0.00    -0.281 A  
HETATM   17  C   UNL     1     -11.583   9.653  70.408  1.00  0.00    -0.299 A  
HETATM   18  C   UNL     1     -11.172   8.319  70.394  1.00  0.00    -0.219 A  
HETATM   19  C   UNL     1     -10.592   8.555  68.058  1.00  0.00    -0.197 A  
HETATM   20  C   UNL     1     -10.738   7.755  69.195  1.00  0.00    -0.139 A  
BRANCH  18  21
HETATM   21  O   UNL     1     -11.131   7.502  71.496  1.00  0.00    -0.233 OA 
BRANCH  21  22
HETATM   22  C   UNL     1     -11.027   8.210  72.732  1.00  0.00    -0.330 C  
BRANCH  22  23
HETATM   23  C   UNL     1     -10.029   7.547  73.667  1.00  0.00    -0.347 C  
BRANCH  23  24
HETATM   24  C   UNL     1     -10.025   6.014  73.585  1.00  0.00    -0.199 C  
BRANCH  24  25
HETATM   25  C   UNL     1      -8.698   5.561  72.967  1.00  0.00    -0.121 C  
BRANCH  25  26
HETATM   26  C   UNL     1      -8.709   5.283  71.452  1.00  0.00    -0.137 C  
HETATM   27  C   UNL     1      -7.269   5.005  70.978  1.00  0.00    -0.060 C  
HETATM   28  C   UNL     1      -6.811   3.589  71.322  1.00  0.00    -0.032 C  
HETATM   29  N   UNL     1      -7.696   2.609  70.701  1.00  0.00    -0.042 NA 
HETATM   30  H   UNL     1      -7.343   1.658  70.815  1.00  0.00     0.000 HD 
HETATM   31  C   UNL     1      -9.063   2.741  71.205  1.00  0.00    -0.112 C  
HETATM   32  C   UNL     1      -9.634   4.145  70.991  1.00  0.00    -0.253 C  
ENDBRANCH  25  26
ENDBRANCH  24  25
ENDBRANCH  23  24
ENDBRANCH  22  23
ENDBRANCH  21  22
ENDBRANCH  18  21
ENDBRANCH  14  15
ENDBRANCH  10  14
ENDBRANCH   8  10
ENDBRANCH   5   8
ENDBRANCH   4   5
ENDBRANCH   3   4
ENDBRANCH   2   3
TORSDOF 13
ENDMDL
MODEL      253
REMARK 921   NORMALIZED FREE ENERGY PREDICTED BY IDOCK:   -3.16 KCAL/MOL
REMARK 922        TOTAL FREE ENERGY PREDICTED BY IDOCK:   -8.11 KCAL/MOL
REMARK 923 INTER-LIGAND FREE ENERGY PREDICTED BY IDOCK:   -7.26 KCAL/MOL
REMARK 924 INTRA-LIGAND FREE ENERGY PREDICTED BY IDOCK:   -0.85 KCAL/MOL
REMARK 927      BINDING AFFINITY PREDICTED BY RF-SCORE:    0.00 PKD
ROOT
HETATM    1  C   UNL     1      -7.953  19.625  68.909  1.00  0.00    -0.285 C  
HETATM    2  C   UNL     1      -7.361  19.087  67.609  1.00  0.00    -0.245 C  
ENDROOT
BRANCH   2   3
HETATM    3  C   UNL     1      -8.492  18.558  66.744  1.00  0.00    -0.290 C  
BRANCH   3   4
HETATM    4  C   UNL     1      -8.407  17.087  66.324  1.00  0.00    -0.273 C  
BRANCH   4   5
HETATM    5  S   UNL     1     -10.121  16.548  66.136  1.00  0.00    -0.358 S  
HETATM    6  O   UNL     1     -10.776  16.641  67.420  1.00  0.00    -0.316 OA 
HETATM    7  O   UNL     1     -10.639  17.212  64.964  1.00  0.00    -0.704 OA 
BRANCH   5   8
HETATM    8  N   UNL     1     -10.057  14.882  65.796  1.00  0.00    -0.319 N  
HETATM    9  H   UNL     1      -9.600  14.474  64.979  1.00  0.00     0.000 HD 
BRANCH   8  10
HETATM   10  C   UNL     1     -10.786  14.071  66.893  1.00  0.00    -0.290 C  
HETATM   11  C   UNL     1      -9.750  13.377  67.778  1.00  0.00    -0.216 C  
HETATM   12  O   UNL     1      -9.945  13.040  68.936  1.00  0.00    -0.066 OA 
HETATM   13  O   UNL     1      -8.569  13.168  67.143  1.00  0.00    -0.197 OA 
BRANCH  10  14
HETATM   14  C   UNL     1     -11.804  13.035  66.381  1.00  0.00    -0.465 C  
BRANCH  14  15
HETATM   15  C   UNL     1     -11.221  11.668  66.124  1.00  0.00    -0.314 A  
HETATM   16  C   UNL     1     -11.408  10.683  67.099  1.00  0.00    -0.046 A  
HETATM   17  C   UNL     1     -10.696   9.488  67.033  1.00  0.00    -0.220 A  
HETATM   18  C   UNL     1      -9.777   9.264  66.006  1.00  0.00    -0.289 A  
HETATM   19  C   UNL     1     -10.433  11.365  65.003  1.00  0.00    -0.361 A  
HETATM   20  C   UNL     1      -9.698  10.178  64.955  1.00  0.00    -0.384 A  
BRANCH  18  21
HETATM   21  O   UNL     1      -8.903   8.208  65.956  1.00  0.00    -0.157 OA 
BRANCH  21  22
HETATM   22  C   UNL     1      -7.592   8.524  66.429  1.00  0.00    -0.091 C  
BRANCH  22  23
HETATM   23  C   UNL     1      -7.543   8.549  67.947  1.00  0.00    -0.098 C  
BRANCH  23  24
HETATM   24  C   UNL     1      -7.554   7.157  68.593  1.00  0.00    -0.111 C  
BRANCH  24  25
HETATM   25  C   UNL     1      -8.846   7.002  69.400  1.00  0.00    -0.136 C  
BRANCH  25  26
HETATM   26  C   UNL     1      -8.708   6.369  70.797  1.00  0.00    -0.140 C  
HETATM   27  C   UNL     1      -7.318   6.707  71.371  1.00  0.00    -0.083 C  
HETATM   28  C   UNL     1      -7.248   8.133  71.915  1.00  0.00    -0.087 C  
HETATM   29  N   UNL     1      -8.238   8.317  72.971  1.00  0.00    -0.272 NA 
HETATM   30  H   UNL     1      -8.131   9.221  73.433  1.00  0.00     0.000 HD 
HETATM   31  C   UNL     1      -9.595   8.130  72.459  1.00  0.00    -0.277 C  
HETATM   32  C   UNL     1      -9.795   6.757  71.814  1.00  0.00    -0.170 C  
ENDBRANCH  25  26
ENDBRANCH  24  25
ENDBRANCH  23  24
ENDBRANCH  22  23
ENDBRANCH  21  22
ENDBRANCH  18  21
ENDBRANCH  14  15
ENDBRANCH  10  14
ENDBRANCH   8  10
ENDBRANCH   5   8
ENDBRANCH   4   5
ENDBRANCH   3   4
ENDBRANCH   2   3
TORSDOF 13
ENDMDL
MODEL      254
REMARK 921   NORMALIZED FREE ENERGY PREDICTED BY IDOCK:   -3.16 KCAL/MOL
REMARK 922        TOTAL FREE ENERGY PREDICTED BY IDOCK:   -8.11 KCAL/MOL
REMARK 923 INTER-LIGAND FREE ENERGY PREDICTED BY IDOCK:   -6.72 KCAL/MOL
REMARK 924 INTRA-LIGAND FREE ENERGY PREDICTED BY IDOCK:   -1.38 KCAL/MOL
REMARK 927      BINDING AFFINITY PREDICTED BY RF-SCORE:    0.00 PKD
ROOT
HETATM    1  C   UNL     1     -12.400  14.820  70.545  1.00  0.00    -0.398 C  
HETATM    2  C   UNL     1     -11.190  15.696  70.228  1.00  0.00    -0.357 C  
ENDROOT
BRANCH   2   3
HETATM    3  C   UNL     1     -10.617  15.265  68.890  1.00  0.00    -0.242 C  
BRANCH   3   4
HETATM    4  C   UNL     1     -11.077  16.053  67.659  1.00  0.00    -0.243 C  
BRANCH   4   5
HETATM    5  S   UNL     1     -11.047  14.866  66.298  1.00  0.00    -0.328 S  
HETATM    6  O   UNL     1     -12.407  14.496  65.980  1.00  0.00    -0.332 OA 
HETATM    7  O   UNL     1     -10.148  15.398  65.303  1.00  0.00    -0.349 OA 
BRANCH   5   8
HETATM    8  N   UNL     1     -10.342  13.449  66.922  1.00  0.00    -0.255 N  
HETATM    9  H   UNL     1      -9.390  13.387  67.287  1.00  0.00     0.000 HD 
BRANCH   8  10
HETATM   10  C   UNL     1     -11.339  12.268  66.862  1.00  0.00    -0.333 C  
HETATM   11  C   UNL     1     -11.364  11.559  68.217  1.00  0.00    -0.286 C  
HETATM   12  O   UNL     1     -12.306  10.906  68.638  1.00  0.00    -0.501 OA 
HETATM   13  O   UNL     1     -10.217  11.730  68.922  1.00  0.00    -0.188 OA 
BRANCH  10  14
HETATM   14  C   UNL     1     -11.076  11.239  65.747  1.00  0.00    -0.153 C  
BRANCH  14  15
HETATM   15  C   UNL     1      -9.845  10.395  65.960  1.00  0.00    -0.289 A  
HETATM   16  C   UNL     1     -10.016   9.105  66.475  1.00  0.00    -0.359 A  
HETATM   17  C   UNL     1      -8.916   8.376  66.917  1.00  0.00    -0.168 A  
HETATM   18  C   UNL     1      -7.633   8.925  66.868  1.00  0.00    -0.087 A  
HETATM   19  C   UNL     1      -8.541  10.868  65.751  1.00  0.00    -0.176 A  
HETATM   20  C   UNL     1      -7.442  10.146  66.222  1.00  0.00    -0.112 A  
BRANCH  18  21
HETATM   21  O   UNL     1      -6.521   8.363  67.443  1.00  0.00    -0.056 OA 
BRANCH  21  22
HETATM   22  C   UNL     1      -6.487   6.937  67.355  1.00  0.00    -0.049 C  
BRANCH  22  23
HETATM   23  C   UNL     1      -6.240   6.306  68.714  1.00  0.00    -0.036 C  
BRANCH  23  24
HETATM   24  C   UNL     1      -7.453   5.553  69.280  1.00  0.00    -0.078 C  
BRANCH  24  25
HETATM   25  C   UNL     1      -7.613   4.237  68.512  1.00  0.00    -0.063 C  
BRANCH  25  26
HETATM   26  C   UNL     1      -9.054   3.724  68.330  1.00  0.00    -0.193 C  
HETATM   27  C   UNL     1      -9.853   4.744  67.496  1.00  0.00    -0.206 C  
HETATM   28  C   UNL     1      -9.537   4.646  66.004  1.00  0.00    -0.185 C  
HETATM   29  N   UNL     1      -9.846   3.308  65.512  1.00  0.00    -0.390 NA 
HETATM   30  H   UNL     1      -9.758   3.251  64.497  1.00  0.00     0.000 HD 
HETATM   31  C   UNL     1      -9.026   2.299  66.181  1.00  0.00    -0.108 C  
HETATM   32  C   UNL     1      -9.187   2.326  67.702  1.00  0.00    -0.207 C  
ENDBRANCH  25  26
ENDBRANCH  24  25
ENDBRANCH  23  24
ENDBRANCH  22  23
ENDBRANCH  21  22
ENDBRANCH  18  21
ENDBRANCH  14  15
ENDBRANCH  10  14
ENDBRANCH   8  10
ENDBRANCH   5   8
ENDBRANCH   4   5
ENDBRANCH   3   4
ENDBRANCH   2   3
TORSDOF 13
ENDMDL
MODEL      255
REMARK 921   NORMALIZED FREE ENERGY PREDICTED BY IDOCK:   -3.15 KCAL/MOL
REMARK 922        TOTAL FREE ENERGY PREDICTED BY IDOCK:   -8.09 KCAL/MOL
REMARK 923 INTER-LIGAND FREE ENERGY PREDICTED BY IDOCK:   -6.91 KCAL/MOL
REMARK 924 INTRA-LIGAND FREE ENERGY PREDICTED BY IDOCK:   -1.18 KCAL/MOL
REMARK 927      BINDING AFFINITY PREDICTED BY RF-SCORE:    0.00 PKD
ROOT
HETATM    1  C   UNL     1      -9.929   4.639  70.605  1.00  0.00    -0.293 C  
HETATM    2  C   UNL     1     -10.725   5.540  71.546  1.00  0.00    -0.290 C  
ENDROOT
BRANCH   2   3
HETATM    3  C   UNL     1      -9.952   6.832  71.748  1.00  0.00    -0.184 C  
BRANCH   3   4
HETATM    4  C   UNL     1     -10.715   7.998  72.383  1.00  0.00    -0.320 C  
BRANCH   4   5
HETATM    5  S   UNL     1     -11.571   8.807  71.014  1.00  0.00    -0.287 S  
HETATM    6  O   UNL     1     -12.993   8.622  71.187  1.00  0.00    -0.212 OA 
HETATM    7  O   UNL     1     -10.982  10.117  70.873  1.00  0.00    -0.318 OA 
BRANCH   5   8
HETATM    8  N   UNL     1     -11.179   7.915  69.619  1.00  0.00    -0.448 N  
HETATM    9  H   UNL     1     -11.451   6.946  69.455  1.00  0.00     0.000 HD 
BRANCH   8  10
HETATM   10  C   UNL     1     -10.351   8.775  68.635  1.00  0.00    -0.205 C  
HETATM   11  C   UNL     1     -10.601   8.287  67.207  1.00  0.00    -0.265 C  
HETATM   12  O   UNL     1     -10.470   8.978  66.208  1.00  0.00    -0.179 OA 
HETATM   13  O   UNL     1     -10.991   6.989  67.154  1.00  0.00    -0.357 OA 
BRANCH  10  14
HETATM   14  C   UNL     1      -8.836   8.817  68.908  1.00  0.00    -0.137 C  
BRANCH  14  15
HETATM   15  C   UNL     1      -8.169  10.108  68.504  1.00  0.00    -0.111 A  
HETATM   16  C   UNL     1      -6.773  10.174  68.577  1.00  0.00    -0.057 A  
HETATM   17  C   UNL     1      -6.123  11.399  68.454  1.00  0.00    -0.045 A  
HETATM   18  C   UNL     1      -6.853  12.575  68.272  1.00  0.00    -0.082 A  
HETATM   19  C   UNL     1      -8.880  11.263  68.146  1.00  0.00    -0.159 A  
HETATM   20  C   UNL     1      -8.227  12.495  68.052  1.00  0.00    -0.166 A  
BRANCH  18  21
HETATM   21  O   UNL     1      -6.321  13.840  68.322  1.00  0.00    -0.086 OA 
BRANCH  21  22
HETATM   22  C   UNL     1      -6.841  14.640  69.385  1.00  0.00    -0.159 C  
BRANCH  22  23
HETATM   23  C   UNL     1      -7.629  15.824  68.851  1.00  0.00    -0.181 C  
BRANCH  23  24
HETATM   24  C   UNL     1      -9.035  15.959  69.453  1.00  0.00    -0.209 C  
BRANCH  24  25
HETATM   25  C   UNL     1     -10.066  15.641  68.367  1.00  0.00    -0.214 C  
BRANCH  25  26
HETATM   26  C   UNL     1     -11.533  15.543  68.823  1.00  0.00    -0.363 C  
HETATM   27  C   UNL     1     -12.093  14.161  68.436  1.00  0.00    -0.308 C  
HETATM   28  C   UNL     1     -11.631  13.061  69.391  1.00  0.00    -0.299 C  
HETATM   29  N   UNL     1     -12.061  13.365  70.752  1.00  0.00    -0.497 NA 
HETATM   30  H   UNL     1     -11.871  12.589  71.387  1.00  0.00     0.000 HD 
HETATM   31  C   UNL     1     -11.461  14.611  71.227  1.00  0.00    -0.104 C  
HETATM   32  C   UNL     1     -11.783  15.800  70.319  1.00  0.00    -0.373 C  
ENDBRANCH  25  26
ENDBRANCH  24  25
ENDBRANCH  23  24
ENDBRANCH  22  23
ENDBRANCH  21  22
ENDBRANCH  18  21
ENDBRANCH  14  15
ENDBRANCH  10  14
ENDBRANCH   8  10
ENDBRANCH   5   8
ENDBRANCH   4   5
ENDBRANCH   3   4
ENDBRANCH   2   3
TORSDOF 13
ENDMDL
MODEL      256
REMARK 921   NORMALIZED FREE ENERGY PREDICTED BY IDOCK:   -3.15 KCAL/MOL
REMARK 922        TOTAL FREE ENERGY PREDICTED BY IDOCK:   -8.09 KCAL/MOL
REMARK 923 INTER-LIGAND FREE ENERGY PREDICTED BY IDOCK:   -9.04 KCAL/MOL
REMARK 924 INTRA-LIGAND FREE ENERGY PREDICTED BY IDOCK:    0.96 KCAL/MOL
REMARK 927      BINDING AFFINITY PREDICTED BY RF-SCORE:    0.00 PKD
ROOT
HETATM    1  C   UNL     1     -11.711  15.821  70.189  1.00  0.00    -0.367 C  
HETATM    2  C   UNL     1     -10.720  16.777  69.530  1.00  0.00    -0.273 C  
ENDROOT
BRANCH   2   3
HETATM    3  C   UNL     1     -10.170  16.118  68.278  1.00  0.00    -0.248 C  
BRANCH   3   4
HETATM    4  C   UNL     1     -11.191  15.705  67.213  1.00  0.00    -0.184 C  
BRANCH   4   5
HETATM    5  S   UNL     1     -10.476  16.235  65.641  1.00  0.00    -0.327 S  
HETATM    6  O   UNL     1     -10.732  17.646  65.471  1.00  0.00    -0.565 OA 
HETATM    7  O   UNL     1      -9.142  15.688  65.586  1.00  0.00    -0.238 OA 
BRANCH   5   8
HETATM    8  N   UNL     1     -11.392  15.473  64.425  1.00  0.00    -0.727 N  
HETATM    9  H   UNL     1     -11.953  15.964  63.729  1.00  0.00     0.000 HD 
BRANCH   8  10
HETATM   10  C   UNL     1     -11.259  13.935  64.522  1.00  0.00    -0.365 C  
HETATM   11  C   UNL     1     -12.635  13.327  64.799  1.00  0.00    -0.337 C  
HETATM   12  O   UNL     1     -12.956  12.184  64.509  1.00  0.00    -0.677 OA 
HETATM   13  O   UNL     1     -13.482  14.194  65.409  1.00  0.00    -0.648 OA 
BRANCH  10  14
HETATM   14  C   UNL     1     -10.250  13.425  65.568  1.00  0.00    -0.300 C  
BRANCH  14  15
HETATM   15  C   UNL     1     -10.319  11.940  65.823  1.00  0.00    -0.285 A  
HETATM   16  C   UNL     1     -10.830  11.510  67.052  1.00  0.00    -0.320 A  
HETATM   17  C   UNL     1     -10.696  10.180  67.439  1.00  0.00    -0.336 A  
HETATM   18  C   UNL     1     -10.036   9.264  66.617  1.00  0.00    -0.271 A  
HETATM   19  C   UNL     1      -9.818  10.982  64.929  1.00  0.00    -0.327 A  
HETATM   20  C   UNL     1      -9.658   9.653  65.333  1.00  0.00    -0.361 A  
BRANCH  18  21
HETATM   21  O   UNL     1      -9.696   7.986  66.987  1.00  0.00    -0.176 OA 
BRANCH  21  22
HETATM   22  C   UNL     1     -10.061   7.661  68.329  1.00  0.00    -0.186 C  
BRANCH  22  23
HETATM   23  C   UNL     1     -10.828   6.351  68.391  1.00  0.00    -0.383 C  
BRANCH  23  24
HETATM   24  C   UNL     1     -10.468   5.475  69.598  1.00  0.00    -0.379 C  
BRANCH  24  25
HETATM   25  C   UNL     1      -9.090   4.853  69.358  1.00  0.00    -0.149 C  
BRANCH  25  26
HETATM   26  C   UNL     1      -9.005   3.318  69.458  1.00  0.00    -0.176 C  
HETATM   27  C   UNL     1      -9.511   2.695  68.143  1.00  0.00    -0.217 C  
HETATM   28  C   UNL     1      -8.467   2.767  67.029  1.00  0.00    -0.099 C  
HETATM   29  N   UNL     1      -7.253   2.064  67.433  1.00  0.00    -0.054 NA 
HETATM   30  H   UNL     1      -6.587   1.994  66.664  1.00  0.00     0.000 HD 
HETATM   31  C   UNL     1      -6.652   2.687  68.612  1.00  0.00    -0.029 C  
HETATM   32  C   UNL     1      -7.617   2.750  69.798  1.00  0.00    -0.043 C  
ENDBRANCH  25  26
ENDBRANCH  24  25
ENDBRANCH  23  24
ENDBRANCH  22  23
ENDBRANCH  21  22
ENDBRANCH  18  21
ENDBRANCH  14  15
ENDBRANCH  10  14
ENDBRANCH   8  10
ENDBRANCH   5   8
ENDBRANCH   4   5
ENDBRANCH   3   4
ENDBRANCH   2   3
TORSDOF 13
ENDMDL
MODEL      257
REMARK 921   NORMALIZED FREE ENERGY PREDICTED BY IDOCK:   -3.14 KCAL/MOL
REMARK 922        TOTAL FREE ENERGY PREDICTED BY IDOCK:   -8.07 KCAL/MOL
REMARK 923 INTER-LIGAND FREE ENERGY PREDICTED BY IDOCK:   -6.30 KCAL/MOL
REMARK 924 INTRA-LIGAND FREE ENERGY PREDICTED BY IDOCK:   -1.78 KCAL/MOL
REMARK 927      BINDING AFFINITY PREDICTED BY RF-SCORE:    0.00 PKD
ROOT
HETATM    1  C   UNL     1     -12.456  13.478  70.616  1.00  0.00    -0.405 C  
HETATM    2  C   UNL     1     -12.335  14.589  69.574  1.00  0.00    -0.247 C  
ENDROOT
BRANCH   2   3
HETATM    3  C   UNL     1     -11.539  14.060  68.394  1.00  0.00    -0.366 C  
BRANCH   3   4
HETATM    4  C   UNL     1     -12.112  14.335  67.000  1.00  0.00    -0.390 C  
BRANCH   4   5
HETATM    5  S   UNL     1     -11.450  13.025  65.948  1.00  0.00    -0.355 S  
HETATM    6  O   UNL     1     -12.550  12.229  65.456  1.00  0.00    -0.548 OA 
HETATM    7  O   UNL     1     -10.500  13.647  65.058  1.00  0.00    -0.347 OA 
BRANCH   5   8
HETATM    8  N   UNL     1     -10.582  11.985  66.978  1.00  0.00    -0.221 N  
HETATM    9  H   UNL     1     -10.571  12.054  67.996  1.00  0.00     0.000 HD 
BRANCH   8  10
HETATM   10  C   UNL     1      -9.812  10.922  66.160  1.00  0.00    -0.222 C  
HETATM   11  C   UNL     1     -10.119   9.533  66.723  1.00  0.00    -0.245 C  
HETATM   12  O   UNL     1     -10.043   8.495  66.082  1.00  0.00    -0.221 OA 
HETATM   13  O   UNL     1     -10.495   9.563  68.026  1.00  0.00    -0.206 OA 
BRANCH  10  14
HETATM   14  C   UNL     1      -8.286  11.122  66.089  1.00  0.00    -0.144 C  
BRANCH  14  15
HETATM   15  C   UNL     1      -7.574  10.938  67.405  1.00  0.00    -0.100 A  
HETATM   16  C   UNL     1      -6.799   9.786  67.574  1.00  0.00    -0.082 A  
HETATM   17  C   UNL     1      -6.320   9.442  68.836  1.00  0.00    -0.043 A  
HETATM   18  C   UNL     1      -6.620  10.232  69.948  1.00  0.00    -0.114 A  
HETATM   19  C   UNL     1      -7.722  11.815  68.490  1.00  0.00    -0.137 A  
HETATM   20  C   UNL     1      -7.265  11.453  69.760  1.00  0.00     0.192 A  
BRANCH  18  21
HETATM   21  O   UNL     1      -6.352   9.883  71.248  1.00  0.00    -0.279 OA 
BRANCH  21  22
HETATM   22  C   UNL     1      -6.274   8.472  71.460  1.00  0.00    -0.051 C  
BRANCH  22  23
HETATM   23  C   UNL     1      -7.365   7.994  72.402  1.00  0.00    -0.115 C  
BRANCH  23  24
HETATM   24  C   UNL     1      -8.788   8.273  71.899  1.00  0.00    -0.238 C  
BRANCH  24  25
HETATM   25  C   UNL     1      -8.976   7.576  70.549  1.00  0.00    -0.152 C  
BRANCH  25  26
HETATM   26  C   UNL     1      -9.453   6.112  70.596  1.00  0.00    -0.185 C  
HETATM   27  C   UNL     1     -10.900   6.034  70.070  1.00  0.00    -0.429 C  
HETATM   28  C   UNL     1     -10.965   6.097  68.545  1.00  0.00    -0.320 C  
HETATM   29  N   UNL     1     -10.205   4.996  67.963  1.00  0.00    -0.117 NA 
HETATM   30  H   UNL     1     -10.331   4.945  66.952  1.00  0.00     0.000 HD 
HETATM   31  C   UNL     1      -8.791   5.083  68.326  1.00  0.00    -0.102 C  
HETATM   32  C   UNL     1      -8.574   5.102  69.841  1.00  0.00    -0.108 C  
ENDBRANCH  25  26
ENDBRANCH  24  25
ENDBRANCH  23  24
ENDBRANCH  22  23
ENDBRANCH  21  22
ENDBRANCH  18  21
ENDBRANCH  14  15
ENDBRANCH  10  14
ENDBRANCH   8  10
ENDBRANCH   5   8
ENDBRANCH   4   5
ENDBRANCH   3   4
ENDBRANCH   2   3
TORSDOF 13
ENDMDL
MODEL      258
REMARK 921   NORMALIZED FREE ENERGY PREDICTED BY IDOCK:   -3.14 KCAL/MOL
REMARK 922        TOTAL FREE ENERGY PREDICTED BY IDOCK:   -8.07 KCAL/MOL
REMARK 923 INTER-LIGAND FREE ENERGY PREDICTED BY IDOCK:   -6.63 KCAL/MOL
REMARK 924 INTRA-LIGAND FREE ENERGY PREDICTED BY IDOCK:   -1.43 KCAL/MOL
REMARK 927      BINDING AFFINITY PREDICTED BY RF-SCORE:    0.00 PKD
ROOT
HETATM    1  C   UNL     1     -10.664   5.888  69.030  1.00  0.00    -0.379 C  
HETATM    2  C   UNL     1     -11.028   6.200  67.580  1.00  0.00    -0.404 C  
ENDROOT
BRANCH   2   3
HETATM    3  C   UNL     1     -10.655   7.642  67.286  1.00  0.00    -0.388 C  
BRANCH   3   4
HETATM    4  C   UNL     1     -10.148   8.476  68.467  1.00  0.00    -0.194 C  
BRANCH   4   5
HETATM    5  S   UNL     1     -10.523  10.189  68.033  1.00  0.00    -0.226 S  
HETATM    6  O   UNL     1     -10.103  10.421  66.671  1.00  0.00    -0.208 OA 
HETATM    7  O   UNL     1     -11.875  10.440  68.469  1.00  0.00    -0.280 OA 
BRANCH   5   8
HETATM    8  N   UNL     1      -9.490  11.153  68.981  1.00  0.00    -0.379 N  
HETATM    9  H   UNL     1      -9.728  11.528  69.900  1.00  0.00     0.000 HD 
BRANCH   8  10
HETATM   10  C   UNL     1      -8.141  11.383  68.260  1.00  0.00    -0.143 C  
HETATM   11  C   UNL     1      -7.086  10.448  68.853  1.00  0.00    -0.074 C  
HETATM   12  O   UNL     1      -6.088  10.067  68.260  1.00  0.00    -0.045 OA 
HETATM   13  O   UNL     1      -7.371  10.073  70.126  1.00  0.00    -0.144 OA 
BRANCH  10  14
HETATM   14  C   UNL     1      -7.619  12.832  68.285  1.00  0.00    -0.134 C  
BRANCH  14  15
HETATM   15  C   UNL     1      -8.656  13.871  67.945  1.00  0.00    -0.180 A  
HETATM   16  C   UNL     1      -9.118  13.929  66.626  1.00  0.00    -0.209 A  
HETATM   17  C   UNL     1      -9.885  15.010  66.199  1.00  0.00    -0.325 A  
HETATM   18  C   UNL     1     -10.189  16.055  67.074  1.00  0.00    -0.282 A  
HETATM   19  C   UNL     1      -9.112  14.832  68.861  1.00  0.00    -0.168 A  
HETATM   20  C   UNL     1      -9.858  15.930  68.422  1.00  0.00    -0.214 A  
BRANCH  18  21
HETATM   21  O   UNL     1     -10.777  17.238  66.703  1.00  0.00    -0.220 OA 
BRANCH  21  22
HETATM   22  C   UNL     1      -9.852  18.207  66.204  1.00  0.00    -0.251 C  
BRANCH  22  23
HETATM   23  C   UNL     1     -10.071  19.564  66.851  1.00  0.00    -0.511 C  
BRANCH  23  24
HETATM   24  C   UNL     1      -8.773  20.278  67.253  1.00  0.00    -0.441 C  
BRANCH  24  25
HETATM   25  C   UNL     1      -8.181  19.568  68.473  1.00  0.00    -0.373 C  
BRANCH  25  26
HETATM   26  C   UNL     1      -6.669  19.278  68.430  1.00  0.00    -0.295 C  
HETATM   27  C   UNL     1      -5.896  20.610  68.499  1.00  0.00    -0.364 C  
HETATM   28  C   UNL     1      -5.836  21.170  69.920  1.00  0.00     0.539 C  
HETATM   29  N   UNL     1      -5.185  20.214  70.809  1.00  0.00    -0.233 NA 
HETATM   30  H   UNL     1      -5.024  20.613  71.735  1.00  0.00     0.000 HD 
HETATM   31  C   UNL     1      -5.941  18.965  70.884  1.00  0.00     0.148 C  
HETATM   32  C   UNL     1      -6.144  18.319  69.511  1.00  0.00    -0.255 C  
ENDBRANCH  25  26
ENDBRANCH  24  25
ENDBRANCH  23  24
ENDBRANCH  22  23
ENDBRANCH  21  22
ENDBRANCH  18  21
ENDBRANCH  14  15
ENDBRANCH  10  14
ENDBRANCH   8  10
ENDBRANCH   5   8
ENDBRANCH   4   5
ENDBRANCH   3   4
ENDBRANCH   2   3
TORSDOF 13
ENDMDL
MODEL      259
REMARK 921   NORMALIZED FREE ENERGY PREDICTED BY IDOCK:   -3.12 KCAL/MOL
REMARK 922        TOTAL FREE ENERGY PREDICTED BY IDOCK:   -8.04 KCAL/MOL
REMARK 923 INTER-LIGAND FREE ENERGY PREDICTED BY IDOCK:   -7.01 KCAL/MOL
REMARK 924 INTRA-LIGAND FREE ENERGY PREDICTED BY IDOCK:   -1.03 KCAL/MOL
REMARK 927      BINDING AFFINITY PREDICTED BY RF-SCORE:    0.00 PKD
ROOT
HETATM    1  C   UNL     1     -10.871   3.885  63.802  1.00  0.00    -0.138 C  
HETATM    2  C   UNL     1      -9.610   3.315  64.448  1.00  0.00    -0.153 C  
ENDROOT
BRANCH   2   3
HETATM    3  C   UNL     1      -8.796   4.465  65.017  1.00  0.00    -0.141 C  
BRANCH   3   4
HETATM    4  C   UNL     1      -7.438   4.736  64.363  1.00  0.00    -0.071 C  
BRANCH   4   5
HETATM    5  S   UNL     1      -7.649   6.282  63.454  1.00  0.00    -0.091 S  
HETATM    6  O   UNL     1      -6.354   6.899  63.287  1.00  0.00    -0.042 OA 
HETATM    7  O   UNL     1      -8.507   5.989  62.331  1.00  0.00    -0.099 OA 
BRANCH   5   8
HETATM    8  N   UNL     1      -8.502   7.327  64.492  1.00  0.00    -0.359 N  
HETATM    9  H   UNL     1      -9.515   7.452  64.484  1.00  0.00     0.000 HD 
BRANCH   8  10
HETATM   10  C   UNL     1      -7.532   8.061  65.447  1.00  0.00    -0.079 C  
HETATM   11  C   UNL     1      -7.892   7.715  66.893  1.00  0.00    -0.111 C  
HETATM   12  O   UNL     1      -7.108   7.757  67.829  1.00  0.00    -0.078 OA 
HETATM   13  O   UNL     1      -9.190   7.348  67.040  1.00  0.00    -0.131 OA 
BRANCH  10  14
HETATM   14  C   UNL     1      -7.475   9.591  65.282  1.00  0.00    -0.107 C  
BRANCH  14  15
HETATM   15  C   UNL     1      -8.758  10.301  65.633  1.00  0.00    -0.176 A  
HETATM   16  C   UNL     1      -9.748  10.387  64.648  1.00  0.00    -0.392 A  
HETATM   17  C   UNL     1     -10.842  11.229  64.827  1.00  0.00    -0.314 A  
HETATM   18  C   UNL     1     -10.957  12.009  65.979  1.00  0.00    -0.304 A  
HETATM   19  C   UNL     1      -8.970  10.949  66.858  1.00  0.00    -0.158 A  
HETATM   20  C   UNL     1     -10.053  11.816  67.023  1.00  0.00    -0.232 A  
BRANCH  18  21
HETATM   21  O   UNL     1     -11.894  12.995  66.165  1.00  0.00    -0.370 OA 
BRANCH  21  22
HETATM   22  C   UNL     1     -11.825  13.618  67.449  1.00  0.00    -0.393 C  
BRANCH  22  23
HETATM   23  C   UNL     1     -11.831  15.132  67.330  1.00  0.00    -0.072 C  
BRANCH  23  24
HETATM   24  C   UNL     1     -10.623  15.813  67.989  1.00  0.00    -0.279 C  
BRANCH  24  25
HETATM   25  C   UNL     1     -10.712  17.321  67.736  1.00  0.00    -0.333 C  
BRANCH  25  26
HETATM   26  C   UNL     1      -9.672  18.198  68.456  1.00  0.00    -0.372 C  
HETATM   27  C   UNL     1      -8.306  18.038  67.761  1.00  0.00    -0.249 C  
HETATM   28  C   UNL     1      -8.217  18.844  66.466  1.00  0.00    -0.297 C  
HETATM   29  N   UNL     1      -8.429  20.262  66.742  1.00  0.00    -0.464 NA 
HETATM   30  H   UNL     1      -8.256  20.835  65.916  1.00  0.00     0.000 HD 
HETATM   31  C   UNL     1      -9.763  20.497  67.292  1.00  0.00    -0.460 C  
HETATM   32  C   UNL     1     -10.023  19.691  68.566  1.00  0.00    -0.542 C  
ENDBRANCH  25  26
ENDBRANCH  24  25
ENDBRANCH  23  24
ENDBRANCH  22  23
ENDBRANCH  21  22
ENDBRANCH  18  21
ENDBRANCH  14  15
ENDBRANCH  10  14
ENDBRANCH   8  10
ENDBRANCH   5   8
ENDBRANCH   4   5
ENDBRANCH   3   4
ENDBRANCH   2   3
TORSDOF 13
ENDMDL
MODEL      260
REMARK 921   NORMALIZED FREE ENERGY PREDICTED BY IDOCK:   -3.08 KCAL/MOL
REMARK 922        TOTAL FREE ENERGY PREDICTED BY IDOCK:   -7.96 KCAL/MOL
REMARK 923 INTER-LIGAND FREE ENERGY PREDICTED BY IDOCK:   -6.54 KCAL/MOL
REMARK 924 INTRA-LIGAND FREE ENERGY PREDICTED BY IDOCK:   -1.42 KCAL/MOL
REMARK 927      BINDING AFFINITY PREDICTED BY RF-SCORE:    0.00 PKD
ROOT
HETATM    1  C   UNL     1     -12.884  12.882  64.907  1.00  0.00    -0.370 C  
HETATM    2  C   UNL     1     -11.869  12.605  63.800  1.00  0.00    -0.574 C  
ENDROOT
BRANCH   2   3
HETATM    3  C   UNL     1     -10.629  11.989  64.423  1.00  0.00    -0.361 C  
BRANCH   3   4
HETATM    4  C   UNL     1     -10.752  11.513  65.874  1.00  0.00    -0.272 C  
BRANCH   4   5
HETATM    5  S   UNL     1      -9.143  11.850  66.622  1.00  0.00    -0.204 S  
HETATM    6  O   UNL     1      -8.960  13.280  66.695  1.00  0.00    -0.214 OA 
HETATM    7  O   UNL     1      -9.043  11.006  67.788  1.00  0.00    -0.143 OA 
BRANCH   5   8
HETATM    8  N   UNL     1      -7.980  11.316  65.500  1.00  0.00    -0.354 N  
HETATM    9  H   UNL     1      -7.588  11.890  64.754  1.00  0.00     0.000 HD 
BRANCH   8  10
HETATM   10  C   UNL     1      -7.600   9.840  65.767  1.00  0.00    -0.108 C  
HETATM   11  C   UNL     1      -6.288   9.520  65.049  1.00  0.00    -0.083 C  
HETATM   12  O   UNL     1      -5.513   8.638  65.387  1.00  0.00    -0.035 OA 
HETATM   13  O   UNL     1      -6.061  10.326  63.982  1.00  0.00    -0.134 OA 
BRANCH  10  14
HETATM   14  C   UNL     1      -8.668   8.802  65.374  1.00  0.00    -0.217 C  
BRANCH  14  15
HETATM   15  C   UNL     1      -8.576   7.501  66.131  1.00  0.00    -0.159 A  
HETATM   16  C   UNL     1      -8.739   7.538  67.520  1.00  0.00    -0.125 A  
HETATM   17  C   UNL     1      -8.427   6.422  68.291  1.00  0.00    -0.115 A  
HETATM   18  C   UNL     1      -7.934   5.261  67.694  1.00  0.00    -0.100 A  
HETATM   19  C   UNL     1      -8.250   6.279  65.524  1.00  0.00    -0.145 A  
HETATM   20  C   UNL     1      -7.910   5.170  66.303  1.00  0.00    -0.103 A  
BRANCH  18  21
HETATM   21  O   UNL     1      -7.430   4.183  68.379  1.00  0.00    -0.059 OA 
BRANCH  21  22
HETATM   22  C   UNL     1      -8.370   3.120  68.548  1.00  0.00    -0.073 C  
BRANCH  22  23
HETATM   23  C   UNL     1      -9.479   3.510  69.510  1.00  0.00    -0.236 C  
BRANCH  23  24
HETATM   24  C   UNL     1      -9.002   3.728  70.953  1.00  0.00    -0.154 C  
BRANCH  24  25
HETATM   25  C   UNL     1      -9.306   5.174  71.355  1.00  0.00    -0.189 C  
BRANCH  25  26
HETATM   26  C   UNL     1     -10.779   5.504  71.661  1.00  0.00    -0.296 C  
HETATM   27  C   UNL     1     -10.904   5.949  73.131  1.00  0.00    -0.296 C  
HETATM   28  C   UNL     1     -10.448   7.392  73.339  1.00  0.00    -0.368 C  
HETATM   29  N   UNL     1     -11.246   8.295  72.517  1.00  0.00    -0.380 NA 
HETATM   30  H   UNL     1     -11.044   9.273  72.727  1.00  0.00     0.000 HD 
HETATM   31  C   UNL     1     -11.074   8.002  71.095  1.00  0.00    -0.252 C  
HETATM   32  C   UNL     1     -11.429   6.555  70.746  1.00  0.00    -0.419 C  
ENDBRANCH  25  26
ENDBRANCH  24  25
ENDBRANCH  23  24
ENDBRANCH  22  23
ENDBRANCH  21  22
ENDBRANCH  18  21
ENDBRANCH  14  15
ENDBRANCH  10  14
ENDBRANCH   8  10
ENDBRANCH   5   8
ENDBRANCH   4   5
ENDBRANCH   3   4
ENDBRANCH   2   3
TORSDOF 13
ENDMDL
MODEL      261
REMARK 921   NORMALIZED FREE ENERGY PREDICTED BY IDOCK:   -3.08 KCAL/MOL
REMARK 922        TOTAL FREE ENERGY PREDICTED BY IDOCK:   -7.96 KCAL/MOL
REMARK 923 INTER-LIGAND FREE ENERGY PREDICTED BY IDOCK:   -6.70 KCAL/MOL
REMARK 924 INTRA-LIGAND FREE ENERGY PREDICTED BY IDOCK:   -1.25 KCAL/MOL
REMARK 927      BINDING AFFINITY PREDICTED BY RF-SCORE:    0.00 PKD
ROOT
HETATM    1  C   UNL     1      -5.892  14.976  70.220  1.00  0.00    -0.147 C  
HETATM    2  C   UNL     1      -6.385  13.532  70.245  1.00  0.00     0.024 C  
ENDROOT
BRANCH   2   3
HETATM    3  C   UNL     1      -6.461  13.020  68.817  1.00  0.00    -0.085 C  
BRANCH   3   4
HETATM    4  C   UNL     1      -7.798  12.424  68.369  1.00  0.00    -0.142 C  
BRANCH   4   5
HETATM    5  S   UNL     1      -8.638  13.755  67.482  1.00  0.00    -0.206 S  
HETATM    6  O   UNL     1      -9.733  14.231  68.295  1.00  0.00    -0.209 OA 
HETATM    7  O   UNL     1      -7.609  14.641  66.994  1.00  0.00    -0.116 OA 
BRANCH   5   8
HETATM    8  N   UNL     1      -9.375  13.031  66.131  1.00  0.00    -0.453 N  
HETATM    9  H   UNL     1      -9.537  13.499  65.239  1.00  0.00     0.000 HD 
BRANCH   8  10
HETATM   10  C   UNL     1      -9.767  11.567  66.440  1.00  0.00    -0.207 C  
HETATM   11  C   UNL     1      -9.570  10.716  65.185  1.00  0.00    -0.251 C  
HETATM   12  O   UNL     1      -9.366   9.512  65.191  1.00  0.00    -0.248 OA 
HETATM   13  O   UNL     1      -9.641  11.441  64.040  1.00  0.00    -0.232 OA 
BRANCH  10  14
HETATM   14  C   UNL     1     -11.196  11.366  66.979  1.00  0.00    -0.350 C  
BRANCH  14  15
HETATM   15  C   UNL     1     -11.280  10.488  68.202  1.00  0.00    -0.357 A  
HETATM   16  C   UNL     1     -11.647  11.085  69.413  1.00  0.00    -0.383 A  
HETATM   17  C   UNL     1     -11.507  10.385  70.608  1.00  0.00    -0.438 A  
HETATM   18  C   UNL     1     -10.986   9.090  70.617  1.00  0.00    -0.257 A  
HETATM   19  C   UNL     1     -10.927   9.130  68.200  1.00  0.00    -0.020 A  
HETATM   20  C   UNL     1     -10.760   8.441  69.404  1.00  0.00    -0.162 A  
BRANCH  18  21
HETATM   21  O   UNL     1     -10.643   8.393  71.749  1.00  0.00    -0.239 OA 
BRANCH  21  22
HETATM   22  C   UNL     1      -9.397   8.801  72.318  1.00  0.00    -0.153 C  
BRANCH  22  23
HETATM   23  C   UNL     1      -8.817   7.718  73.211  1.00  0.00    -0.277 C  
BRANCH  23  24
HETATM   24  C   UNL     1      -9.840   7.081  74.162  1.00  0.00    -0.306 C  
BRANCH  24  25
HETATM   25  C   UNL     1      -9.701   5.558  74.082  1.00  0.00    -0.172 C  
BRANCH  25  26
HETATM   26  C   UNL     1     -10.799   4.812  73.301  1.00  0.00    -0.351 C  
HETATM   27  C   UNL     1     -10.887   5.388  71.874  1.00  0.00    -0.253 C  
HETATM   28  C   UNL     1      -9.769   4.868  70.971  1.00  0.00    -0.185 C  
HETATM   29  N   UNL     1      -9.831   3.413  70.883  1.00  0.00    -0.118 NA 
HETATM   30  H   UNL     1      -9.173   3.050  70.192  1.00  0.00     0.000 HD 
HETATM   31  C   UNL     1      -9.630   2.798  72.194  1.00  0.00    -0.135 C  
HETATM   32  C   UNL     1     -10.644   3.284  73.232  1.00  0.00    -0.275 C  
ENDBRANCH  25  26
ENDBRANCH  24  25
ENDBRANCH  23  24
ENDBRANCH  22  23
ENDBRANCH  21  22
ENDBRANCH  18  21
ENDBRANCH  14  15
ENDBRANCH  10  14
ENDBRANCH   8  10
ENDBRANCH   5   8
ENDBRANCH   4   5
ENDBRANCH   3   4
ENDBRANCH   2   3
TORSDOF 13
ENDMDL
MODEL      262
REMARK 921   NORMALIZED FREE ENERGY PREDICTED BY IDOCK:   -3.05 KCAL/MOL
REMARK 922        TOTAL FREE ENERGY PREDICTED BY IDOCK:   -7.92 KCAL/MOL
REMARK 923 INTER-LIGAND FREE ENERGY PREDICTED BY IDOCK:   -7.76 KCAL/MOL
REMARK 924 INTRA-LIGAND FREE ENERGY PREDICTED BY IDOCK:   -0.15 KCAL/MOL
REMARK 927      BINDING AFFINITY PREDICTED BY RF-SCORE:    0.00 PKD
ROOT
HETATM    1  C   UNL     1      -9.964   9.906  65.713  1.00  0.00    -0.347 C  
HETATM    2  C   UNL     1      -9.411   8.540  66.114  1.00  0.00    -0.286 C  
ENDROOT
BRANCH   2   3
HETATM    3  C   UNL     1      -9.881   8.223  67.523  1.00  0.00    -0.231 C  
BRANCH   3   4
HETATM    4  C   UNL     1     -10.966   7.151  67.661  1.00  0.00    -0.155 C  
BRANCH   4   5
HETATM    5  S   UNL     1     -10.580   6.281  69.196  1.00  0.00    -0.304 S  
HETATM    6  O   UNL     1     -11.745   6.312  70.049  1.00  0.00    -0.408 OA 
HETATM    7  O   UNL     1      -9.939   5.043  68.822  1.00  0.00    -0.164 OA 
BRANCH   5   8
HETATM    8  N   UNL     1      -9.422   7.234  70.001  1.00  0.00    -0.161 N  
HETATM    9  H   UNL     1      -8.435   7.283  69.748  1.00  0.00     0.000 HD 
BRANCH   8  10
HETATM   10  C   UNL     1     -10.072   8.016  71.167  1.00  0.00    -0.188 C  
HETATM   11  C   UNL     1      -9.723   7.331  72.489  1.00  0.00    -0.154 C  
HETATM   12  O   UNL     1      -9.695   7.894  73.573  1.00  0.00    -0.290 OA 
HETATM   13  O   UNL     1      -9.440   6.012  72.341  1.00  0.00    -0.147 OA 
BRANCH  10  14
HETATM   14  C   UNL     1     -11.598   8.200  71.069  1.00  0.00    -0.301 C  
BRANCH  14  15
HETATM   15  C   UNL     1     -12.039   9.630  70.883  1.00  0.00    -0.383 A  
HETATM   16  C   UNL     1     -11.412  10.384  69.885  1.00  0.00    -0.368 A  
HETATM   17  C   UNL     1     -11.601  11.762  69.827  1.00  0.00    -0.372 A  
HETATM   18  C   UNL     1     -12.402  12.410  70.769  1.00  0.00    -0.286 A  
HETATM   19  C   UNL     1     -12.978  10.260  71.713  1.00  0.00    -0.574 A  
HETATM   20  C   UNL     1     -13.143  11.647  71.670  1.00  0.00    -0.456 A  
BRANCH  18  21
HETATM   21  O   UNL     1     -12.503  13.772  70.905  1.00  0.00    -0.343 OA 
BRANCH  21  22
HETATM   22  C   UNL     1     -11.987  14.500  69.788  1.00  0.00    -0.332 C  
BRANCH  22  23
HETATM   23  C   UNL     1     -10.833  15.398  70.199  1.00  0.00    -0.328 C  
BRANCH  23  24
HETATM   24  C   UNL     1      -9.813  15.652  69.080  1.00  0.00    -0.247 C  
BRANCH  24  25
HETATM   25  C   UNL     1      -9.772  14.423  68.167  1.00  0.00    -0.223 C  
BRANCH  25  26
HETATM   26  C   UNL     1      -8.469  14.201  67.377  1.00  0.00    -0.214 C  
HETATM   27  C   UNL     1      -7.285  14.769  68.183  1.00  0.00    -0.125 C  
HETATM   28  C   UNL     1      -6.857  13.838  69.317  1.00  0.00    -0.078 C  
HETATM   29  N   UNL     1      -6.466  12.539  68.780  1.00  0.00    -0.078 NA 
HETATM   30  H   UNL     1      -6.063  11.940  69.501  1.00  0.00     0.000 HD 
HETATM   31  C   UNL     1      -7.589  11.889  68.104  1.00  0.00    -0.121 C  
HETATM   32  C   UNL     1      -8.172  12.746  66.979  1.00  0.00    -0.099 C  
ENDBRANCH  25  26
ENDBRANCH  24  25
ENDBRANCH  23  24
ENDBRANCH  22  23
ENDBRANCH  21  22
ENDBRANCH  18  21
ENDBRANCH  14  15
ENDBRANCH  10  14
ENDBRANCH   8  10
ENDBRANCH   5   8
ENDBRANCH   4   5
ENDBRANCH   3   4
ENDBRANCH   2   3
TORSDOF 13
ENDMDL
MODEL      263
REMARK 921   NORMALIZED FREE ENERGY PREDICTED BY IDOCK:   -3.04 KCAL/MOL
REMARK 922        TOTAL FREE ENERGY PREDICTED BY IDOCK:   -7.90 KCAL/MOL
REMARK 923 INTER-LIGAND FREE ENERGY PREDICTED BY IDOCK:   -6.92 KCAL/MOL
REMARK 924 INTRA-LIGAND FREE ENERGY PREDICTED BY IDOCK:   -0.98 KCAL/MOL
REMARK 927      BINDING AFFINITY PREDICTED BY RF-SCORE:    0.00 PKD
ROOT
HETATM    1  C   UNL     1     -11.629   6.213  72.159  1.00  0.00    -0.369 C  
HETATM    2  C   UNL     1     -11.273   6.053  70.683  1.00  0.00    -0.347 C  
ENDROOT
BRANCH   2   3
HETATM    3  C   UNL     1      -9.998   5.235  70.578  1.00  0.00    -0.299 C  
BRANCH   3   4
HETATM    4  C   UNL     1      -9.678   4.631  69.207  1.00  0.00    -0.196 C  
BRANCH   4   5
HETATM    5  S   UNL     1      -9.457   6.046  68.106  1.00  0.00    -0.115 S  
HETATM    6  O   UNL     1     -10.683   6.253  67.370  1.00  0.00    -0.249 OA 
HETATM    7  O   UNL     1      -8.853   7.093  68.893  1.00  0.00    -0.131 OA 
BRANCH   5   8
HETATM    8  N   UNL     1      -8.320   5.561  66.937  1.00  0.00    -0.108 N  
HETATM    9  H   UNL     1      -7.625   4.827  67.074  1.00  0.00     0.000 HD 
BRANCH   8  10
HETATM   10  C   UNL     1      -8.486   6.384  65.638  1.00  0.00    -0.146 C  
HETATM   11  C   UNL     1      -8.214   5.484  64.432  1.00  0.00    -0.127 C  
HETATM   12  O   UNL     1      -8.663   5.674  63.312  1.00  0.00     0.012 OA 
HETATM   13  O   UNL     1      -7.411   4.431  64.731  1.00  0.00    -0.070 OA 
BRANCH  10  14
HETATM   14  C   UNL     1      -7.613   7.650  65.543  1.00  0.00    -0.092 C  
BRANCH  14  15
HETATM   15  C   UNL     1      -8.394   8.936  65.451  1.00  0.00    -0.155 A  
HETATM   16  C   UNL     1      -8.697   9.606  66.641  1.00  0.00    -0.146 A  
HETATM   17  C   UNL     1      -9.612  10.655  66.642  1.00  0.00    -0.209 A  
HETATM   18  C   UNL     1     -10.250  11.042  65.461  1.00  0.00    -0.268 A  
HETATM   19  C   UNL     1      -8.903   9.443  64.245  1.00  0.00    -0.220 A  
HETATM   20  C   UNL     1      -9.842  10.478  64.253  1.00  0.00    -0.402 A  
BRANCH  18  21
HETATM   21  O   UNL     1     -11.291  11.933  65.392  1.00  0.00    -0.323 OA 
BRANCH  21  22
HETATM   22  C   UNL     1     -10.922  13.206  64.857  1.00  0.00    -0.318 C  
BRANCH  22  23
HETATM   23  C   UNL     1     -11.473  14.341  65.702  1.00  0.00    -0.329 C  
BRANCH  23  24
HETATM   24  C   UNL     1     -10.404  15.092  66.508  1.00  0.00    -0.286 C  
BRANCH  24  25
HETATM   25  C   UNL     1     -10.600  16.597  66.297  1.00  0.00    -0.205 C  
BRANCH  25  26
HETATM   26  C   UNL     1     -10.254  17.505  67.492  1.00  0.00    -0.340 C  
HETATM   27  C   UNL     1      -8.934  17.027  68.127  1.00  0.00    -0.227 C  
HETATM   28  C   UNL     1      -7.712  17.471  67.324  1.00  0.00    -0.202 C  
HETATM   29  N   UNL     1      -7.675  18.927  67.229  1.00  0.00    -0.233 NA 
HETATM   30  H   UNL     1      -6.807  19.254  66.803  1.00  0.00     0.000 HD 
HETATM   31  C   UNL     1      -8.849  19.438  66.523  1.00  0.00    -0.352 C  
HETATM   32  C   UNL     1     -10.162  19.008  67.179  1.00  0.00    -0.464 C  
ENDBRANCH  25  26
ENDBRANCH  24  25
ENDBRANCH  23  24
ENDBRANCH  22  23
ENDBRANCH  21  22
ENDBRANCH  18  21
ENDBRANCH  14  15
ENDBRANCH  10  14
ENDBRANCH   8  10
ENDBRANCH   5   8
ENDBRANCH   4   5
ENDBRANCH   3   4
ENDBRANCH   2   3
TORSDOF 13
ENDMDL
MODEL      264
REMARK 921   NORMALIZED FREE ENERGY PREDICTED BY IDOCK:   -3.04 KCAL/MOL
REMARK 922        TOTAL FREE ENERGY PREDICTED BY IDOCK:   -7.89 KCAL/MOL
REMARK 923 INTER-LIGAND FREE ENERGY PREDICTED BY IDOCK:   -6.97 KCAL/MOL
REMARK 924 INTRA-LIGAND FREE ENERGY PREDICTED BY IDOCK:   -0.92 KCAL/MOL
REMARK 927      BINDING AFFINITY PREDICTED BY RF-SCORE:    0.00 PKD
ROOT
HETATM    1  C   UNL     1      -5.455   8.758  72.393  1.00  0.00    -0.059 C  
HETATM    2  C   UNL     1      -6.584   8.737  71.365  1.00  0.00    -0.078 C  
ENDROOT
BRANCH   2   3
HETATM    3  C   UNL     1      -7.757   7.971  71.950  1.00  0.00    -0.114 C  
BRANCH   3   4
HETATM    4  C   UNL     1      -8.940   8.802  72.454  1.00  0.00     0.004 C  
BRANCH   4   5
HETATM    5  S   UNL     1     -10.258   8.531  71.249  1.00  0.00    -0.244 S  
HETATM    6  O   UNL     1     -10.649   7.142  71.298  1.00  0.00    -0.214 OA 
HETATM    7  O   UNL     1     -11.212   9.599  71.430  1.00  0.00    -0.365 OA 
BRANCH   5   8
HETATM    8  N   UNL     1      -9.546   8.734  69.717  1.00  0.00    -0.169 N  
HETATM    9  H   UNL     1      -8.752   9.344  69.523  1.00  0.00     0.000 HD 
BRANCH   8  10
HETATM   10  C   UNL     1     -10.268   7.866  68.659  1.00  0.00    -0.205 C  
HETATM   11  C   UNL     1      -9.308   6.790  68.149  1.00  0.00    -0.122 C  
HETATM   12  O   UNL     1      -9.658   5.722  67.670  1.00  0.00    -0.111 OA 
HETATM   13  O   UNL     1      -8.004   7.140  68.284  1.00  0.00    -0.119 OA 
BRANCH  10  14
HETATM   14  C   UNL     1     -10.858   8.638  67.464  1.00  0.00    -0.087 C  
BRANCH  14  15
HETATM   15  C   UNL     1     -10.289  10.021  67.277  1.00  0.00    -0.293 A  
HETATM   16  C   UNL     1      -9.063  10.140  66.613  1.00  0.00    -0.164 A  
HETATM   17  C   UNL     1      -8.375  11.350  66.624  1.00  0.00    -0.172 A  
HETATM   18  C   UNL     1      -8.890  12.454  67.308  1.00  0.00    -0.192 A  
HETATM   19  C   UNL     1     -10.881  11.176  67.809  1.00  0.00    -0.288 A  
HETATM   20  C   UNL     1     -10.175  12.382  67.843  1.00  0.00    -0.213 A  
BRANCH  18  21
HETATM   21  O   UNL     1      -8.207  13.624  67.528  1.00  0.00    -0.160 OA 
BRANCH  21  22
HETATM   22  C   UNL     1      -9.046  14.781  67.561  1.00  0.00    -0.189 C  
BRANCH  22  23
HETATM   23  C   UNL     1      -9.159  15.342  68.968  1.00  0.00    -0.225 C  
BRANCH  23  24
HETATM   24  C   UNL     1      -9.648  16.795  69.021  1.00  0.00    -0.230 C  
BRANCH  24  25
HETATM   25  C   UNL     1      -8.541  17.705  68.481  1.00  0.00    -0.285 C  
BRANCH  25  26
HETATM   26  C   UNL     1      -8.837  19.216  68.480  1.00  0.00    -0.406 C  
HETATM   27  C   UNL     1      -7.908  19.913  67.466  1.00  0.00    -0.325 C  
HETATM   28  C   UNL     1      -8.384  19.731  66.026  1.00  0.00    -0.295 C  
HETATM   29  N   UNL     1      -9.728  20.276  65.868  1.00  0.00    -0.632 NA 
HETATM   30  H   UNL     1     -10.021  20.276  64.890  1.00  0.00     0.000 HD 
HETATM   31  C   UNL     1     -10.686  19.570  66.718  1.00  0.00    -0.460 C  
HETATM   32  C   UNL     1     -10.297  19.608  68.197  1.00  0.00    -0.561 C  
ENDBRANCH  25  26
ENDBRANCH  24  25
ENDBRANCH  23  24
ENDBRANCH  22  23
ENDBRANCH  21  22
ENDBRANCH  18  21
ENDBRANCH  14  15
ENDBRANCH  10  14
ENDBRANCH   8  10
ENDBRANCH   5   8
ENDBRANCH   4   5
ENDBRANCH   3   4
ENDBRANCH   2   3
TORSDOF 13
ENDMDL
MODEL      265
REMARK 921   NORMALIZED FREE ENERGY PREDICTED BY IDOCK:   -3.04 KCAL/MOL
REMARK 922        TOTAL FREE ENERGY PREDICTED BY IDOCK:   -7.89 KCAL/MOL
REMARK 923 INTER-LIGAND FREE ENERGY PREDICTED BY IDOCK:   -6.05 KCAL/MOL
REMARK 924 INTRA-LIGAND FREE ENERGY PREDICTED BY IDOCK:   -1.83 KCAL/MOL
REMARK 927      BINDING AFFINITY PREDICTED BY RF-SCORE:    0.00 PKD
ROOT
HETATM    1  C   UNL     1     -12.247  11.192  70.603  1.00  0.00    -0.492 C  
HETATM    2  C   UNL     1     -11.841  11.128  69.132  1.00  0.00    -0.419 C  
ENDROOT
BRANCH   2   3
HETATM    3  C   UNL     1     -10.961  12.326  68.820  1.00  0.00    -0.277 C  
BRANCH   3   4
HETATM    4  C   UNL     1     -11.677  13.622  68.426  1.00  0.00    -0.358 C  
BRANCH   4   5
HETATM    5  S   UNL     1     -10.895  14.146  66.885  1.00  0.00    -0.299 S  
HETATM    6  O   UNL     1     -11.287  15.508  66.609  1.00  0.00    -0.197 OA 
HETATM    7  O   UNL     1      -9.509  13.752  66.968  1.00  0.00    -0.236 OA 
BRANCH   5   8
HETATM    8  N   UNL     1     -11.618  13.223  65.652  1.00  0.00    -0.324 N  
HETATM    9  H   UNL     1     -12.575  13.347  65.320  1.00  0.00     0.000 HD 
BRANCH   8  10
HETATM   10  C   UNL     1     -10.626  12.170  65.103  1.00  0.00    -0.286 C  
HETATM   11  C   UNL     1     -10.676  12.179  63.574  1.00  0.00    -0.457 C  
HETATM   12  O   UNL     1      -9.761  11.817  62.851  1.00  0.00    -0.357 OA 
HETATM   13  O   UNL     1     -11.857  12.638  63.088  1.00  0.00    -0.470 OA 
BRANCH  10  14
HETATM   14  C   UNL     1     -10.837  10.733  65.617  1.00  0.00    -0.065 C  
BRANCH  14  15
HETATM   15  C   UNL     1      -9.608  10.105  66.223  1.00  0.00    -0.245 A  
HETATM   16  C   UNL     1      -9.783   8.988  67.047  1.00  0.00    -0.247 A  
HETATM   17  C   UNL     1      -8.727   8.516  67.821  1.00  0.00    -0.137 A  
HETATM   18  C   UNL     1      -7.487   9.160  67.799  1.00  0.00    -0.085 A  
HETATM   19  C   UNL     1      -8.318  10.635  66.073  1.00  0.00    -0.160 A  
HETATM   20  C   UNL     1      -7.268  10.179  66.873  1.00  0.00    -0.092 A  
BRANCH  18  21
HETATM   21  O   UNL     1      -6.450   8.886  68.655  1.00  0.00    -0.052 OA 
BRANCH  21  22
HETATM   22  C   UNL     1      -6.776   7.929  69.665  1.00  0.00    -0.042 C  
BRANCH  22  23
HETATM   23  C   UNL     1      -6.164   6.573  69.360  1.00  0.00    -0.034 C  
BRANCH  23  24
HETATM   24  C   UNL     1      -5.839   5.742  70.609  1.00  0.00    -0.024 C  
BRANCH  24  25
HETATM   25  C   UNL     1      -6.832   4.579  70.695  1.00  0.00    -0.037 C  
BRANCH  25  26
HETATM   26  C   UNL     1      -8.232   4.915  71.240  1.00  0.00    -0.110 C  
HETATM   27  C   UNL     1      -8.922   3.615  71.700  1.00  0.00    -0.156 C  
HETATM   28  C   UNL     1      -8.412   3.139  73.059  1.00  0.00    -0.080 C  
HETATM   29  N   UNL     1      -8.645   4.165  74.070  1.00  0.00    -0.097 NA 
HETATM   30  H   UNL     1      -8.425   3.826  75.007  1.00  0.00     0.000 HD 
HETATM   31  C   UNL     1      -7.914   5.391  73.754  1.00  0.00    -0.109 C  
HETATM   32  C   UNL     1      -8.273   5.950  72.376  1.00  0.00    -0.110 C  
ENDBRANCH  25  26
ENDBRANCH  24  25
ENDBRANCH  23  24
ENDBRANCH  22  23
ENDBRANCH  21  22
ENDBRANCH  18  21
ENDBRANCH  14  15
ENDBRANCH  10  14
ENDBRANCH   8  10
ENDBRANCH   5   8
ENDBRANCH   4   5
ENDBRANCH   3   4
ENDBRANCH   2   3
TORSDOF 13
ENDMDL
MODEL      266
REMARK 921   NORMALIZED FREE ENERGY PREDICTED BY IDOCK:   -3.02 KCAL/MOL
REMARK 922        TOTAL FREE ENERGY PREDICTED BY IDOCK:   -7.87 KCAL/MOL
REMARK 923 INTER-LIGAND FREE ENERGY PREDICTED BY IDOCK:   -6.52 KCAL/MOL
REMARK 924 INTRA-LIGAND FREE ENERGY PREDICTED BY IDOCK:   -1.35 KCAL/MOL
REMARK 927      BINDING AFFINITY PREDICTED BY RF-SCORE:    0.00 PKD
ROOT
HETATM    1  C   UNL     1      -8.893   4.590  66.812  1.00  0.00    -0.112 C  
HETATM    2  C   UNL     1      -9.704   3.546  67.577  1.00  0.00    -0.067 C  
ENDROOT
BRANCH   2   3
HETATM    3  C   UNL     1      -9.582   3.833  69.063  1.00  0.00    -0.190 C  
BRANCH   3   4
HETATM    4  C   UNL     1      -8.209   3.595  69.700  1.00  0.00    -0.052 C  
BRANCH   4   5
HETATM    5  S   UNL     1      -7.927   5.024  70.767  1.00  0.00    -0.089 S  
HETATM    6  O   UNL     1      -7.197   4.590  71.935  1.00  0.00    -0.057 OA 
HETATM    7  O   UNL     1      -7.447   6.088  69.918  1.00  0.00    -0.076 OA 
BRANCH   5   8
HETATM    8  N   UNL     1      -9.457   5.486  71.353  1.00  0.00    -0.147 N  
HETATM    9  H   UNL     1     -10.120   4.854  71.803  1.00  0.00     0.000 HD 
BRANCH   8  10
HETATM   10  C   UNL     1      -9.705   6.993  71.108  1.00  0.00    -0.172 C  
HETATM   11  C   UNL     1     -10.242   7.630  72.390  1.00  0.00    -0.228 C  
HETATM   12  O   UNL     1     -10.131   8.813  72.674  1.00  0.00    -0.193 OA 
HETATM   13  O   UNL     1     -10.866   6.738  73.200  1.00  0.00    -0.273 OA 
BRANCH  10  14
HETATM   14  C   UNL     1     -10.645   7.325  69.934  1.00  0.00    -0.244 C  
BRANCH  14  15
HETATM   15  C   UNL     1     -10.240   8.541  69.140  1.00  0.00    -0.218 A  
HETATM   16  C   UNL     1      -9.427   8.350  68.018  1.00  0.00    -0.157 A  
HETATM   17  C   UNL     1      -8.827   9.440  67.394  1.00  0.00    -0.135 A  
HETATM   18  C   UNL     1      -9.015  10.733  67.887  1.00  0.00    -0.139 A  
HETATM   19  C   UNL     1     -10.565   9.852  69.521  1.00  0.00    -0.264 A  
HETATM   20  C   UNL     1      -9.938  10.942  68.910  1.00  0.00    -0.208 A  
BRANCH  18  21
HETATM   21  O   UNL     1      -8.327  11.840  67.457  1.00  0.00    -0.141 OA 
BRANCH  21  22
HETATM   22  C   UNL     1      -8.726  13.051  68.104  1.00  0.00    -0.190 C  
BRANCH  22  23
HETATM   23  C   UNL     1      -8.848  14.193  67.110  1.00  0.00    -0.241 C  
BRANCH  23  24
HETATM   24  C   UNL     1     -10.252  14.808  67.038  1.00  0.00    -0.253 C  
BRANCH  24  25
HETATM   25  C   UNL     1     -11.267  13.770  67.525  1.00  0.00    -0.316 C  
BRANCH  25  26
HETATM   26  C   UNL     1     -12.217  13.191  66.461  1.00  0.00    -0.358 C  
HETATM   27  C   UNL     1     -12.727  14.333  65.560  1.00  0.00    -0.399 C  
HETATM   28  C   UNL     1     -11.687  14.760  64.525  1.00  0.00    -0.391 C  
HETATM   29  N   UNL     1     -11.332  13.629  63.674  1.00  0.00    -0.525 NA 
HETATM   30  H   UNL     1     -10.732  13.915  62.900  1.00  0.00     0.000 HD 
HETATM   31  C   UNL     1     -10.726  12.552  64.457  1.00  0.00    -0.330 C  
HETATM   32  C   UNL     1     -11.634  12.067  65.589  1.00  0.00    -0.356 C  
ENDBRANCH  25  26
ENDBRANCH  24  25
ENDBRANCH  23  24
ENDBRANCH  22  23
ENDBRANCH  21  22
ENDBRANCH  18  21
ENDBRANCH  14  15
ENDBRANCH  10  14
ENDBRANCH   8  10
ENDBRANCH   5   8
ENDBRANCH   4   5
ENDBRANCH   3   4
ENDBRANCH   2   3
TORSDOF 13
ENDMDL
MODEL      267
REMARK 921   NORMALIZED FREE ENERGY PREDICTED BY IDOCK:   -3.02 KCAL/MOL
REMARK 922        TOTAL FREE ENERGY PREDICTED BY IDOCK:   -7.85 KCAL/MOL
REMARK 923 INTER-LIGAND FREE ENERGY PREDICTED BY IDOCK:   -8.98 KCAL/MOL
REMARK 924 INTRA-LIGAND FREE ENERGY PREDICTED BY IDOCK:    1.12 KCAL/MOL
REMARK 927      BINDING AFFINITY PREDICTED BY RF-SCORE:    0.00 PKD
ROOT
HETATM    1  C   UNL     1     -11.441  15.863  70.453  1.00  0.00    -0.393 C  
HETATM    2  C   UNL     1     -10.329  16.543  69.658  1.00  0.00    -0.221 C  
ENDROOT
BRANCH   2   3
HETATM    3  C   UNL     1     -10.147  15.799  68.346  1.00  0.00    -0.222 C  
BRANCH   3   4
HETATM    4  C   UNL     1     -11.261  15.954  67.307  1.00  0.00    -0.094 C  
BRANCH   4   5
HETATM    5  S   UNL     1     -10.410  16.196  65.732  1.00  0.00    -0.377 S  
HETATM    6  O   UNL     1     -10.466  17.598  65.389  1.00  0.00    -0.648 OA 
HETATM    7  O   UNL     1      -9.160  15.481  65.822  1.00  0.00    -0.286 OA 
BRANCH   5   8
HETATM    8  N   UNL     1     -11.363  15.419  64.556  1.00  0.00    -0.674 N  
HETATM    9  H   UNL     1     -11.943  15.900  63.869  1.00  0.00     0.000 HD 
BRANCH   8  10
HETATM   10  C   UNL     1     -11.229  13.882  64.672  1.00  0.00    -0.378 C  
HETATM   11  C   UNL     1     -12.617  13.269  64.868  1.00  0.00    -0.384 C  
HETATM   12  O   UNL     1     -12.915  12.123  64.567  1.00  0.00    -0.677 OA 
HETATM   13  O   UNL     1     -13.504  14.136  65.418  1.00  0.00    -0.648 OA 
BRANCH  10  14
HETATM   14  C   UNL     1     -10.284  13.384  65.781  1.00  0.00    -0.300 C  
BRANCH  14  15
HETATM   15  C   UNL     1     -10.273  11.886  65.960  1.00  0.00    -0.262 A  
HETATM   16  C   UNL     1     -11.062  11.343  66.979  1.00  0.00    -0.364 A  
HETATM   17  C   UNL     1     -10.909  10.009  67.348  1.00  0.00    -0.313 A  
HETATM   18  C   UNL     1      -9.958   9.203  66.718  1.00  0.00    -0.254 A  
HETATM   19  C   UNL     1      -9.450  11.029  65.216  1.00  0.00    -0.259 A  
HETATM   20  C   UNL     1      -9.277   9.698  65.607  1.00  0.00    -0.270 A  
BRANCH  18  21
HETATM   21  O   UNL     1      -9.608   7.941  67.129  1.00  0.00    -0.150 OA 
BRANCH  21  22
HETATM   22  C   UNL     1     -10.691   7.009  67.107  1.00  0.00    -0.363 C  
BRANCH  22  23
HETATM   23  C   UNL     1     -10.187   5.576  67.127  1.00  0.00    -0.260 C  
BRANCH  23  24
HETATM   24  C   UNL     1     -10.277   4.905  68.505  1.00  0.00    -0.105 C  
BRANCH  24  25
HETATM   25  C   UNL     1      -9.167   5.468  69.397  1.00  0.00    -0.145 C  
BRANCH  25  26
HETATM   26  C   UNL     1      -9.617   6.142  70.707  1.00  0.00    -0.191 C  
HETATM   27  C   UNL     1     -10.506   5.164  71.499  1.00  0.00    -0.256 C  
HETATM   28  C   UNL     1      -9.688   4.098  72.227  1.00  0.00    -0.154 C  
HETATM   29  N   UNL     1      -8.756   4.729  73.157  1.00  0.00    -0.109 NA 
HETATM   30  H   UNL     1      -8.284   4.039  73.742  1.00  0.00     0.000 HD 
HETATM   31  C   UNL     1      -7.801   5.580  72.449  1.00  0.00    -0.103 C  
HETATM   32  C   UNL     1      -8.487   6.661  71.611  1.00  0.00    -0.119 C  
ENDBRANCH  25  26
ENDBRANCH  24  25
ENDBRANCH  23  24
ENDBRANCH  22  23
ENDBRANCH  21  22
ENDBRANCH  18  21
ENDBRANCH  14  15
ENDBRANCH  10  14
ENDBRANCH   8  10
ENDBRANCH   5   8
ENDBRANCH   4   5
ENDBRANCH   3   4
ENDBRANCH   2   3
TORSDOF 13
ENDMDL
MODEL      268
REMARK 921   NORMALIZED FREE ENERGY PREDICTED BY IDOCK:   -3.01 KCAL/MOL
REMARK 922        TOTAL FREE ENERGY PREDICTED BY IDOCK:   -7.85 KCAL/MOL
REMARK 923 INTER-LIGAND FREE ENERGY PREDICTED BY IDOCK:   -6.53 KCAL/MOL
REMARK 924 INTRA-LIGAND FREE ENERGY PREDICTED BY IDOCK:   -1.32 KCAL/MOL
REMARK 927      BINDING AFFINITY PREDICTED BY RF-SCORE:    0.00 PKD
ROOT
HETATM    1  C   UNL     1     -10.665   8.317  72.488  1.00  0.00    -0.411 C  
HETATM    2  C   UNL     1     -11.512   8.098  71.237  1.00  0.00    -0.299 C  
ENDROOT
BRANCH   2   3
HETATM    3  C   UNL     1     -11.489   6.619  70.889  1.00  0.00    -0.401 C  
BRANCH   3   4
HETATM    4  C   UNL     1     -11.054   5.658  72.000  1.00  0.00    -0.230 C  
BRANCH   4   5
HETATM    5  S   UNL     1      -9.524   4.905  71.404  1.00  0.00    -0.163 S  
HETATM    6  O   UNL     1      -8.410   5.531  72.077  1.00  0.00    -0.120 OA 
HETATM    7  O   UNL     1      -9.728   3.477  71.429  1.00  0.00    -0.160 OA 
BRANCH   5   8
HETATM    8  N   UNL     1      -9.372   5.373  69.775  1.00  0.00    -0.137 N  
HETATM    9  H   UNL     1      -9.215   6.330  69.459  1.00  0.00     0.000 HD 
BRANCH   8  10
HETATM   10  C   UNL     1      -9.503   4.148  68.839  1.00  0.00    -0.169 C  
HETATM   11  C   UNL     1      -8.119   3.542  68.605  1.00  0.00    -0.065 C  
HETATM   12  O   UNL     1      -7.917   2.375  68.301  1.00  0.00    -0.057 OA 
HETATM   13  O   UNL     1      -7.115   4.439  68.771  1.00  0.00    -0.051 OA 
BRANCH  10  14
HETATM   14  C   UNL     1     -10.182   4.422  67.484  1.00  0.00     0.038 C  
BRANCH  14  15
HETATM   15  C   UNL     1     -10.108   5.859  67.034  1.00  0.00    -0.221 A  
HETATM   16  C   UNL     1      -8.929   6.293  66.418  1.00  0.00    -0.159 A  
HETATM   17  C   UNL     1      -8.710   7.650  66.202  1.00  0.00    -0.176 A  
HETATM   18  C   UNL     1      -9.653   8.596  66.611  1.00  0.00    -0.221 A  
HETATM   19  C   UNL     1     -11.123   6.796  67.280  1.00  0.00    -0.394 A  
HETATM   20  C   UNL     1     -10.888   8.160  67.089  1.00  0.00    -0.120 A  
BRANCH  18  21
HETATM   21  O   UNL     1      -9.450   9.953  66.609  1.00  0.00    -0.161 OA 
BRANCH  21  22
HETATM   22  C   UNL     1     -10.392  10.673  65.811  1.00  0.00    -0.219 C  
BRANCH  22  23
HETATM   23  C   UNL     1     -10.932  11.884  66.552  1.00  0.00    -0.337 C  
BRANCH  23  24
HETATM   24  C   UNL     1     -10.176  13.186  66.251  1.00  0.00    -0.294 C  
BRANCH  24  25
HETATM   25  C   UNL     1     -10.377  14.151  67.424  1.00  0.00    -0.256 C  
BRANCH  25  26
HETATM   26  C   UNL     1     -10.926  15.547  67.074  1.00  0.00    -0.283 C  
HETATM   27  C   UNL     1     -11.380  16.251  68.368  1.00  0.00    -0.312 C  
HETATM   28  C   UNL     1     -10.203  16.817  69.161  1.00  0.00    -0.306 C  
HETATM   29  N   UNL     1      -9.466  17.780  68.349  1.00  0.00    -0.287 NA 
HETATM   30  H   UNL     1      -8.750  18.261  68.893  1.00  0.00     0.000 HD 
HETATM   31  C   UNL     1      -8.902  17.142  67.160  1.00  0.00    -0.220 C  
HETATM   32  C   UNL     1      -9.967  16.463  66.296  1.00  0.00    -0.341 C  
ENDBRANCH  25  26
ENDBRANCH  24  25
ENDBRANCH  23  24
ENDBRANCH  22  23
ENDBRANCH  21  22
ENDBRANCH  18  21
ENDBRANCH  14  15
ENDBRANCH  10  14
ENDBRANCH   8  10
ENDBRANCH   5   8
ENDBRANCH   4   5
ENDBRANCH   3   4
ENDBRANCH   2   3
TORSDOF 13
ENDMDL
MODEL      269
REMARK 921   NORMALIZED FREE ENERGY PREDICTED BY IDOCK:   -3.00 KCAL/MOL
REMARK 922        TOTAL FREE ENERGY PREDICTED BY IDOCK:   -7.83 KCAL/MOL
REMARK 923 INTER-LIGAND FREE ENERGY PREDICTED BY IDOCK:   -5.78 KCAL/MOL
REMARK 924 INTRA-LIGAND FREE ENERGY PREDICTED BY IDOCK:   -2.05 KCAL/MOL
REMARK 927      BINDING AFFINITY PREDICTED BY RF-SCORE:    0.00 PKD
ROOT
HETATM    1  C   UNL     1     -10.188   4.886  69.392  1.00  0.00    -0.229 C  
HETATM    2  C   UNL     1     -10.604   5.860  68.293  1.00  0.00    -0.310 C  
ENDROOT
BRANCH   2   3
HETATM    3  C   UNL     1     -10.323   7.275  68.768  1.00  0.00    -0.209 C  
BRANCH   3   4
HETATM    4  C   UNL     1     -10.037   7.455  70.262  1.00  0.00    -0.197 C  
BRANCH   4   5
HETATM    5  S   UNL     1      -9.018   8.942  70.374  1.00  0.00    -0.201 S  
HETATM    6  O   UNL     1      -9.237   9.741  69.191  1.00  0.00    -0.157 OA 
HETATM    7  O   UNL     1      -9.206   9.475  71.702  1.00  0.00    -0.147 OA 
BRANCH   5   8
HETATM    8  N   UNL     1      -7.403   8.418  70.256  1.00  0.00    -0.054 N  
HETATM    9  H   UNL     1      -6.763   8.331  71.046  1.00  0.00     0.000 HD 
BRANCH   8  10
HETATM   10  C   UNL     1      -7.040   8.091  68.788  1.00  0.00    -0.071 C  
HETATM   11  C   UNL     1      -6.958   6.574  68.615  1.00  0.00    -0.080 C  
HETATM   12  O   UNL     1      -7.125   5.989  67.555  1.00  0.00    -0.070 OA 
HETATM   13  O   UNL     1      -6.680   5.925  69.774  1.00  0.00    -0.048 OA 
BRANCH  10  14
HETATM   14  C   UNL     1      -5.743   8.739  68.270  1.00  0.00    -0.039 C  
BRANCH  14  15
HETATM   15  C   UNL     1      -5.860  10.214  67.979  1.00  0.00    -0.038 A  
HETATM   16  C   UNL     1      -5.205  11.105  68.836  1.00  0.00    -0.040 A  
HETATM   17  C   UNL     1      -5.471  12.469  68.764  1.00  0.00    -0.058 A  
HETATM   18  C   UNL     1      -6.404  12.964  67.850  1.00  0.00    -0.125 A  
HETATM   19  C   UNL     1      -6.659  10.734  66.950  1.00  0.00    -0.091 A  
HETATM   20  C   UNL     1      -6.946  12.101  66.899  1.00  0.00     0.006 A  
BRANCH  18  21
HETATM   21  O   UNL     1      -6.866  14.256  67.828  1.00  0.00    -0.147 OA 
BRANCH  21  22
HETATM   22  C   UNL     1      -8.269  14.360  67.580  1.00  0.00    -0.188 C  
BRANCH  22  23
HETATM   23  C   UNL     1      -8.620  15.692  66.939  1.00  0.00    -0.281 C  
BRANCH  23  24
HETATM   24  C   UNL     1      -9.716  15.598  65.869  1.00  0.00    -0.388 C  
BRANCH  24  25
HETATM   25  C   UNL     1      -9.963  14.121  65.549  1.00  0.00    -0.323 C  
BRANCH  25  26
HETATM   26  C   UNL     1     -11.410  13.619  65.708  1.00  0.00    -0.315 C  
HETATM   27  C   UNL     1     -11.467  12.118  65.361  1.00  0.00    -0.387 C  
HETATM   28  C   UNL     1     -10.945  11.241  66.498  1.00  0.00    -0.245 C  
HETATM   29  N   UNL     1     -11.735  11.463  67.705  1.00  0.00    -0.590 NA 
HETATM   30  H   UNL     1     -11.485  10.804  68.443  1.00  0.00     0.000 HD 
HETATM   31  C   UNL     1     -11.623  12.849  68.160  1.00  0.00    -0.336 C  
HETATM   32  C   UNL     1     -12.048  13.854  67.087  1.00  0.00    -0.422 C  
ENDBRANCH  25  26
ENDBRANCH  24  25
ENDBRANCH  23  24
ENDBRANCH  22  23
ENDBRANCH  21  22
ENDBRANCH  18  21
ENDBRANCH  14  15
ENDBRANCH  10  14
ENDBRANCH   8  10
ENDBRANCH   5   8
ENDBRANCH   4   5
ENDBRANCH   3   4
ENDBRANCH   2   3
TORSDOF 13
ENDMDL
MODEL      270
REMARK 921   NORMALIZED FREE ENERGY PREDICTED BY IDOCK:   -2.99 KCAL/MOL
REMARK 922        TOTAL FREE ENERGY PREDICTED BY IDOCK:   -7.81 KCAL/MOL
REMARK 923 INTER-LIGAND FREE ENERGY PREDICTED BY IDOCK:   -6.20 KCAL/MOL
REMARK 924 INTRA-LIGAND FREE ENERGY PREDICTED BY IDOCK:   -1.62 KCAL/MOL
REMARK 927      BINDING AFFINITY PREDICTED BY RF-SCORE:    0.00 PKD
ROOT
HETATM    1  C   UNL     1      -8.327   4.720  64.924  1.00  0.00    -0.134 C  
HETATM    2  C   UNL     1      -9.547   4.069  65.572  1.00  0.00    -0.189 C  
ENDROOT
BRANCH   2   3
HETATM    3  C   UNL     1      -9.555   4.420  67.049  1.00  0.00    -0.221 C  
BRANCH   3   4
HETATM    4  C   UNL     1      -8.205   4.389  67.772  1.00  0.00    -0.098 C  
BRANCH   4   5
HETATM    5  S   UNL     1      -8.363   5.578  69.123  1.00  0.00    -0.098 S  
HETATM    6  O   UNL     1      -8.108   4.895  70.370  1.00  0.00    -0.080 OA 
HETATM    7  O   UNL     1      -7.623   6.753  68.730  1.00  0.00    -0.100 OA 
BRANCH   5   8
HETATM    8  N   UNL     1     -10.009   6.006  69.186  1.00  0.00    -0.153 N  
HETATM    9  H   UNL     1     -10.782   5.341  69.148  1.00  0.00     0.000 HD 
BRANCH   8  10
HETATM   10  C   UNL     1     -10.171   7.539  69.308  1.00  0.00    -0.201 C  
HETATM   11  C   UNL     1     -11.126   7.854  70.461  1.00  0.00    -0.256 C  
HETATM   12  O   UNL     1     -11.130   8.903  71.087  1.00  0.00    -0.247 OA 
HETATM   13  O   UNL     1     -11.983   6.837  70.729  1.00  0.00    -0.374 OA 
BRANCH  10  14
HETATM   14  C   UNL     1     -10.651   8.256  68.032  1.00  0.00    -0.188 C  
BRANCH  14  15
HETATM   15  C   UNL     1     -10.019   9.606  67.804  1.00  0.00    -0.211 A  
HETATM   16  C   UNL     1      -8.742   9.643  67.234  1.00  0.00    -0.136 A  
HETATM   17  C   UNL     1      -8.015  10.830  67.223  1.00  0.00    -0.117 A  
HETATM   18  C   UNL     1      -8.541  11.991  67.793  1.00  0.00    -0.157 A  
HETATM   19  C   UNL     1     -10.609  10.811  68.214  1.00  0.00    -0.233 A  
HETATM   20  C   UNL     1      -9.866  11.994  68.228  1.00  0.00    -0.204 A  
BRANCH  18  21
HETATM   21  O   UNL     1      -7.836  13.152  67.994  1.00  0.00    -0.122 OA 
BRANCH  21  22
HETATM   22  C   UNL     1      -8.661  14.316  68.080  1.00  0.00    -0.172 C  
BRANCH  22  23
HETATM   23  C   UNL     1      -8.583  15.144  66.809  1.00  0.00    -0.297 C  
BRANCH  23  24
HETATM   24  C   UNL     1      -9.940  15.367  66.128  1.00  0.00    -0.330 C  
BRANCH  24  25
HETATM   25  C   UNL     1     -10.492  14.011  65.680  1.00  0.00    -0.328 C  
BRANCH  25  26
HETATM   26  C   UNL     1     -10.759  13.845  64.172  1.00  0.00     0.046 C  
HETATM   27  C   UNL     1      -9.966  12.632  63.648  1.00  0.00     0.073 C  
HETATM   28  C   UNL     1     -10.637  11.306  64.001  1.00  0.00    -0.386 C  
HETATM   29  N   UNL     1     -11.980  11.256  63.434  1.00  0.00    -0.591 NA 
HETATM   30  H   UNL     1     -12.404  10.335  63.552  1.00  0.00     0.000 HD 
HETATM   31  C   UNL     1     -12.825  12.313  63.988  1.00  0.00    -0.279 C  
HETATM   32  C   UNL     1     -12.237  13.709  63.770  1.00  0.00    -0.413 C  
ENDBRANCH  25  26
ENDBRANCH  24  25
ENDBRANCH  23  24
ENDBRANCH  22  23
ENDBRANCH  21  22
ENDBRANCH  18  21
ENDBRANCH  14  15
ENDBRANCH  10  14
ENDBRANCH   8  10
ENDBRANCH   5   8
ENDBRANCH   4   5
ENDBRANCH   3   4
ENDBRANCH   2   3
TORSDOF 13
ENDMDL
MODEL      271
REMARK 921   NORMALIZED FREE ENERGY PREDICTED BY IDOCK:   -2.99 KCAL/MOL
REMARK 922        TOTAL FREE ENERGY PREDICTED BY IDOCK:   -7.81 KCAL/MOL
REMARK 923 INTER-LIGAND FREE ENERGY PREDICTED BY IDOCK:   -6.31 KCAL/MOL
REMARK 924 INTRA-LIGAND FREE ENERGY PREDICTED BY IDOCK:   -1.51 KCAL/MOL
REMARK 927      BINDING AFFINITY PREDICTED BY RF-SCORE:    0.00 PKD
ROOT
HETATM    1  C   UNL     1     -10.998   8.419  72.298  1.00  0.00    -0.431 C  
HETATM    2  C   UNL     1     -11.701   8.359  70.944  1.00  0.00    -0.269 C  
ENDROOT
BRANCH   2   3
HETATM    3  C   UNL     1     -11.395   7.019  70.299  1.00  0.00    -0.339 C  
BRANCH   3   4
HETATM    4  C   UNL     1     -10.979   5.882  71.237  1.00  0.00    -0.259 C  
BRANCH   4   5
HETATM    5  S   UNL     1      -9.418   5.264  70.570  1.00  0.00    -0.177 S  
HETATM    6  O   UNL     1      -8.396   5.408  71.580  1.00  0.00    -0.119 OA 
HETATM    7  O   UNL     1      -9.707   3.993  69.950  1.00  0.00    -0.203 OA 
BRANCH   5   8
HETATM    8  N   UNL     1      -8.971   6.347  69.336  1.00  0.00    -0.131 N  
HETATM    9  H   UNL     1      -8.995   7.363  69.419  1.00  0.00     0.000 HD 
BRANCH   8  10
HETATM   10  C   UNL     1      -8.522   5.579  68.070  1.00  0.00    -0.098 C  
HETATM   11  C   UNL     1      -7.008   5.369  68.118  1.00  0.00    -0.061 C  
HETATM   12  O   UNL     1      -6.417   4.468  67.541  1.00  0.00    -0.043 OA 
HETATM   13  O   UNL     1      -6.371   6.295  68.878  1.00  0.00    -0.037 OA 
BRANCH  10  14
HETATM   14  C   UNL     1      -8.910   6.232  66.730  1.00  0.00    -0.126 C  
BRANCH  14  15
HETATM   15  C   UNL     1      -9.216   7.705  66.824  1.00  0.00    -0.197 A  
HETATM   16  C   UNL     1      -8.139   8.599  66.821  1.00  0.00    -0.101 A  
HETATM   17  C   UNL     1      -8.340   9.937  67.146  1.00  0.00    -0.121 A  
HETATM   18  C   UNL     1      -9.610  10.401  67.494  1.00  0.00    -0.156 A  
HETATM   19  C   UNL     1     -10.512   8.213  67.000  1.00  0.00    -0.396 A  
HETATM   20  C   UNL     1     -10.706   9.550  67.355  1.00  0.00    -0.297 A  
BRANCH  18  21
HETATM   21  O   UNL     1      -9.874  11.649  68.002  1.00  0.00    -0.179 OA 
BRANCH  21  22
HETATM   22  C   UNL     1      -8.755  12.537  67.955  1.00  0.00    -0.180 C  
BRANCH  22  23
HETATM   23  C   UNL     1      -9.195  13.987  68.058  1.00  0.00    -0.201 C  
BRANCH  23  24
HETATM   24  C   UNL     1      -8.044  14.996  67.951  1.00  0.00    -0.142 C  
BRANCH  24  25
HETATM   25  C   UNL     1      -8.482  16.309  68.605  1.00  0.00    -0.221 C  
BRANCH  25  26
HETATM   26  C   UNL     1      -9.381  17.229  67.758  1.00  0.00    -0.250 C  
HETATM   27  C   UNL     1      -9.661  18.526  68.542  1.00  0.00    -0.399 C  
HETATM   28  C   UNL     1      -8.480  19.495  68.498  1.00  0.00    -0.338 C  
HETATM   29  N   UNL     1      -8.175  19.851  67.116  1.00  0.00    -0.299 NA 
HETATM   30  H   UNL     1      -7.471  20.588  67.065  1.00  0.00     0.000 HD 
HETATM   31  C   UNL     1      -7.779  18.673  66.345  1.00  0.00    -0.268 C  
HETATM   32  C   UNL     1      -8.847  17.576  66.359  1.00  0.00    -0.269 C  
ENDBRANCH  25  26
ENDBRANCH  24  25
ENDBRANCH  23  24
ENDBRANCH  22  23
ENDBRANCH  21  22
ENDBRANCH  18  21
ENDBRANCH  14  15
ENDBRANCH  10  14
ENDBRANCH   8  10
ENDBRANCH   5   8
ENDBRANCH   4   5
ENDBRANCH   3   4
ENDBRANCH   2   3
TORSDOF 13
ENDMDL
MODEL      272
REMARK 921   NORMALIZED FREE ENERGY PREDICTED BY IDOCK:   -2.99 KCAL/MOL
REMARK 922        TOTAL FREE ENERGY PREDICTED BY IDOCK:   -7.81 KCAL/MOL
REMARK 923 INTER-LIGAND FREE ENERGY PREDICTED BY IDOCK:   -5.26 KCAL/MOL
REMARK 924 INTRA-LIGAND FREE ENERGY PREDICTED BY IDOCK:   -2.55 KCAL/MOL
REMARK 927      BINDING AFFINITY PREDICTED BY RF-SCORE:    0.00 PKD
ROOT
HETATM    1  C   UNL     1     -12.370  11.346  69.638  1.00  0.00    -0.236 C  
HETATM    2  C   UNL     1     -11.602  10.471  68.650  1.00  0.00    -0.241 C  
ENDROOT
BRANCH   2   3
HETATM    3  C   UNL     1     -10.115  10.716  68.841  1.00  0.00    -0.215 C  
BRANCH   3   4
HETATM    4  C   UNL     1      -9.620  12.149  68.629  1.00  0.00    -0.060 C  
BRANCH   4   5
HETATM    5  S   UNL     1      -8.455  12.051  67.253  1.00  0.00    -0.182 S  
HETATM    6  O   UNL     1      -7.828  13.341  67.087  1.00  0.00    -0.136 OA 
HETATM    7  O   UNL     1      -7.684  10.846  67.449  1.00  0.00    -0.103 OA 
BRANCH   5   8
HETATM    8  N   UNL     1      -9.395  11.836  65.852  1.00  0.00    -0.281 N  
HETATM    9  H   UNL     1     -10.209  12.401  65.608  1.00  0.00     0.000 HD 
BRANCH   8  10
HETATM   10  C   UNL     1      -8.848  10.667  64.999  1.00  0.00    -0.197 C  
HETATM   11  C   UNL     1      -8.676  11.136  63.553  1.00  0.00     0.100 C  
HETATM   12  O   UNL     1      -7.893  10.642  62.755  1.00  0.00    -0.147 OA 
HETATM   13  O   UNL     1      -9.489  12.175  63.235  1.00  0.00    -0.269 OA 
BRANCH  10  14
HETATM   14  C   UNL     1      -9.691   9.379  65.026  1.00  0.00    -0.020 C  
BRANCH  14  15
HETATM   15  C   UNL     1      -8.999   8.197  65.656  1.00  0.00    -0.128 A  
HETATM   16  C   UNL     1      -9.739   7.396  66.533  1.00  0.00    -0.225 A  
HETATM   17  C   UNL     1      -9.098   6.447  67.324  1.00  0.00    -0.117 A  
HETATM   18  C   UNL     1      -7.711   6.294  67.266  1.00  0.00    -0.100 A  
HETATM   19  C   UNL     1      -7.636   7.917  65.475  1.00  0.00    -0.083 A  
HETATM   20  C   UNL     1      -6.991   6.984  66.292  1.00  0.00    -0.069 A  
BRANCH  18  21
HETATM   21  O   UNL     1      -6.973   5.522  68.130  1.00  0.00    -0.062 OA 
BRANCH  21  22
HETATM   22  C   UNL     1      -7.769   4.712  68.998  1.00  0.00    -0.071 C  
BRANCH  22  23
HETATM   23  C   UNL     1      -7.459   4.997  70.457  1.00  0.00    -0.062 C  
BRANCH  23  24
HETATM   24  C   UNL     1      -8.684   4.924  71.379  1.00  0.00    -0.141 C  
BRANCH  24  25
HETATM   25  C   UNL     1      -9.902   5.457  70.619  1.00  0.00    -0.254 C  
BRANCH  25  26
HETATM   26  C   UNL     1     -10.092   6.985  70.616  1.00  0.00    -0.201 C  
HETATM   27  C   UNL     1     -11.588   7.309  70.436  1.00  0.00    -0.253 C  
HETATM   28  C   UNL     1     -12.379   7.126  71.730  1.00  0.00    -0.350 C  
HETATM   29  N   UNL     1     -11.844   7.994  72.773  1.00  0.00    -0.595 NA 
HETATM   30  H   UNL     1     -12.428   7.980  73.610  1.00  0.00     0.000 HD 
HETATM   31  C   UNL     1     -10.455   7.654  73.080  1.00  0.00    -0.356 C  
HETATM   32  C   UNL     1      -9.548   7.725  71.849  1.00  0.00    -0.210 C  
ENDBRANCH  25  26
ENDBRANCH  24  25
ENDBRANCH  23  24
ENDBRANCH  22  23
ENDBRANCH  21  22
ENDBRANCH  18  21
ENDBRANCH  14  15
ENDBRANCH  10  14
ENDBRANCH   8  10
ENDBRANCH   5   8
ENDBRANCH   4   5
ENDBRANCH   3   4
ENDBRANCH   2   3
TORSDOF 13
ENDMDL
MODEL      273
REMARK 921   NORMALIZED FREE ENERGY PREDICTED BY IDOCK:   -2.98 KCAL/MOL
REMARK 922        TOTAL FREE ENERGY PREDICTED BY IDOCK:   -7.79 KCAL/MOL
REMARK 923 INTER-LIGAND FREE ENERGY PREDICTED BY IDOCK:   -8.55 KCAL/MOL
REMARK 924 INTRA-LIGAND FREE ENERGY PREDICTED BY IDOCK:    0.76 KCAL/MOL
REMARK 927      BINDING AFFINITY PREDICTED BY RF-SCORE:    0.00 PKD
ROOT
HETATM    1  C   UNL     1     -10.984  16.432  69.821  1.00  0.00    -0.341 C  
HETATM    2  C   UNL     1      -9.680  16.499  69.029  1.00  0.00    -0.258 C  
ENDROOT
BRANCH   2   3
HETATM    3  C   UNL     1      -9.600  15.281  68.125  1.00  0.00    -0.204 C  
BRANCH   3   4
HETATM    4  C   UNL     1      -9.128  15.521  66.687  1.00  0.00    -0.279 C  
BRANCH   4   5
HETATM    5  S   UNL     1     -10.605  15.334  65.666  1.00  0.00    -0.389 S  
HETATM    6  O   UNL     1     -11.668  14.800  66.485  1.00  0.00    -0.350 OA 
HETATM    7  O   UNL     1     -10.756  16.563  64.925  1.00  0.00    -0.702 OA 
BRANCH   5   8
HETATM    8  N   UNL     1     -10.252  14.101  64.547  1.00  0.00    -0.630 N  
HETATM    9  H   UNL     1      -9.605  14.196  63.764  1.00  0.00     0.000 HD 
BRANCH   8  10
HETATM   10  C   UNL     1     -11.047  12.816  64.880  1.00  0.00    -0.292 C  
HETATM   11  C   UNL     1     -12.299  12.757  64.004  1.00  0.00    -0.411 C  
HETATM   12  O   UNL     1     -12.883  11.727  63.701  1.00  0.00    -0.556 OA 
HETATM   13  O   UNL     1     -12.708  13.981  63.585  1.00  0.00    -0.778 OA 
BRANCH  10  14
HETATM   14  C   UNL     1     -11.444  12.650  66.359  1.00  0.00    -0.409 C  
BRANCH  14  15
HETATM   15  C   UNL     1     -10.679  11.576  67.090  1.00  0.00    -0.294 A  
HETATM   16  C   UNL     1     -11.131  10.257  66.974  1.00  0.00    -0.104 A  
HETATM   17  C   UNL     1     -10.621   9.266  67.808  1.00  0.00    -0.307 A  
HETATM   18  C   UNL     1      -9.667   9.577  68.780  1.00  0.00    -0.159 A  
HETATM   19  C   UNL     1      -9.599  11.845  67.943  1.00  0.00    -0.193 A  
HETATM   20  C   UNL     1      -9.109  10.855  68.799  1.00  0.00    -0.174 A  
BRANCH  18  21
HETATM   21  O   UNL     1      -9.243   8.717  69.761  1.00  0.00    -0.149 OA 
BRANCH  21  22
HETATM   22  C   UNL     1      -8.155   7.881  69.360  1.00  0.00    -0.125 C  
BRANCH  22  23
HETATM   23  C   UNL     1      -7.738   6.942  70.480  1.00  0.00    -0.096 C  
BRANCH  23  24
HETATM   24  C   UNL     1      -8.910   6.420  71.322  1.00  0.00    -0.138 C  
BRANCH  24  25
HETATM   25  C   UNL     1      -9.246   4.998  70.864  1.00  0.00    -0.192 C  
BRANCH  25  26
HETATM   26  C   UNL     1     -10.283   4.234  71.709  1.00  0.00    -0.182 C  
HETATM   27  C   UNL     1      -9.733   2.834  72.043  1.00  0.00    -0.223 C  
HETATM   28  C   UNL     1      -8.709   2.870  73.176  1.00  0.00    -0.079 C  
HETATM   29  N   UNL     1      -9.314   3.425  74.382  1.00  0.00    -0.092 NA 
HETATM   30  H   UNL     1      -8.689   3.349  75.185  1.00  0.00     0.000 HD 
HETATM   31  C   UNL     1      -9.748   4.805  74.166  1.00  0.00    -0.137 C  
HETATM   32  C   UNL     1     -10.733   4.934  73.002  1.00  0.00    -0.305 C  
ENDBRANCH  25  26
ENDBRANCH  24  25
ENDBRANCH  23  24
ENDBRANCH  22  23
ENDBRANCH  21  22
ENDBRANCH  18  21
ENDBRANCH  14  15
ENDBRANCH  10  14
ENDBRANCH   8  10
ENDBRANCH   5   8
ENDBRANCH   4   5
ENDBRANCH   3   4
ENDBRANCH   2   3
TORSDOF 13
ENDMDL
MODEL      274
REMARK 921   NORMALIZED FREE ENERGY PREDICTED BY IDOCK:   -2.97 KCAL/MOL
REMARK 922        TOTAL FREE ENERGY PREDICTED BY IDOCK:   -7.76 KCAL/MOL
REMARK 923 INTER-LIGAND FREE ENERGY PREDICTED BY IDOCK:   -7.40 KCAL/MOL
REMARK 924 INTRA-LIGAND FREE ENERGY PREDICTED BY IDOCK:   -0.36 KCAL/MOL
REMARK 927      BINDING AFFINITY PREDICTED BY RF-SCORE:    0.00 PKD
ROOT
HETATM    1  C   UNL     1      -9.784   4.814  68.743  1.00  0.00    -0.235 C  
HETATM    2  C   UNL     1      -9.985   5.158  70.217  1.00  0.00    -0.320 C  
ENDROOT
BRANCH   2   3
HETATM    3  C   UNL     1      -9.241   6.448  70.518  1.00  0.00    -0.162 C  
BRANCH   3   4
HETATM    4  C   UNL     1      -9.760   7.283  71.692  1.00  0.00    -0.154 C  
BRANCH   4   5
HETATM    5  S   UNL     1     -11.053   8.333  70.993  1.00  0.00    -0.256 S  
HETATM    6  O   UNL     1     -12.338   7.762  71.323  1.00  0.00    -0.310 OA 
HETATM    7  O   UNL     1     -10.711   9.693  71.331  1.00  0.00    -0.327 OA 
BRANCH   5   8
HETATM    8  N   UNL     1     -10.925   8.177  69.303  1.00  0.00    -0.428 N  
HETATM    9  H   UNL     1     -11.087   7.312  68.787  1.00  0.00     0.000 HD 
BRANCH   8  10
HETATM   10  C   UNL     1     -10.530   9.525  68.658  1.00  0.00    -0.211 C  
HETATM   11  C   UNL     1     -10.566   9.385  67.135  1.00  0.00    -0.224 C  
HETATM   12  O   UNL     1     -10.736  10.314  66.359  1.00  0.00    -0.144 OA 
HETATM   13  O   UNL     1     -10.391   8.106  66.719  1.00  0.00    -0.311 OA 
BRANCH  10  14
HETATM   14  C   UNL     1      -9.163  10.088  69.090  1.00  0.00    -0.196 C  
BRANCH  14  15
HETATM   15  C   UNL     1      -8.795  11.396  68.435  1.00  0.00    -0.167 A  
HETATM   16  C   UNL     1      -7.619  11.441  67.679  1.00  0.00    -0.108 A  
HETATM   17  C   UNL     1      -7.105  12.664  67.257  1.00  0.00    -0.101 A  
HETATM   18  C   UNL     1      -7.745  13.858  67.594  1.00  0.00    -0.184 A  
HETATM   19  C   UNL     1      -9.524  12.580  68.618  1.00  0.00    -0.010 A  
HETATM   20  C   UNL     1      -8.991  13.808  68.217  1.00  0.00    -0.186 A  
BRANCH  18  21
HETATM   21  O   UNL     1      -7.224  15.110  67.383  1.00  0.00    -0.190 OA 
BRANCH  21  22
HETATM   22  C   UNL     1      -6.077  15.398  68.186  1.00  0.00    -0.129 C  
BRANCH  22  23
HETATM   23  C   UNL     1      -6.151  16.796  68.774  1.00  0.00    -0.147 C  
BRANCH  23  24
HETATM   24  C   UNL     1      -7.582  17.284  69.041  1.00  0.00    -0.177 C  
BRANCH  24  25
HETATM   25  C   UNL     1      -7.696  18.741  68.582  1.00  0.00    -0.358 C  
BRANCH  25  26
HETATM   26  C   UNL     1      -9.098  19.373  68.654  1.00  0.00    -0.423 C  
HETATM   27  C   UNL     1      -9.230  20.440  67.550  1.00  0.00    -0.475 C  
HETATM   28  C   UNL     1      -9.485  19.822  66.176  1.00  0.00    -0.383 C  
HETATM   29  N   UNL     1     -10.711  19.032  66.200  1.00  0.00    -0.385 NA 
HETATM   30  H   UNL     1     -10.968  18.708  65.267  1.00  0.00     0.000 HD 
HETATM   31  C   UNL     1     -10.603  17.921  67.145  1.00  0.00    -0.307 C  
HETATM   32  C   UNL     1     -10.276  18.389  68.565  1.00  0.00    -0.394 C  
ENDBRANCH  25  26
ENDBRANCH  24  25
ENDBRANCH  23  24
ENDBRANCH  22  23
ENDBRANCH  21  22
ENDBRANCH  18  21
ENDBRANCH  14  15
ENDBRANCH  10  14
ENDBRANCH   8  10
ENDBRANCH   5   8
ENDBRANCH   4   5
ENDBRANCH   3   4
ENDBRANCH   2   3
TORSDOF 13
ENDMDL
MODEL      275
REMARK 921   NORMALIZED FREE ENERGY PREDICTED BY IDOCK:   -2.92 KCAL/MOL
REMARK 922        TOTAL FREE ENERGY PREDICTED BY IDOCK:   -7.67 KCAL/MOL
REMARK 923 INTER-LIGAND FREE ENERGY PREDICTED BY IDOCK:   -5.81 KCAL/MOL
REMARK 924 INTRA-LIGAND FREE ENERGY PREDICTED BY IDOCK:   -1.87 KCAL/MOL
REMARK 927      BINDING AFFINITY PREDICTED BY RF-SCORE:    0.00 PKD
ROOT
HETATM    1  C   UNL     1      -7.135   8.005  69.353  1.00  0.00    -0.063 C  
HETATM    2  C   UNL     1      -7.244   7.401  70.751  1.00  0.00    -0.068 C  
ENDROOT
BRANCH   2   3
HETATM    3  C   UNL     1      -8.661   6.892  70.949  1.00  0.00    -0.141 C  
BRANCH   3   4
HETATM    4  C   UNL     1      -8.816   5.421  71.345  1.00  0.00    -0.135 C  
BRANCH   4   5
HETATM    5  S   UNL     1      -9.800   4.675  70.027  1.00  0.00    -0.226 S  
HETATM    6  O   UNL     1      -9.872   3.251  70.254  1.00  0.00    -0.110 OA 
HETATM    7  O   UNL     1     -10.984   5.487  69.884  1.00  0.00    -0.309 OA 
BRANCH   5   8
HETATM    8  N   UNL     1      -8.886   4.846  68.601  1.00  0.00    -0.097 N  
HETATM    9  H   UNL     1      -7.969   5.291  68.550  1.00  0.00     0.000 HD 
BRANCH   8  10
HETATM   10  C   UNL     1      -9.636   4.235  67.394  1.00  0.00    -0.180 C  
HETATM   11  C   UNL     1      -8.716   3.247  66.677  1.00  0.00    -0.129 C  
HETATM   12  O   UNL     1      -9.104   2.310  65.995  1.00  0.00    -0.125 OA 
HETATM   13  O   UNL     1      -7.400   3.513  66.874  1.00  0.00    -0.066 OA 
BRANCH  10  14
HETATM   14  C   UNL     1     -10.192   5.252  66.379  1.00  0.00    -0.289 C  
BRANCH  14  15
HETATM   15  C   UNL     1      -9.507   6.595  66.409  1.00  0.00    -0.166 A  
HETATM   16  C   UNL     1     -10.210   7.676  66.951  1.00  0.00    -0.365 A  
HETATM   17  C   UNL     1      -9.734   8.974  66.787  1.00  0.00    -0.279 A  
HETATM   18  C   UNL     1      -8.561   9.215  66.069  1.00  0.00    -0.146 A  
HETATM   19  C   UNL     1      -8.244   6.828  65.844  1.00  0.00    -0.132 A  
HETATM   20  C   UNL     1      -7.783   8.133  65.656  1.00  0.00    -0.090 A  
BRANCH  18  21
HETATM   21  O   UNL     1      -8.112  10.458  65.700  1.00  0.00    -0.147 OA 
BRANCH  21  22
HETATM   22  C   UNL     1      -7.198  11.038  66.632  1.00  0.00    -0.143 C  
BRANCH  22  23
HETATM   23  C   UNL     1      -7.620  12.446  67.017  1.00  0.00    -0.046 C  
BRANCH  23  24
HETATM   24  C   UNL     1      -9.136  12.678  66.961  1.00  0.00    -0.215 C  
BRANCH  24  25
HETATM   25  C   UNL     1      -9.538  13.575  68.136  1.00  0.00    -0.215 C  
BRANCH  25  26
HETATM   26  C   UNL     1     -10.521  14.717  67.820  1.00  0.00    -0.254 C  
HETATM   27  C   UNL     1     -11.964  14.197  67.959  1.00  0.00    -0.372 C  
HETATM   28  C   UNL     1     -12.407  14.103  69.419  1.00  0.00    -0.205 C  
HETATM   29  N   UNL     1     -12.329  15.416  70.052  1.00  0.00    -0.496 NA 
HETATM   30  H   UNL     1     -12.733  15.405  70.989  1.00  0.00     0.000 HD 
HETATM   31  C   UNL     1     -10.954  15.914  70.062  1.00  0.00    -0.358 C  
HETATM   32  C   UNL     1     -10.349  15.994  68.659  1.00  0.00    -0.241 C  
ENDBRANCH  25  26
ENDBRANCH  24  25
ENDBRANCH  23  24
ENDBRANCH  22  23
ENDBRANCH  21  22
ENDBRANCH  18  21
ENDBRANCH  14  15
ENDBRANCH  10  14
ENDBRANCH   8  10
ENDBRANCH   5   8
ENDBRANCH   4   5
ENDBRANCH   3   4
ENDBRANCH   2   3
TORSDOF 13
ENDMDL
MODEL      276
REMARK 921   NORMALIZED FREE ENERGY PREDICTED BY IDOCK:   -2.90 KCAL/MOL
REMARK 922        TOTAL FREE ENERGY PREDICTED BY IDOCK:   -7.65 KCAL/MOL
REMARK 923 INTER-LIGAND FREE ENERGY PREDICTED BY IDOCK:   -6.76 KCAL/MOL
REMARK 924 INTRA-LIGAND FREE ENERGY PREDICTED BY IDOCK:   -0.88 KCAL/MOL
REMARK 927      BINDING AFFINITY PREDICTED BY RF-SCORE:    0.00 PKD
ROOT
HETATM    1  C   UNL     1      -6.520  14.634  68.188  1.00  0.00    -0.142 C  
HETATM    2  C   UNL     1      -5.688  15.635  67.391  1.00  0.00    -0.006 C  
ENDROOT
BRANCH   2   3
HETATM    3  C   UNL     1      -6.070  17.039  67.828  1.00  0.00    -0.150 C  
BRANCH   3   4
HETATM    4  C   UNL     1      -7.557  17.298  68.086  1.00  0.00    -0.211 C  
BRANCH   4   5
HETATM    5  S   UNL     1      -8.262  17.671  66.466  1.00  0.00    -0.274 S  
HETATM    6  O   UNL     1      -9.384  18.562  66.646  1.00  0.00    -0.292 OA 
HETATM    7  O   UNL     1      -7.156  18.000  65.599  1.00  0.00    -0.490 OA 
BRANCH   5   8
HETATM    8  N   UNL     1      -8.942  16.217  65.901  1.00  0.00    -0.272 N  
HETATM    9  H   UNL     1      -8.410  15.448  65.492  1.00  0.00     0.000 HD 
BRANCH   8  10
HETATM   10  C   UNL     1     -10.478  16.222  66.091  1.00  0.00    -0.322 C  
HETATM   11  C   UNL     1     -10.816  15.664  67.474  1.00  0.00    -0.316 C  
HETATM   12  O   UNL     1     -11.837  15.924  68.093  1.00  0.00    -0.231 OA 
HETATM   13  O   UNL     1      -9.854  14.840  67.960  1.00  0.00    -0.212 OA 
BRANCH  10  14
HETATM   14  C   UNL     1     -11.277  15.458  65.019  1.00  0.00    -0.393 C  
BRANCH  14  15
HETATM   15  C   UNL     1     -11.154  13.958  65.104  1.00  0.00    -0.334 A  
HETATM   16  C   UNL     1     -12.190  13.250  65.721  1.00  0.00    -0.510 A  
HETATM   17  C   UNL     1     -12.025  11.906  66.044  1.00  0.00     0.038 A  
HETATM   18  C   UNL     1     -10.820  11.253  65.772  1.00  0.00    -0.194 A  
HETATM   19  C   UNL     1     -10.018  13.254  64.676  1.00  0.00    -0.141 A  
HETATM   20  C   UNL     1      -9.844  11.912  65.027  1.00  0.00    -0.234 A  
BRANCH  18  21
HETATM   21  O   UNL     1     -10.497   9.994  66.213  1.00  0.00    -0.189 OA 
BRANCH  21  22
HETATM   22  C   UNL     1      -9.092   9.780  66.360  1.00  0.00    -0.155 C  
BRANCH  22  23
HETATM   23  C   UNL     1      -8.685   8.409  65.848  1.00  0.00    -0.197 C  
BRANCH  23  24
HETATM   24  C   UNL     1      -8.283   7.425  66.955  1.00  0.00    -0.121 C  
BRANCH  24  25
HETATM   25  C   UNL     1      -9.555   6.818  67.556  1.00  0.00    -0.146 C  
BRANCH  25  26
HETATM   26  C   UNL     1      -9.361   5.873  68.756  1.00  0.00    -0.133 C  
HETATM   27  C   UNL     1      -8.379   6.516  69.754  1.00  0.00    -0.127 C  
HETATM   28  C   UNL     1      -9.044   7.598  70.604  1.00  0.00    -0.158 C  
HETATM   29  N   UNL     1     -10.158   7.031  71.356  1.00  0.00    -0.189 NA 
HETATM   30  H   UNL     1     -10.542   7.703  72.021  1.00  0.00     0.000 HD 
HETATM   31  C   UNL     1     -11.189   6.511  70.459  1.00  0.00    -0.344 C  
HETATM   32  C   UNL     1     -10.647   5.458  69.490  1.00  0.00    -0.316 C  
ENDBRANCH  25  26
ENDBRANCH  24  25
ENDBRANCH  23  24
ENDBRANCH  22  23
ENDBRANCH  21  22
ENDBRANCH  18  21
ENDBRANCH  14  15
ENDBRANCH  10  14
ENDBRANCH   8  10
ENDBRANCH   5   8
ENDBRANCH   4   5
ENDBRANCH   3   4
ENDBRANCH   2   3
TORSDOF 13
ENDMDL
MODEL      277
REMARK 921   NORMALIZED FREE ENERGY PREDICTED BY IDOCK:   -2.88 KCAL/MOL
REMARK 922        TOTAL FREE ENERGY PREDICTED BY IDOCK:   -7.61 KCAL/MOL
REMARK 923 INTER-LIGAND FREE ENERGY PREDICTED BY IDOCK:   -5.37 KCAL/MOL
REMARK 924 INTRA-LIGAND FREE ENERGY PREDICTED BY IDOCK:   -2.24 KCAL/MOL
REMARK 927      BINDING AFFINITY PREDICTED BY RF-SCORE:    0.00 PKD
ROOT
HETATM    1  C   UNL     1     -10.533   5.204  69.266  1.00  0.00    -0.193 C  
HETATM    2  C   UNL     1     -10.985   6.569  68.750  1.00  0.00    -0.371 C  
ENDROOT
BRANCH   2   3
HETATM    3  C   UNL     1     -10.964   7.554  69.906  1.00  0.00    -0.223 C  
BRANCH   3   4
HETATM    4  C   UNL     1     -10.651   6.982  71.292  1.00  0.00    -0.218 C  
BRANCH   4   5
HETATM    5  S   UNL     1      -9.321   8.016  71.942  1.00  0.00    -0.186 S  
HETATM    6  O   UNL     1      -9.179   9.174  71.090  1.00  0.00    -0.250 OA 
HETATM    7  O   UNL     1      -9.546   8.137  73.363  1.00  0.00    -0.254 OA 
BRANCH   5   8
HETATM    8  N   UNL     1      -7.884   7.131  71.723  1.00  0.00    -0.092 N  
HETATM    9  H   UNL     1      -7.495   6.480  72.405  1.00  0.00     0.000 HD 
BRANCH   8  10
HETATM   10  C   UNL     1      -7.250   7.449  70.348  1.00  0.00    -0.068 C  
HETATM   11  C   UNL     1      -7.182   6.167  69.517  1.00  0.00    -0.078 C  
HETATM   12  O   UNL     1      -7.154   6.135  68.296  1.00  0.00    -0.077 OA 
HETATM   13  O   UNL     1      -7.155   5.044  70.280  1.00  0.00    -0.050 OA 
BRANCH  10  14
HETATM   14  C   UNL     1      -5.858   8.105  70.399  1.00  0.00    -0.028 C  
BRANCH  14  15
HETATM   15  C   UNL     1      -5.764   9.418  69.665  1.00  0.00    -0.033 A  
HETATM   16  C   UNL     1      -6.207  10.570  70.324  1.00  0.00    -0.130 A  
HETATM   17  C   UNL     1      -6.371  11.760  69.621  1.00  0.00    -0.129 A  
HETATM   18  C   UNL     1      -6.113  11.816  68.250  1.00  0.00    -0.049 A  
HETATM   19  C   UNL     1      -5.340   9.527  68.332  1.00  0.00    -0.036 A  
HETATM   20  C   UNL     1      -5.533  10.715  67.622  1.00  0.00    -0.043 A  
BRANCH  18  21
HETATM   21  O   UNL     1      -6.416  12.883  67.441  1.00  0.00    -0.160 OA 
BRANCH  21  22
HETATM   22  C   UNL     1      -7.817  13.050  67.213  1.00  0.00    -0.127 C  
BRANCH  22  23
HETATM   23  C   UNL     1      -8.435  11.793  66.625  1.00  0.00    -0.153 C  
BRANCH  23  24
HETATM   24  C   UNL     1      -9.516  11.159  67.511  1.00  0.00    -0.178 C  
BRANCH  24  25
HETATM   25  C   UNL     1     -10.080  12.237  68.442  1.00  0.00    -0.215 C  
BRANCH  25  26
HETATM   26  C   UNL     1     -11.607  12.433  68.413  1.00  0.00    -0.373 C  
HETATM   27  C   UNL     1     -12.283  11.261  69.150  1.00  0.00    -0.251 C  
HETATM   28  C   UNL     1     -12.205  11.410  70.669  1.00  0.00    -0.389 C  
HETATM   29  N   UNL     1     -12.854  12.649  71.085  1.00  0.00    -0.287 NA 
HETATM   30  H   UNL     1     -12.923  12.714  72.101  1.00  0.00     0.000 HD 
HETATM   31  C   UNL     1     -12.179  13.814  70.514  1.00  0.00    -0.369 C  
HETATM   32  C   UNL     1     -12.117  13.766  68.986  1.00  0.00    -0.359 C  
ENDBRANCH  25  26
ENDBRANCH  24  25
ENDBRANCH  23  24
ENDBRANCH  22  23
ENDBRANCH  21  22
ENDBRANCH  18  21
ENDBRANCH  14  15
ENDBRANCH  10  14
ENDBRANCH   8  10
ENDBRANCH   5   8
ENDBRANCH   4   5
ENDBRANCH   3   4
ENDBRANCH   2   3
TORSDOF 13
ENDMDL
MODEL      278
REMARK 921   NORMALIZED FREE ENERGY PREDICTED BY IDOCK:   -2.88 KCAL/MOL
REMARK 922        TOTAL FREE ENERGY PREDICTED BY IDOCK:   -7.61 KCAL/MOL
REMARK 923 INTER-LIGAND FREE ENERGY PREDICTED BY IDOCK:   -6.41 KCAL/MOL
REMARK 924 INTRA-LIGAND FREE ENERGY PREDICTED BY IDOCK:   -1.20 KCAL/MOL
REMARK 927      BINDING AFFINITY PREDICTED BY RF-SCORE:    0.00 PKD
ROOT
HETATM    1  C   UNL     1      -7.875  19.409  68.734  1.00  0.00    -0.392 C  
HETATM    2  C   UNL     1      -7.059  19.200  67.461  1.00  0.00    -0.229 C  
ENDROOT
BRANCH   2   3
HETATM    3  C   UNL     1      -7.970  18.626  66.391  1.00  0.00    -0.298 C  
BRANCH   3   4
HETATM    4  C   UNL     1      -7.817  17.133  66.084  1.00  0.00    -0.268 C  
BRANCH   4   5
HETATM    5  S   UNL     1      -9.463  16.429  66.322  1.00  0.00    -0.334 S  
HETATM    6  O   UNL     1      -9.755  16.406  67.736  1.00  0.00    -0.231 OA 
HETATM    7  O   UNL     1     -10.334  17.080  65.373  1.00  0.00    -0.617 OA 
BRANCH   5   8
HETATM    8  N   UNL     1      -9.346  14.792  65.872  1.00  0.00    -0.508 N  
HETATM    9  H   UNL     1      -8.642  14.414  65.238  1.00  0.00     0.000 HD 
BRANCH   8  10
HETATM   10  C   UNL     1     -10.453  13.956  66.556  1.00  0.00    -0.282 C  
HETATM   11  C   UNL     1      -9.808  12.942  67.501  1.00  0.00    -0.208 C  
HETATM   12  O   UNL     1     -10.361  12.455  68.475  1.00  0.00    -0.228 OA 
HETATM   13  O   UNL     1      -8.535  12.628  67.148  1.00  0.00    -0.184 OA 
BRANCH  10  14
HETATM   14  C   UNL     1     -11.417  13.228  65.599  1.00  0.00    -0.342 C  
BRANCH  14  15
HETATM   15  C   UNL     1     -10.779  12.116  64.805  1.00  0.00    -0.342 A  
HETATM   16  C   UNL     1     -10.919  10.808  65.281  1.00  0.00     0.052 A  
HETATM   17  C   UNL     1     -10.158   9.779  64.734  1.00  0.00     0.203 A  
HETATM   18  C   UNL     1      -9.238  10.039  63.716  1.00  0.00    -0.271 A  
HETATM   19  C   UNL     1      -9.986  12.338  63.669  1.00  0.00    -0.289 A  
HETATM   20  C   UNL     1      -9.203  11.309  63.141  1.00  0.00    -0.275 A  
BRANCH  18  21
HETATM   21  O   UNL     1      -8.320   9.135  63.242  1.00  0.00    -0.173 OA 
BRANCH  21  22
HETATM   22  C   UNL     1      -6.984   9.390  63.679  1.00  0.00    -0.095 C  
BRANCH  22  23
HETATM   23  C   UNL     1      -6.801   9.022  65.142  1.00  0.00    -0.076 C  
BRANCH  23  24
HETATM   24  C   UNL     1      -7.009   7.531  65.439  1.00  0.00    -0.059 C  
BRANCH  24  25
HETATM   25  C   UNL     1      -8.150   7.388  66.451  1.00  0.00    -0.118 C  
BRANCH  25  26
HETATM   26  C   UNL     1      -8.036   6.221  67.450  1.00  0.00    -0.109 C  
HETATM   27  C   UNL     1      -9.443   5.848  67.956  1.00  0.00    -0.111 C  
HETATM   28  C   UNL     1     -10.221   5.015  66.939  1.00  0.00    -0.229 C  
HETATM   29  N   UNL     1      -9.498   3.782  66.641  1.00  0.00    -0.207 NA 
HETATM   30  H   UNL     1     -10.052   3.154  66.058  1.00  0.00     0.000 HD 
HETATM   31  C   UNL     1      -8.196   4.068  66.040  1.00  0.00    -0.105 C  
HETATM   32  C   UNL     1      -7.325   4.963  66.925  1.00  0.00    -0.085 C  
ENDBRANCH  25  26
ENDBRANCH  24  25
ENDBRANCH  23  24
ENDBRANCH  22  23
ENDBRANCH  21  22
ENDBRANCH  18  21
ENDBRANCH  14  15
ENDBRANCH  10  14
ENDBRANCH   8  10
ENDBRANCH   5   8
ENDBRANCH   4   5
ENDBRANCH   3   4
ENDBRANCH   2   3
TORSDOF 13
ENDMDL
MODEL      279
REMARK 921   NORMALIZED FREE ENERGY PREDICTED BY IDOCK:   -2.87 KCAL/MOL
REMARK 922        TOTAL FREE ENERGY PREDICTED BY IDOCK:   -7.59 KCAL/MOL
REMARK 923 INTER-LIGAND FREE ENERGY PREDICTED BY IDOCK:   -6.17 KCAL/MOL
REMARK 924 INTRA-LIGAND FREE ENERGY PREDICTED BY IDOCK:   -1.42 KCAL/MOL
REMARK 927      BINDING AFFINITY PREDICTED BY RF-SCORE:    0.00 PKD
ROOT
HETATM    1  C   UNL     1      -5.270   9.334  72.416  1.00  0.00    -0.076 C  
HETATM    2  C   UNL     1      -6.636   8.770  72.033  1.00  0.00    -0.054 C  
ENDROOT
BRANCH   2   3
HETATM    3  C   UNL     1      -7.189   7.996  73.216  1.00  0.00    -0.151 C  
BRANCH   3   4
HETATM    4  C   UNL     1      -8.521   8.483  73.795  1.00  0.00     0.059 C  
BRANCH   4   5
HETATM    5  S   UNL     1      -9.734   7.236  73.311  1.00  0.00    -0.260 S  
HETATM    6  O   UNL     1     -10.074   6.448  74.473  1.00  0.00    -0.332 OA 
HETATM    7  O   UNL     1     -10.738   7.915  72.529  1.00  0.00    -0.273 OA 
BRANCH   5   8
HETATM    8  N   UNL     1      -8.917   6.160  72.276  1.00  0.00    -0.138 N  
HETATM    9  H   UNL     1      -7.917   6.194  72.077  1.00  0.00     0.000 HD 
BRANCH   8  10
HETATM   10  C   UNL     1      -9.899   5.125  71.678  1.00  0.00    -0.173 C  
HETATM   11  C   UNL     1      -9.576   3.740  72.243  1.00  0.00    -0.144 C  
HETATM   12  O   UNL     1     -10.380   2.825  72.329  1.00  0.00    -0.148 OA 
HETATM   13  O   UNL     1      -8.287   3.624  72.649  1.00  0.00    -0.083 OA 
BRANCH  10  14
HETATM   14  C   UNL     1      -9.932   5.058  70.140  1.00  0.00    -0.328 C  
BRANCH  14  15
HETATM   15  C   UNL     1      -9.432   6.305  69.455  1.00  0.00    -0.148 A  
HETATM   16  C   UNL     1      -8.159   6.268  68.876  1.00  0.00    -0.110 A  
HETATM   17  C   UNL     1      -7.551   7.445  68.448  1.00  0.00    -0.114 A  
HETATM   18  C   UNL     1      -8.193   8.675  68.604  1.00  0.00    -0.121 A  
HETATM   19  C   UNL     1     -10.141   7.516  69.446  1.00  0.00    -0.190 A  
HETATM   20  C   UNL     1      -9.517   8.699  69.042  1.00  0.00    -0.153 A  
BRANCH  18  21
HETATM   21  O   UNL     1      -7.607   9.896  68.383  1.00  0.00    -0.082 OA 
BRANCH  21  22
HETATM   22  C   UNL     1      -8.423  10.797  67.632  1.00  0.00    -0.119 C  
BRANCH  22  23
HETATM   23  C   UNL     1      -8.738  10.240  66.255  1.00  0.00    -0.157 C  
BRANCH  23  24
HETATM   24  C   UNL     1      -9.967  10.877  65.592  1.00  0.00    -0.305 C  
BRANCH  24  25
HETATM   25  C   UNL     1     -10.702  11.724  66.635  1.00  0.00    -0.300 C  
BRANCH  25  26
HETATM   26  C   UNL     1     -11.714  12.751  66.093  1.00  0.00    -0.458 C  
HETATM   27  C   UNL     1     -11.950  13.840  67.157  1.00  0.00    -0.442 C  
HETATM   28  C   UNL     1     -10.812  14.858  67.205  1.00  0.00    -0.311 C  
HETATM   29  N   UNL     1     -10.665  15.509  65.906  1.00  0.00    -0.331 NA 
HETATM   30  H   UNL     1      -9.994  16.276  65.945  1.00  0.00     0.000 HD 
HETATM   31  C   UNL     1     -10.316  14.539  64.869  1.00  0.00    -0.371 C  
HETATM   32  C   UNL     1     -11.341  13.409  64.754  1.00  0.00    -0.356 C  
ENDBRANCH  25  26
ENDBRANCH  24  25
ENDBRANCH  23  24
ENDBRANCH  22  23
ENDBRANCH  21  22
ENDBRANCH  18  21
ENDBRANCH  14  15
ENDBRANCH  10  14
ENDBRANCH   8  10
ENDBRANCH   5   8
ENDBRANCH   4   5
ENDBRANCH   3   4
ENDBRANCH   2   3
TORSDOF 13
ENDMDL
MODEL      280
REMARK 921   NORMALIZED FREE ENERGY PREDICTED BY IDOCK:   -2.85 KCAL/MOL
REMARK 922        TOTAL FREE ENERGY PREDICTED BY IDOCK:   -7.56 KCAL/MOL
REMARK 923 INTER-LIGAND FREE ENERGY PREDICTED BY IDOCK:   -6.69 KCAL/MOL
REMARK 924 INTRA-LIGAND FREE ENERGY PREDICTED BY IDOCK:   -0.87 KCAL/MOL
REMARK 927      BINDING AFFINITY PREDICTED BY RF-SCORE:    0.00 PKD
ROOT
HETATM    1  C   UNL     1      -7.041   5.314  62.618  1.00  0.00    -0.037 C  
HETATM    2  C   UNL     1      -8.157   4.388  63.096  1.00  0.00    -0.085 C  
ENDROOT
BRANCH   2   3
HETATM    3  C   UNL     1      -8.168   4.386  64.614  1.00  0.00    -0.106 C  
BRANCH   3   4
HETATM    4  C   UNL     1      -6.821   4.596  65.313  1.00  0.00    -0.060 C  
BRANCH   4   5
HETATM    5  S   UNL     1      -7.151   5.785  66.632  1.00  0.00    -0.070 S  
HETATM    6  O   UNL     1      -6.723   5.211  67.886  1.00  0.00    -0.052 OA 
HETATM    7  O   UNL     1      -6.664   7.062  66.170  1.00  0.00    -0.050 OA 
BRANCH   5   8
HETATM    8  N   UNL     1      -8.844   5.895  66.755  1.00  0.00    -0.117 N  
HETATM    9  H   UNL     1      -9.483   5.102  66.694  1.00  0.00     0.000 HD 
BRANCH   8  10
HETATM   10  C   UNL     1      -9.283   7.363  66.971  1.00  0.00    -0.142 C  
HETATM   11  C   UNL     1     -10.673   7.385  67.607  1.00  0.00    -0.207 C  
HETATM   12  O   UNL     1     -11.110   8.304  68.284  1.00  0.00     0.141 OA 
HETATM   13  O   UNL     1     -11.391   6.264  67.344  1.00  0.00    -0.247 OA 
BRANCH  10  14
HETATM   14  C   UNL     1      -9.278   8.246  65.709  1.00  0.00    -0.142 C  
BRANCH  14  15
HETATM   15  C   UNL     1      -9.303   9.727  65.989  1.00  0.00    -0.249 A  
HETATM   16  C   UNL     1      -8.370  10.238  66.897  1.00  0.00    -0.123 A  
HETATM   17  C   UNL     1      -8.498  11.539  67.376  1.00  0.00    -0.147 A  
HETATM   18  C   UNL     1      -9.564  12.344  66.969  1.00  0.00    -0.211 A  
HETATM   19  C   UNL     1     -10.265  10.596  65.452  1.00  0.00    -0.341 A  
HETATM   20  C   UNL     1     -10.408  11.892  65.956  1.00  0.00    -0.268 A  
BRANCH  18  21
HETATM   21  O   UNL     1      -9.876  13.563  67.518  1.00  0.00    -0.220 OA 
BRANCH  21  22
HETATM   22  C   UNL     1     -11.240  13.945  67.328  1.00  0.00    -0.312 C  
BRANCH  22  23
HETATM   23  C   UNL     1     -11.420  15.445  67.485  1.00  0.00    -0.228 C  
BRANCH  23  24
HETATM   24  C   UNL     1     -11.391  15.926  68.942  1.00  0.00    -0.377 C  
BRANCH  24  25
HETATM   25  C   UNL     1     -12.469  15.173  69.728  1.00  0.00    -0.221 C  
BRANCH  25  26
HETATM   26  C   UNL     1     -11.977  14.284  70.885  1.00  0.00    -0.389 C  
HETATM   27  C   UNL     1     -11.430  15.179  72.014  1.00  0.00    -0.450 C  
HETATM   28  C   UNL     1     -12.548  15.801  72.852  1.00  0.00    -0.466 C  
HETATM   29  N   UNL     1     -13.367  14.753  73.452  1.00  0.00    -0.556 NA 
HETATM   30  H   UNL     1     -14.045  15.138  74.111  1.00  0.00     0.000 HD 
HETATM   31  C   UNL     1     -14.017  13.940  72.425  1.00  0.00    -0.531 C  
HETATM   32  C   UNL     1     -13.014  13.305  71.458  1.00  0.00    -0.426 C  
ENDBRANCH  25  26
ENDBRANCH  24  25
ENDBRANCH  23  24
ENDBRANCH  22  23
ENDBRANCH  21  22
ENDBRANCH  18  21
ENDBRANCH  14  15
ENDBRANCH  10  14
ENDBRANCH   8  10
ENDBRANCH   5   8
ENDBRANCH   4   5
ENDBRANCH   3   4
ENDBRANCH   2   3
TORSDOF 13
ENDMDL
MODEL      281
REMARK 921   NORMALIZED FREE ENERGY PREDICTED BY IDOCK:   -2.84 KCAL/MOL
REMARK 922        TOTAL FREE ENERGY PREDICTED BY IDOCK:   -7.54 KCAL/MOL
REMARK 923 INTER-LIGAND FREE ENERGY PREDICTED BY IDOCK:   -6.16 KCAL/MOL
REMARK 924 INTRA-LIGAND FREE ENERGY PREDICTED BY IDOCK:   -1.39 KCAL/MOL
REMARK 927      BINDING AFFINITY PREDICTED BY RF-SCORE:    0.00 PKD
ROOT
HETATM    1  C   UNL     1      -6.657  15.701  69.223  1.00  0.00    -0.152 C  
HETATM    2  C   UNL     1      -6.014  16.461  68.065  1.00  0.00    -0.126 C  
ENDROOT
BRANCH   2   3
HETATM    3  C   UNL     1      -6.895  17.648  67.716  1.00  0.00    -0.187 C  
BRANCH   3   4
HETATM    4  C   UNL     1      -8.324  17.630  68.268  1.00  0.00    -0.274 C  
BRANCH   4   5
HETATM    5  S   UNL     1      -9.354  17.062  66.898  1.00  0.00    -0.261 S  
HETATM    6  O   UNL     1     -10.574  17.835  66.888  1.00  0.00    -0.323 OA 
HETATM    7  O   UNL     1      -8.495  16.974  65.742  1.00  0.00    -0.508 OA 
BRANCH   5   8
HETATM    8  N   UNL     1      -9.840  15.481  67.297  1.00  0.00    -0.223 N  
HETATM    9  H   UNL     1      -9.250  14.653  67.208  1.00  0.00     0.000 HD 
BRANCH   8  10
HETATM   10  C   UNL     1     -11.298  15.470  67.814  1.00  0.00    -0.286 C  
HETATM   11  C   UNL     1     -11.292  15.520  69.342  1.00  0.00    -0.316 C  
HETATM   12  O   UNL     1     -12.210  15.950  70.024  1.00  0.00    -0.325 OA 
HETATM   13  O   UNL     1     -10.146  15.032  69.881  1.00  0.00    -0.163 OA 
BRANCH  10  14
HETATM   14  C   UNL     1     -12.157  14.283  67.340  1.00  0.00    -0.371 C  
BRANCH  14  15
HETATM   15  C   UNL     1     -11.383  13.008  67.116  1.00  0.00    -0.348 A  
HETATM   16  C   UNL     1     -11.344  12.074  68.156  1.00  0.00    -0.349 A  
HETATM   17  C   UNL     1     -10.457  11.002  68.102  1.00  0.00    -0.216 A  
HETATM   18  C   UNL     1      -9.587  10.854  67.020  1.00  0.00    -0.173 A  
HETATM   19  C   UNL     1     -10.635  12.756  65.956  1.00  0.00    -0.289 A  
HETATM   20  C   UNL     1      -9.726  11.696  65.917  1.00  0.00    -0.260 A  
BRANCH  18  21
HETATM   21  O   UNL     1      -8.561   9.944  66.961  1.00  0.00    -0.127 OA 
BRANCH  21  22
HETATM   22  C   UNL     1      -8.117   9.496  68.243  1.00  0.00    -0.102 C  
BRANCH  22  23
HETATM   23  C   UNL     1      -6.622   9.701  68.413  1.00  0.00    -0.053 C  
BRANCH  23  24
HETATM   24  C   UNL     1      -5.792   8.426  68.211  1.00  0.00    -0.042 C  
BRANCH  24  25
HETATM   25  C   UNL     1      -6.601   7.230  68.721  1.00  0.00    -0.048 C  
BRANCH  25  26
HETATM   26  C   UNL     1      -6.697   6.016  67.777  1.00  0.00    -0.058 C  
HETATM   27  C   UNL     1      -8.127   5.443  67.833  1.00  0.00    -0.100 C  
HETATM   28  C   UNL     1      -9.114   6.271  67.010  1.00  0.00    -0.123 C  
HETATM   29  N   UNL     1      -8.691   6.315  65.614  1.00  0.00    -0.237 NA 
HETATM   30  H   UNL     1      -9.394   6.758  65.023  1.00  0.00     0.000 HD 
HETATM   31  C   UNL     1      -7.387   6.963  65.480  1.00  0.00    -0.079 C  
HETATM   32  C   UNL     1      -6.302   6.279  66.315  1.00  0.00    -0.042 C  
ENDBRANCH  25  26
ENDBRANCH  24  25
ENDBRANCH  23  24
ENDBRANCH  22  23
ENDBRANCH  21  22
ENDBRANCH  18  21
ENDBRANCH  14  15
ENDBRANCH  10  14
ENDBRANCH   8  10
ENDBRANCH   5   8
ENDBRANCH   4   5
ENDBRANCH   3   4
ENDBRANCH   2   3
TORSDOF 13
ENDMDL
MODEL      282
REMARK 921   NORMALIZED FREE ENERGY PREDICTED BY IDOCK:   -2.83 KCAL/MOL
REMARK 922        TOTAL FREE ENERGY PREDICTED BY IDOCK:   -7.52 KCAL/MOL
REMARK 923 INTER-LIGAND FREE ENERGY PREDICTED BY IDOCK:   -6.35 KCAL/MOL
REMARK 924 INTRA-LIGAND FREE ENERGY PREDICTED BY IDOCK:   -1.17 KCAL/MOL
REMARK 927      BINDING AFFINITY PREDICTED BY RF-SCORE:    0.00 PKD
ROOT
HETATM    1  C   UNL     1     -10.824   3.476  63.568  1.00  0.00    -0.205 C  
HETATM    2  C   UNL     1      -9.593   2.653  63.942  1.00  0.00    -0.132 C  
ENDROOT
BRANCH   2   3
HETATM    3  C   UNL     1      -8.765   3.446  64.938  1.00  0.00    -0.112 C  
BRANCH   3   4
HETATM    4  C   UNL     1      -7.251   3.472  64.707  1.00  0.00    -0.066 C  
BRANCH   4   5
HETATM    5  S   UNL     1      -6.957   4.906  63.649  1.00  0.00    -0.048 S  
HETATM    6  O   UNL     1      -5.593   5.345  63.834  1.00  0.00    -0.013 OA 
HETATM    7  O   UNL     1      -7.482   4.575  62.346  1.00  0.00    -0.042 OA 
BRANCH   5   8
HETATM    8  N   UNL     1      -7.912   6.164  64.282  1.00  0.00    -0.121 N  
HETATM    9  H   UNL     1      -8.884   6.340  64.025  1.00  0.00     0.000 HD 
BRANCH   8  10
HETATM   10  C   UNL     1      -7.105   7.004  65.301  1.00  0.00    -0.068 C  
HETATM   11  C   UNL     1      -7.777   6.914  66.672  1.00  0.00    -0.105 C  
HETATM   12  O   UNL     1      -7.200   7.077  67.736  1.00  0.00    -0.086 OA 
HETATM   13  O   UNL     1      -9.101   6.630  66.593  1.00  0.00    -0.135 OA 
BRANCH  10  14
HETATM   14  C   UNL     1      -6.902   8.483  64.922  1.00  0.00    -0.072 C  
BRANCH  14  15
HETATM   15  C   UNL     1      -8.176   9.220  64.596  1.00  0.00    -0.148 A  
HETATM   16  C   UNL     1      -8.395   9.592  63.265  1.00  0.00    -0.181 A  
HETATM   17  C   UNL     1      -9.422  10.476  62.945  1.00  0.00    -0.360 A  
HETATM   18  C   UNL     1     -10.234  11.014  63.946  1.00  0.00    -0.364 A  
HETATM   19  C   UNL     1      -9.103   9.624  65.569  1.00  0.00    -0.252 A  
HETATM   20  C   UNL     1     -10.114  10.534  65.249  1.00  0.00    -0.369 A  
BRANCH  18  21
HETATM   21  O   UNL     1     -11.144  12.023  63.754  1.00  0.00    -0.363 OA 
BRANCH  21  22
HETATM   22  C   UNL     1     -12.018  12.227  64.867  1.00  0.00    -0.357 C  
BRANCH  22  23
HETATM   23  C   UNL     1     -12.222  13.706  65.145  1.00  0.00    -0.461 C  
BRANCH  23  24
HETATM   24  C   UNL     1     -11.952  14.108  66.602  1.00  0.00    -0.470 C  
BRANCH  24  25
HETATM   25  C   UNL     1     -11.786  12.836  67.438  1.00  0.00    -0.425 C  
BRANCH  25  26
HETATM   26  C   UNL     1     -10.979  12.975  68.742  1.00  0.00    -0.295 C  
HETATM   27  C   UNL     1     -11.595  14.096  69.602  1.00  0.00    -0.349 C  
HETATM   28  C   UNL     1     -12.858  13.638  70.331  1.00  0.00    -0.042 C  
HETATM   29  N   UNL     1     -12.554  12.506  71.200  1.00  0.00    -0.327 NA 
HETATM   30  H   UNL     1     -13.351  12.259  71.787  1.00  0.00     0.000 HD 
HETATM   31  C   UNL     1     -12.078  11.360  70.426  1.00  0.00    -0.384 C  
HETATM   32  C   UNL     1     -10.846  11.693  69.582  1.00  0.00    -0.001 C  
ENDBRANCH  25  26
ENDBRANCH  24  25
ENDBRANCH  23  24
ENDBRANCH  22  23
ENDBRANCH  21  22
ENDBRANCH  18  21
ENDBRANCH  14  15
ENDBRANCH  10  14
ENDBRANCH   8  10
ENDBRANCH   5   8
ENDBRANCH   4   5
ENDBRANCH   3   4
ENDBRANCH   2   3
TORSDOF 13
ENDMDL
MODEL      283
REMARK 921   NORMALIZED FREE ENERGY PREDICTED BY IDOCK:   -2.77 KCAL/MOL
REMARK 922        TOTAL FREE ENERGY PREDICTED BY IDOCK:   -7.42 KCAL/MOL
REMARK 923 INTER-LIGAND FREE ENERGY PREDICTED BY IDOCK:   -5.65 KCAL/MOL
REMARK 924 INTRA-LIGAND FREE ENERGY PREDICTED BY IDOCK:   -1.77 KCAL/MOL
REMARK 927      BINDING AFFINITY PREDICTED BY RF-SCORE:    0.00 PKD
ROOT
HETATM    1  C   UNL     1     -10.604   7.765  66.947  1.00  0.00    -0.347 C  
HETATM    2  C   UNL     1     -10.902   6.293  66.671  1.00  0.00    -0.268 C  
ENDROOT
BRANCH   2   3
HETATM    3  C   UNL     1     -10.451   5.475  67.868  1.00  0.00    -0.244 C  
BRANCH   3   4
HETATM    4  C   UNL     1     -10.965   5.922  69.240  1.00  0.00    -0.327 C  
BRANCH   4   5
HETATM    5  S   UNL     1      -9.851   5.155  70.437  1.00  0.00    -0.237 S  
HETATM    6  O   UNL     1      -9.910   3.722  70.269  1.00  0.00    -0.190 OA 
HETATM    7  O   UNL     1      -8.606   5.881  70.368  1.00  0.00    -0.130 OA 
BRANCH   5   8
HETATM    8  N   UNL     1     -10.531   5.446  71.969  1.00  0.00    -0.216 N  
HETATM    9  H   UNL     1     -11.231   4.853  72.415  1.00  0.00     0.000 HD 
BRANCH   8  10
HETATM   10  C   UNL     1      -9.943   6.734  72.593  1.00  0.00    -0.171 C  
HETATM   11  C   UNL     1      -9.083   6.361  73.801  1.00  0.00    -0.132 C  
HETATM   12  O   UNL     1      -8.165   7.042  74.233  1.00  0.00    -0.125 OA 
HETATM   13  O   UNL     1      -9.441   5.177  74.358  1.00  0.00    -0.121 OA 
BRANCH  10  14
HETATM   14  C   UNL     1     -10.977   7.799  73.006  1.00  0.00    -0.442 C  
BRANCH  14  15
HETATM   15  C   UNL     1     -11.382   8.733  71.894  1.00  0.00    -0.431 A  
HETATM   16  C   UNL     1     -10.438   9.017  70.901  1.00  0.00    -0.321 A  
HETATM   17  C   UNL     1     -10.664  10.048  69.993  1.00  0.00    -0.348 A  
HETATM   18  C   UNL     1     -11.825  10.821  70.072  1.00  0.00    -0.344 A  
HETATM   19  C   UNL     1     -12.618   9.395  71.856  1.00  0.00    -0.481 A  
HETATM   20  C   UNL     1     -12.831  10.448  70.962  1.00  0.00    -0.494 A  
BRANCH  18  21
HETATM   21  O   UNL     1     -12.053  11.964  69.347  1.00  0.00    -0.280 OA 
BRANCH  21  22
HETATM   22  C   UNL     1     -11.107  13.005  69.603  1.00  0.00     0.091 C  
BRANCH  22  23
HETATM   23  C   UNL     1     -10.908  13.884  68.381  1.00  0.00    -0.269 C  
BRANCH  23  24
HETATM   24  C   UNL     1     -10.063  13.233  67.277  1.00  0.00    -0.234 C  
BRANCH  24  25
HETATM   25  C   UNL     1      -8.735  13.988  67.168  1.00  0.00    -0.234 C  
BRANCH  25  26
HETATM   26  C   UNL     1      -7.458  13.167  67.428  1.00  0.00    -0.131 C  
HETATM   27  C   UNL     1      -6.243  14.115  67.456  1.00  0.00     0.007 C  
HETATM   28  C   UNL     1      -6.131  14.871  68.779  1.00  0.00    -0.083 C  
HETATM   29  N   UNL     1      -6.004  13.929  69.886  1.00  0.00    -0.126 NA 
HETATM   30  H   UNL     1      -5.806  14.408  70.766  1.00  0.00     0.000 HD 
HETATM   31  C   UNL     1      -7.188  13.077  69.991  1.00  0.00     1.078 C  
HETATM   32  C   UNL     1      -7.470  12.304  68.701  1.00  0.00    -0.100 C  
ENDBRANCH  25  26
ENDBRANCH  24  25
ENDBRANCH  23  24
ENDBRANCH  22  23
ENDBRANCH  21  22
ENDBRANCH  18  21
ENDBRANCH  14  15
ENDBRANCH  10  14
ENDBRANCH   8  10
ENDBRANCH   5   8
ENDBRANCH   4   5
ENDBRANCH   3   4
ENDBRANCH   2   3
TORSDOF 13
ENDMDL
MODEL      284
REMARK 921   NORMALIZED FREE ENERGY PREDICTED BY IDOCK:   -2.77 KCAL/MOL
REMARK 922        TOTAL FREE ENERGY PREDICTED BY IDOCK:   -7.42 KCAL/MOL
REMARK 923 INTER-LIGAND FREE ENERGY PREDICTED BY IDOCK:   -6.84 KCAL/MOL
REMARK 924 INTRA-LIGAND FREE ENERGY PREDICTED BY IDOCK:   -0.58 KCAL/MOL
REMARK 927      BINDING AFFINITY PREDICTED BY RF-SCORE:    0.00 PKD
ROOT
HETATM    1  C   UNL     1      -6.481  14.865  68.339  1.00  0.00    -0.106 C  
HETATM    2  C   UNL     1      -5.905  15.924  67.403  1.00  0.00    -0.108 C  
ENDROOT
BRANCH   2   3
HETATM    3  C   UNL     1      -6.482  17.276  67.787  1.00  0.00    -0.164 C  
BRANCH   3   4
HETATM    4  C   UNL     1      -7.931  17.289  68.285  1.00  0.00    -0.244 C  
BRANCH   4   5
HETATM    5  S   UNL     1      -8.946  17.315  66.791  1.00  0.00    -0.260 S  
HETATM    6  O   UNL     1     -10.165  18.036  67.075  1.00  0.00    -0.331 OA 
HETATM    7  O   UNL     1      -8.074  17.689  65.704  1.00  0.00    -0.518 OA 
BRANCH   5   8
HETATM    8  N   UNL     1      -9.438  15.708  66.526  1.00  0.00    -0.252 N  
HETATM    9  H   UNL     1      -8.819  14.955  66.226  1.00  0.00     0.000 HD 
BRANCH   8  10
HETATM   10  C   UNL     1     -10.951  15.547  66.803  1.00  0.00    -0.257 C  
HETATM   11  C   UNL     1     -11.178  15.423  68.310  1.00  0.00    -0.323 C  
HETATM   12  O   UNL     1     -12.219  15.714  68.879  1.00  0.00    -0.251 OA 
HETATM   13  O   UNL     1     -10.089  14.951  68.970  1.00  0.00    -0.227 OA 
BRANCH  10  14
HETATM   14  C   UNL     1     -11.632  14.369  66.081  1.00  0.00    -0.372 C  
BRANCH  14  15
HETATM   15  C   UNL     1     -11.134  13.010  66.506  1.00  0.00    -0.315 A  
HETATM   16  C   UNL     1     -11.881  12.308  67.459  1.00  0.00    -0.331 A  
HETATM   17  C   UNL     1     -11.352  11.172  68.065  1.00  0.00    -0.380 A  
HETATM   18  C   UNL     1     -10.068  10.728  67.742  1.00  0.00    -0.174 A  
HETATM   19  C   UNL     1      -9.923  12.460  66.061  1.00  0.00    -0.270 A  
HETATM   20  C   UNL     1      -9.383  11.335  66.691  1.00  0.00    -0.196 A  
BRANCH  18  21
HETATM   21  O   UNL     1      -9.394   9.736  68.410  1.00  0.00    -0.132 OA 
BRANCH  21  22
HETATM   22  C   UNL     1      -9.260   9.976  69.812  1.00  0.00    -0.199 C  
BRANCH  22  23
HETATM   23  C   UNL     1      -7.905   9.516  70.324  1.00  0.00    -0.180 C  
BRANCH  23  24
HETATM   24  C   UNL     1      -7.950   8.192  71.099  1.00  0.00    -0.103 C  
BRANCH  24  25
HETATM   25  C   UNL     1      -9.390   7.671  71.095  1.00  0.00    -0.161 C  
BRANCH  25  26
HETATM   26  C   UNL     1      -9.616   6.281  71.717  1.00  0.00    -0.165 C  
HETATM   27  C   UNL     1     -10.797   5.593  71.004  1.00  0.00    -0.289 C  
HETATM   28  C   UNL     1     -10.396   5.016  69.647  1.00  0.00    -0.190 C  
HETATM   29  N   UNL     1      -9.327   4.037  69.813  1.00  0.00    -0.154 NA 
HETATM   30  H   UNL     1      -9.124   3.551  68.939  1.00  0.00     0.000 HD 
HETATM   31  C   UNL     1      -8.128   4.658  70.375  1.00  0.00    -0.071 C  
HETATM   32  C   UNL     1      -8.396   5.345  71.716  1.00  0.00    -0.119 C  
ENDBRANCH  25  26
ENDBRANCH  24  25
ENDBRANCH  23  24
ENDBRANCH  22  23
ENDBRANCH  21  22
ENDBRANCH  18  21
ENDBRANCH  14  15
ENDBRANCH  10  14
ENDBRANCH   8  10
ENDBRANCH   5   8
ENDBRANCH   4   5
ENDBRANCH   3   4
ENDBRANCH   2   3
TORSDOF 13
ENDMDL
MODEL      285
REMARK 921   NORMALIZED FREE ENERGY PREDICTED BY IDOCK:   -2.76 KCAL/MOL
REMARK 922        TOTAL FREE ENERGY PREDICTED BY IDOCK:   -7.41 KCAL/MOL
REMARK 923 INTER-LIGAND FREE ENERGY PREDICTED BY IDOCK:   -5.38 KCAL/MOL
REMARK 924 INTRA-LIGAND FREE ENERGY PREDICTED BY IDOCK:   -2.03 KCAL/MOL
REMARK 927      BINDING AFFINITY PREDICTED BY RF-SCORE:    0.00 PKD
ROOT
HETATM    1  C   UNL     1      -9.952   4.299  67.488  1.00  0.00    -0.100 C  
HETATM    2  C   UNL     1     -10.335   5.280  66.382  1.00  0.00    -0.315 C  
ENDROOT
BRANCH   2   3
HETATM    3  C   UNL     1      -9.125   6.137  66.054  1.00  0.00    -0.136 C  
BRANCH   3   4
HETATM    4  C   UNL     1      -9.292   7.652  66.207  1.00  0.00    -0.131 C  
BRANCH   4   5
HETATM    5  S   UNL     1      -7.633   8.335  66.003  1.00  0.00    -0.079 S  
HETATM    6  O   UNL     1      -6.872   8.063  67.200  1.00  0.00    -0.070 OA 
HETATM    7  O   UNL     1      -7.174   7.927  64.697  1.00  0.00    -0.072 OA 
BRANCH   5   8
HETATM    8  N   UNL     1      -7.819  10.026  65.976  1.00  0.00    -0.115 N  
HETATM    9  H   UNL     1      -7.048  10.694  65.964  1.00  0.00     0.000 HD 
BRANCH   8  10
HETATM   10  C   UNL     1      -9.317  10.412  65.972  1.00  0.00    -0.178 C  
HETATM   11  C   UNL     1      -9.759  10.701  64.536  1.00  0.00    -0.309 C  
HETATM   12  O   UNL     1     -10.909  10.604  64.134  1.00  0.00    -0.071 OA 
HETATM   13  O   UNL     1      -8.732  11.082  63.735  1.00  0.00    -0.072 OA 
BRANCH  10  14
HETATM   14  C   UNL     1      -9.695  11.600  66.876  1.00  0.00    -0.211 C  
BRANCH  14  15
HETATM   15  C   UNL     1     -10.045  11.215  68.291  1.00  0.00    -0.196 A  
HETATM   16  C   UNL     1      -9.212  10.302  68.947  1.00  0.00    -0.176 A  
HETATM   17  C   UNL     1      -9.611   9.728  70.150  1.00  0.00    -0.287 A  
HETATM   18  C   UNL     1     -10.851  10.043  70.710  1.00  0.00    -0.260 A  
HETATM   19  C   UNL     1     -11.205  11.657  68.945  1.00  0.00    -0.306 A  
HETATM   20  C   UNL     1     -11.616  11.058  70.139  1.00  0.00    -0.421 A  
BRANCH  18  21
HETATM   21  O   UNL     1     -11.408   9.399  71.787  1.00  0.00    -0.379 OA 
BRANCH  21  22
HETATM   22  C   UNL     1     -11.126   7.998  71.827  1.00  0.00    -0.260 C  
BRANCH  22  23
HETATM   23  C   UNL     1     -11.155   7.470  73.251  1.00  0.00    -0.294 C  
BRANCH  23  24
HETATM   24  C   UNL     1     -10.368   6.167  73.448  1.00  0.00    -0.253 C  
BRANCH  24  25
HETATM   25  C   UNL     1      -8.891   6.437  73.149  1.00  0.00    -0.132 C  
BRANCH  25  26
HETATM   26  C   UNL     1      -8.152   5.364  72.327  1.00  0.00    -0.107 C  
HETATM   27  C   UNL     1      -8.804   5.254  70.935  1.00  0.00    -0.151 C  
HETATM   28  C   UNL     1      -8.375   6.387  70.004  1.00  0.00    -0.130 C  
HETATM   29  N   UNL     1      -6.926   6.375  69.834  1.00  0.00    -0.064 NA 
HETATM   30  H   UNL     1      -6.625   7.044  69.124  1.00  0.00     0.000 HD 
HETATM   31  C   UNL     1      -6.245   6.600  71.109  1.00  0.00    -0.040 C  
HETATM   32  C   UNL     1      -6.636   5.572  72.173  1.00  0.00    -0.057 C  
ENDBRANCH  25  26
ENDBRANCH  24  25
ENDBRANCH  23  24
ENDBRANCH  22  23
ENDBRANCH  21  22
ENDBRANCH  18  21
ENDBRANCH  14  15
ENDBRANCH  10  14
ENDBRANCH   8  10
ENDBRANCH   5   8
ENDBRANCH   4   5
ENDBRANCH   3   4
ENDBRANCH   2   3
TORSDOF 13
ENDMDL
MODEL      286
REMARK 921   NORMALIZED FREE ENERGY PREDICTED BY IDOCK:   -2.76 KCAL/MOL
REMARK 922        TOTAL FREE ENERGY PREDICTED BY IDOCK:   -7.40 KCAL/MOL
REMARK 923 INTER-LIGAND FREE ENERGY PREDICTED BY IDOCK:   -4.98 KCAL/MOL
REMARK 924 INTRA-LIGAND FREE ENERGY PREDICTED BY IDOCK:   -2.42 KCAL/MOL
REMARK 927      BINDING AFFINITY PREDICTED BY RF-SCORE:    0.00 PKD
ROOT
HETATM    1  C   UNL     1      -6.494  11.525  69.954  1.00  0.00    -0.106 C  
HETATM    2  C   UNL     1      -6.561  12.889  69.271  1.00  0.00    -0.085 C  
ENDROOT
BRANCH   2   3
HETATM    3  C   UNL     1      -7.972  13.102  68.751  1.00  0.00     0.050 C  
BRANCH   3   4
HETATM    4  C   UNL     1      -8.549  12.002  67.855  1.00  0.00    -0.165 C  
BRANCH   4   5
HETATM    5  S   UNL     1     -10.329  12.029  68.157  1.00  0.00    -0.203 S  
HETATM    6  O   UNL     1     -10.754  13.403  68.285  1.00  0.00    -0.243 OA 
HETATM    7  O   UNL     1     -10.926  11.130  67.199  1.00  0.00    -0.265 OA 
BRANCH   5   8
HETATM    8  N   UNL     1     -10.556  11.354  69.703  1.00  0.00    -0.447 N  
HETATM    9  H   UNL     1     -10.612  11.893  70.568  1.00  0.00     0.000 HD 
BRANCH   8  10
HETATM   10  C   UNL     1     -10.666   9.814  69.617  1.00  0.00    -0.242 C  
HETATM   11  C   UNL     1     -11.633   9.317  70.693  1.00  0.00    -0.252 C  
HETATM   12  O   UNL     1     -12.261   8.271  70.628  1.00  0.00    -0.085 OA 
HETATM   13  O   UNL     1     -11.731  10.166  71.747  1.00  0.00    -0.226 OA 
BRANCH  10  14
HETATM   14  C   UNL     1      -9.334   9.050  69.730  1.00  0.00    -0.176 C  
BRANCH  14  15
HETATM   15  C   UNL     1      -9.044   8.133  68.569  1.00  0.00    -0.136 A  
HETATM   16  C   UNL     1     -10.129   7.524  67.929  1.00  0.00    -0.226 A  
HETATM   17  C   UNL     1      -9.916   6.492  67.019  1.00  0.00    -0.216 A  
HETATM   18  C   UNL     1      -8.623   6.041  66.746  1.00  0.00    -0.110 A  
HETATM   19  C   UNL     1      -7.745   7.797  68.159  1.00  0.00    -0.119 A  
HETATM   20  C   UNL     1      -7.536   6.741  67.267  1.00  0.00    -0.096 A  
BRANCH  18  21
HETATM   21  O   UNL     1      -8.326   4.920  66.012  1.00  0.00    -0.111 OA 
BRANCH  21  22
HETATM   22  C   UNL     1      -9.252   4.664  64.955  1.00  0.00    -0.143 C  
BRANCH  22  23
HETATM   23  C   UNL     1      -8.587   4.786  63.595  1.00  0.00    -0.136 C  
BRANCH  23  24
HETATM   24  C   UNL     1      -7.283   5.597  63.611  1.00  0.00    -0.054 C  
BRANCH  24  25
HETATM   25  C   UNL     1      -7.577   7.006  63.087  1.00  0.00    -0.104 C  
BRANCH  25  26
HETATM   26  C   UNL     1      -7.256   8.171  64.042  1.00  0.00    -0.091 C  
HETATM   27  C   UNL     1      -6.299   9.154  63.338  1.00  0.00    -0.090 C  
HETATM   28  C   UNL     1      -7.027  10.056  62.342  1.00  0.00    -0.115 C  
HETATM   29  N   UNL     1      -8.058  10.829  63.026  1.00  0.00    -0.345 NA 
HETATM   30  H   UNL     1      -8.477  11.526  62.408  1.00  0.00     0.000 HD 
HETATM   31  C   UNL     1      -9.071   9.953  63.614  1.00  0.00    -0.259 C  
HETATM   32  C   UNL     1      -8.472   8.937  64.589  1.00  0.00    -0.185 C  
ENDBRANCH  25  26
ENDBRANCH  24  25
ENDBRANCH  23  24
ENDBRANCH  22  23
ENDBRANCH  21  22
ENDBRANCH  18  21
ENDBRANCH  14  15
ENDBRANCH  10  14
ENDBRANCH   8  10
ENDBRANCH   5   8
ENDBRANCH   4   5
ENDBRANCH   3   4
ENDBRANCH   2   3
TORSDOF 13
ENDMDL
MODEL      287
REMARK 921   NORMALIZED FREE ENERGY PREDICTED BY IDOCK:   -2.75 KCAL/MOL
REMARK 922        TOTAL FREE ENERGY PREDICTED BY IDOCK:   -7.39 KCAL/MOL
REMARK 923 INTER-LIGAND FREE ENERGY PREDICTED BY IDOCK:   -6.48 KCAL/MOL
REMARK 924 INTRA-LIGAND FREE ENERGY PREDICTED BY IDOCK:   -0.91 KCAL/MOL
REMARK 927      BINDING AFFINITY PREDICTED BY RF-SCORE:    0.00 PKD
ROOT
HETATM    1  C   UNL     1     -10.624   8.391  72.654  1.00  0.00    -0.312 C  
HETATM    2  C   UNL     1     -11.373   7.913  71.412  1.00  0.00    -0.285 C  
ENDROOT
BRANCH   2   3
HETATM    3  C   UNL     1     -11.309   6.397  71.362  1.00  0.00    -0.354 C  
BRANCH   3   4
HETATM    4  C   UNL     1     -11.046   5.675  72.687  1.00  0.00    -0.282 C  
BRANCH   4   5
HETATM    5  S   UNL     1      -9.423   4.905  72.494  1.00  0.00    -0.140 S  
HETATM    6  O   UNL     1      -8.435   5.753  73.119  1.00  0.00    -0.117 OA 
HETATM    7  O   UNL     1      -9.577   3.517  72.854  1.00  0.00    -0.115 OA 
BRANCH   5   8
HETATM    8  N   UNL     1      -9.066   4.968  70.831  1.00  0.00    -0.139 N  
HETATM    9  H   UNL     1      -8.807   5.815  70.325  1.00  0.00     0.000 HD 
BRANCH   8  10
HETATM   10  C   UNL     1      -9.187   3.564  70.192  1.00  0.00    -0.154 C  
HETATM   11  C   UNL     1      -7.839   2.849  70.287  1.00  0.00    -0.042 C  
HETATM   12  O   UNL     1      -7.698   1.635  70.288  1.00  0.00    -0.039 OA 
HETATM   13  O   UNL     1      -6.792   3.708  70.374  1.00  0.00    -0.033 OA 
BRANCH  10  14
HETATM   14  C   UNL     1      -9.680   3.543  68.733  1.00  0.00    -0.027 C  
BRANCH  14  15
HETATM   15  C   UNL     1      -9.536   4.860  68.012  1.00  0.00    -0.173 A  
HETATM   16  C   UNL     1      -8.315   5.133  67.386  1.00  0.00    -0.106 A  
HETATM   17  C   UNL     1      -8.039   6.415  66.918  1.00  0.00    -0.109 A  
HETATM   18  C   UNL     1      -8.968   7.445  67.080  1.00  0.00    -0.126 A  
HETATM   19  C   UNL     1     -10.529   5.850  68.012  1.00  0.00    -0.294 A  
HETATM   20  C   UNL     1     -10.239   7.143  67.568  1.00  0.00    -0.272 A  
BRANCH  18  21
HETATM   21  O   UNL     1      -8.719   8.770  66.820  1.00  0.00    -0.119 OA 
BRANCH  21  22
HETATM   22  C   UNL     1      -9.569   9.327  65.816  1.00  0.00    -0.271 C  
BRANCH  22  23
HETATM   23  C   UNL     1     -10.277  10.573  66.320  1.00  0.00    -0.296 C  
BRANCH  23  24
HETATM   24  C   UNL     1      -9.492  11.871  66.090  1.00  0.00    -0.243 C  
BRANCH  24  25
HETATM   25  C   UNL     1      -9.986  12.925  67.086  1.00  0.00    -0.240 C  
BRANCH  25  26
HETATM   26  C   UNL     1     -10.355  14.300  66.499  1.00  0.00    -0.278 C  
HETATM   27  C   UNL     1     -10.197  14.256  64.966  1.00  0.00    -0.402 C  
HETATM   28  C   UNL     1     -11.370  13.553  64.284  1.00  0.00    -0.375 C  
HETATM   29  N   UNL     1     -12.618  14.241  64.597  1.00  0.00    -0.665 NA 
HETATM   30  H   UNL     1     -13.400  13.865  64.059  1.00  0.00     0.000 HD 
HETATM   31  C   UNL     1     -12.890  14.210  66.034  1.00  0.00    -0.158 C  
HETATM   32  C   UNL     1     -11.756  14.823  66.859  1.00  0.00    -0.316 C  
ENDBRANCH  25  26
ENDBRANCH  24  25
ENDBRANCH  23  24
ENDBRANCH  22  23
ENDBRANCH  21  22
ENDBRANCH  18  21
ENDBRANCH  14  15
ENDBRANCH  10  14
ENDBRANCH   8  10
ENDBRANCH   5   8
ENDBRANCH   4   5
ENDBRANCH   3   4
ENDBRANCH   2   3
TORSDOF 13
ENDMDL
MODEL      288
REMARK 921   NORMALIZED FREE ENERGY PREDICTED BY IDOCK:   -2.70 KCAL/MOL
REMARK 922        TOTAL FREE ENERGY PREDICTED BY IDOCK:   -7.29 KCAL/MOL
REMARK 923 INTER-LIGAND FREE ENERGY PREDICTED BY IDOCK:   -8.06 KCAL/MOL
REMARK 924 INTRA-LIGAND FREE ENERGY PREDICTED BY IDOCK:    0.77 KCAL/MOL
REMARK 927      BINDING AFFINITY PREDICTED BY RF-SCORE:    0.00 PKD
ROOT
HETATM    1  C   UNL     1     -13.868  13.031  72.386  1.00  0.00    -0.526 C  
HETATM    2  C   UNL     1     -13.414  13.633  71.059  1.00  0.00    -0.024 C  
ENDROOT
BRANCH   2   3
HETATM    3  C   UNL     1     -11.936  13.967  71.159  1.00  0.00    -0.201 C  
BRANCH   3   4
HETATM    4  C   UNL     1     -11.193  14.205  69.840  1.00  0.00    -0.107 C  
BRANCH   4   5
HETATM    5  S   UNL     1     -11.068  16.000  69.684  1.00  0.00    -0.349 S  
HETATM    6  O   UNL     1     -11.990  16.439  68.663  1.00  0.00    -0.086 OA 
HETATM    7  O   UNL     1     -11.101  16.536  71.024  1.00  0.00    -0.170 OA 
BRANCH   5   8
HETATM    8  N   UNL     1      -9.523  16.312  69.044  1.00  0.00    -0.250 N  
HETATM    9  H   UNL     1      -8.671  16.395  69.599  1.00  0.00     0.000 HD 
BRANCH   8  10
HETATM   10  C   UNL     1      -9.587  16.455  67.505  1.00  0.00    -0.227 C  
HETATM   11  C   UNL     1      -9.313  17.910  67.121  1.00  0.00    -0.265 C  
HETATM   12  O   UNL     1      -8.871  18.268  66.041  1.00  0.00    -0.502 OA 
HETATM   13  O   UNL     1      -9.613  18.782  68.116  1.00  0.00    -0.304 OA 
BRANCH  10  14
HETATM   14  C   UNL     1     -10.903  15.989  66.853  1.00  0.00    -0.203 C  
BRANCH  14  15
HETATM   15  C   UNL     1     -10.898  14.548  66.409  1.00  0.00    -0.318 A  
HETATM   16  C   UNL     1      -9.672  13.876  66.377  1.00  0.00    -0.309 A  
HETATM   17  C   UNL     1      -9.568  12.637  65.752  1.00  0.00    -0.117 A  
HETATM   18  C   UNL     1     -10.679  12.056  65.137  1.00  0.00    -0.288 A  
HETATM   19  C   UNL     1     -12.043  13.881  65.947  1.00  0.00    -0.459 A  
HETATM   20  C   UNL     1     -11.931  12.650  65.295  1.00  0.00    -0.487 A  
BRANCH  18  21
HETATM   21  O   UNL     1     -10.638  10.935  64.346  1.00  0.00    -0.360 OA 
BRANCH  21  22
HETATM   22  C   UNL     1      -9.356  10.303  64.314  1.00  0.00    -0.277 C  
BRANCH  22  23
HETATM   23  C   UNL     1      -9.349   9.027  65.138  1.00  0.00    -0.099 C  
BRANCH  23  24
HETATM   24  C   UNL     1      -9.629   9.250  66.631  1.00  0.00    -0.263 C  
BRANCH  24  25
HETATM   25  C   UNL     1     -10.510   8.106  67.140  1.00  0.00    -0.396 C  
BRANCH  25  26
HETATM   26  C   UNL     1      -9.819   7.050  68.023  1.00  0.00    -0.156 C  
HETATM   27  C   UNL     1      -8.952   7.763  69.079  1.00  0.00    -0.145 C  
HETATM   28  C   UNL     1      -9.784   8.313  70.236  1.00  0.00    -0.175 C  
HETATM   29  N   UNL     1     -10.509   7.230  70.893  1.00  0.00    -0.213 NA 
HETATM   30  H   UNL     1     -10.976   7.551  71.741  1.00  0.00     0.000 HD 
HETATM   31  C   UNL     1     -11.445   6.589  69.971  1.00  0.00    -0.412 C  
HETATM   32  C   UNL     1     -10.756   6.047  68.717  1.00  0.00    -0.375 C  
ENDBRANCH  25  26
ENDBRANCH  24  25
ENDBRANCH  23  24
ENDBRANCH  22  23
ENDBRANCH  21  22
ENDBRANCH  18  21
ENDBRANCH  14  15
ENDBRANCH  10  14
ENDBRANCH   8  10
ENDBRANCH   5   8
ENDBRANCH   4   5
ENDBRANCH   3   4
ENDBRANCH   2   3
TORSDOF 13
ENDMDL
MODEL      289
REMARK 921   NORMALIZED FREE ENERGY PREDICTED BY IDOCK:   -2.69 KCAL/MOL
REMARK 922        TOTAL FREE ENERGY PREDICTED BY IDOCK:   -7.28 KCAL/MOL
REMARK 923 INTER-LIGAND FREE ENERGY PREDICTED BY IDOCK:   -6.69 KCAL/MOL
REMARK 924 INTRA-LIGAND FREE ENERGY PREDICTED BY IDOCK:   -0.59 KCAL/MOL
REMARK 927      BINDING AFFINITY PREDICTED BY RF-SCORE:    0.00 PKD
ROOT
HETATM    1  C   UNL     1     -12.695  12.802  70.865  1.00  0.00    -0.277 C  
HETATM    2  C   UNL     1     -13.246  12.022  72.056  1.00  0.00    -0.481 C  
ENDROOT
BRANCH   2   3
HETATM    3  C   UNL     1     -13.007  10.542  71.819  1.00  0.00    -0.582 C  
BRANCH   3   4
HETATM    4  C   UNL     1     -12.389  10.152  70.473  1.00  0.00    -0.245 C  
BRANCH   4   5
HETATM    5  S   UNL     1     -11.261   8.792  70.846  1.00  0.00    -0.281 S  
HETATM    6  O   UNL     1     -10.540   9.109  72.057  1.00  0.00    -0.333 OA 
HETATM    7  O   UNL     1     -12.020   7.573  70.706  1.00  0.00    -0.277 OA 
BRANCH   5   8
HETATM    8  N   UNL     1     -10.082   8.806  69.618  1.00  0.00    -0.198 N  
HETATM    9  H   UNL     1      -9.080   8.910  69.778  1.00  0.00     0.000 HD 
BRANCH   8  10
HETATM   10  C   UNL     1     -10.739   8.639  68.227  1.00  0.00    -0.052 C  
HETATM   11  C   UNL     1     -10.445   7.235  67.696  1.00  0.00    -0.242 C  
HETATM   12  O   UNL     1     -11.139   6.645  66.882  1.00  0.00    -0.400 OA 
HETATM   13  O   UNL     1      -9.319   6.696  68.228  1.00  0.00    -0.122 OA 
BRANCH  10  14
HETATM   14  C   UNL     1     -10.327   9.685  67.174  1.00  0.00    -0.319 C  
BRANCH  14  15
HETATM   15  C   UNL     1      -8.964  10.289  67.400  1.00  0.00    -0.141 A  
HETATM   16  C   UNL     1      -8.183   9.773  68.440  1.00  0.00    -0.105 A  
HETATM   17  C   UNL     1      -7.033  10.441  68.849  1.00  0.00    -0.067 A  
HETATM   18  C   UNL     1      -6.652  11.639  68.240  1.00  0.00    -0.059 A  
HETATM   19  C   UNL     1      -8.482  11.392  66.679  1.00  0.00    -0.171 A  
HETATM   20  C   UNL     1      -7.343  12.076  67.111  1.00  0.00    -0.134 A  
BRANCH  18  21
HETATM   21  O   UNL     1      -5.647  12.459  68.689  1.00  0.00    -0.053 OA 
BRANCH  21  22
HETATM   22  C   UNL     1      -5.533  13.681  67.958  1.00  0.00    -0.116 C  
BRANCH  22  23
HETATM   23  C   UNL     1      -5.526  14.882  68.888  1.00  0.00    -0.087 C  
BRANCH  23  24
HETATM   24  C   UNL     1      -6.865  15.126  69.599  1.00  0.00    -0.188 C  
BRANCH  24  25
HETATM   25  C   UNL     1      -7.709  16.074  68.742  1.00  0.00    -0.187 C  
BRANCH  25  26
HETATM   26  C   UNL     1      -8.848  15.431  67.931  1.00  0.00    -0.168 C  
HETATM   27  C   UNL     1      -9.677  14.519  68.856  1.00  0.00    -0.169 C  
HETATM   28  C   UNL     1     -10.638  15.312  69.740  1.00  0.00    -0.282 C  
HETATM   29  N   UNL     1     -11.559  16.085  68.914  1.00  0.00    -0.374 NA 
HETATM   30  H   UNL     1     -12.286  16.528  69.476  1.00  0.00     0.000 HD 
HETATM   31  C   UNL     1     -10.839  17.062  68.097  1.00  0.00    -0.338 C  
HETATM   32  C   UNL     1      -9.781  16.412  67.202  1.00  0.00    -0.241 C  
ENDBRANCH  25  26
ENDBRANCH  24  25
ENDBRANCH  23  24
ENDBRANCH  22  23
ENDBRANCH  21  22
ENDBRANCH  18  21
ENDBRANCH  14  15
ENDBRANCH  10  14
ENDBRANCH   8  10
ENDBRANCH   5   8
ENDBRANCH   4   5
ENDBRANCH   3   4
ENDBRANCH   2   3
TORSDOF 13
ENDMDL
MODEL      290
REMARK 921   NORMALIZED FREE ENERGY PREDICTED BY IDOCK:   -2.68 KCAL/MOL
REMARK 922        TOTAL FREE ENERGY PREDICTED BY IDOCK:   -7.25 KCAL/MOL
REMARK 923 INTER-LIGAND FREE ENERGY PREDICTED BY IDOCK:   -5.86 KCAL/MOL
REMARK 924 INTRA-LIGAND FREE ENERGY PREDICTED BY IDOCK:   -1.39 KCAL/MOL
REMARK 927      BINDING AFFINITY PREDICTED BY RF-SCORE:    0.00 PKD
ROOT
HETATM    1  C   UNL     1     -12.989  14.327  65.348  1.00  0.00    -0.230 C  
HETATM    2  C   UNL     1     -11.611  14.730  64.830  1.00  0.00    -0.418 C  
ENDROOT
BRANCH   2   3
HETATM    3  C   UNL     1     -10.555  14.057  65.689  1.00  0.00    -0.313 C  
BRANCH   3   4
HETATM    4  C   UNL     1      -9.715  12.965  65.019  1.00  0.00     0.071 C  
BRANCH   4   5
HETATM    5  S   UNL     1     -10.772  11.500  64.998  1.00  0.00    -0.274 S  
HETATM    6  O   UNL     1     -11.428  11.387  66.280  1.00  0.00    -0.311 OA 
HETATM    7  O   UNL     1     -11.515  11.542  63.761  1.00  0.00    -0.402 OA 
BRANCH   5   8
HETATM    8  N   UNL     1      -9.724  10.162  64.922  1.00  0.00    -0.309 N  
HETATM    9  H   UNL     1      -9.379   9.745  64.057  1.00  0.00     0.000 HD 
BRANCH   8  10
HETATM   10  C   UNL     1      -9.366   9.666  66.342  1.00  0.00    -0.174 C  
HETATM   11  C   UNL     1      -7.903   9.997  66.639  1.00  0.00    -0.111 C  
HETATM   12  O   UNL     1      -7.440  10.143  67.760  1.00  0.00    -0.088 OA 
HETATM   13  O   UNL     1      -7.152  10.118  65.515  1.00  0.00    -0.125 OA 
BRANCH  10  14
HETATM   14  C   UNL     1      -9.618   8.168  66.601  1.00  0.00    -0.295 C  
BRANCH  14  15
HETATM   15  C   UNL     1     -10.401   7.879  67.856  1.00  0.00    -0.281 A  
HETATM   16  C   UNL     1     -10.644   8.940  68.736  1.00  0.00    -0.185 A  
HETATM   17  C   UNL     1     -11.144   8.692  70.011  1.00  0.00    -0.161 A  
HETATM   18  C   UNL     1     -11.393   7.384  70.434  1.00  0.00    -0.249 A  
HETATM   19  C   UNL     1     -10.819   6.591  68.223  1.00  0.00    -0.359 A  
HETATM   20  C   UNL     1     -11.293   6.342  69.514  1.00  0.00    -0.475 A  
BRANCH  18  21
HETATM   21  O   UNL     1     -11.709   7.027  71.721  1.00  0.00    -0.271 OA 
BRANCH  21  22
HETATM   22  C   UNL     1     -10.627   6.420  72.431  1.00  0.00    -0.213 C  
BRANCH  22  23
HETATM   23  C   UNL     1      -9.455   7.376  72.573  1.00  0.00    -0.192 C  
BRANCH  23  24
HETATM   24  C   UNL     1      -8.117   6.682  72.862  1.00  0.00    -0.107 C  
BRANCH  24  25
HETATM   25  C   UNL     1      -7.123   7.728  73.376  1.00  0.00    -0.110 C  
BRANCH  25  26
HETATM   26  C   UNL     1      -5.750   7.765  72.681  1.00  0.00    -0.040 C  
HETATM   27  C   UNL     1      -5.754   6.780  71.496  1.00  0.00    -0.036 C  
HETATM   28  C   UNL     1      -6.483   7.344  70.277  1.00  0.00    -0.035 C  
HETATM   29  N   UNL     1      -5.848   8.583  69.841  1.00  0.00    -0.025 NA 
HETATM   30  H   UNL     1      -6.239   8.915  68.959  1.00  0.00     0.000 HD 
HETATM   31  C   UNL     1      -5.920   9.606  70.883  1.00  0.00    -0.081 C  
HETATM   32  C   UNL     1      -5.286   9.150  72.199  1.00  0.00    -0.060 C  
ENDBRANCH  25  26
ENDBRANCH  24  25
ENDBRANCH  23  24
ENDBRANCH  22  23
ENDBRANCH  21  22
ENDBRANCH  18  21
ENDBRANCH  14  15
ENDBRANCH  10  14
ENDBRANCH   8  10
ENDBRANCH   5   8
ENDBRANCH   4   5
ENDBRANCH   3   4
ENDBRANCH   2   3
TORSDOF 13
ENDMDL
MODEL      291
REMARK 921   NORMALIZED FREE ENERGY PREDICTED BY IDOCK:   -2.65 KCAL/MOL
REMARK 922        TOTAL FREE ENERGY PREDICTED BY IDOCK:   -7.21 KCAL/MOL
REMARK 923 INTER-LIGAND FREE ENERGY PREDICTED BY IDOCK:   -7.66 KCAL/MOL
REMARK 924 INTRA-LIGAND FREE ENERGY PREDICTED BY IDOCK:    0.46 KCAL/MOL
REMARK 927      BINDING AFFINITY PREDICTED BY RF-SCORE:    0.00 PKD
ROOT
HETATM    1  C   UNL     1     -12.230  14.425  65.065  1.00  0.00    -0.418 C  
HETATM    2  C   UNL     1     -10.814  14.922  64.785  1.00  0.00    -0.382 C  
ENDROOT
BRANCH   2   3
HETATM    3  C   UNL     1     -10.718  16.377  65.210  1.00  0.00    -0.312 C  
BRANCH   3   4
HETATM    4  C   UNL     1     -10.457  16.644  66.696  1.00  0.00    -0.258 C  
BRANCH   4   5
HETATM    5  S   UNL     1      -9.118  17.856  66.732  1.00  0.00    -0.274 S  
HETATM    6  O   UNL     1      -8.061  17.400  65.859  1.00  0.00    -0.537 OA 
HETATM    7  O   UNL     1      -9.729  19.154  66.578  1.00  0.00    -0.324 OA 
BRANCH   5   8
HETATM    8  N   UNL     1      -8.457  17.782  68.298  1.00  0.00    -0.269 N  
HETATM    9  H   UNL     1      -8.563  18.508  69.006  1.00  0.00     0.000 HD 
BRANCH   8  10
HETATM   10  C   UNL     1      -7.673  16.463  68.499  1.00  0.00    -0.195 C  
HETATM   11  C   UNL     1      -6.206  16.788  68.786  1.00  0.00    -0.151 C  
HETATM   12  O   UNL     1      -5.444  16.056  69.398  1.00  0.00    -0.111 OA 
HETATM   13  O   UNL     1      -5.825  17.990  68.286  1.00  0.00    -0.168 OA 
BRANCH  10  14
HETATM   14  C   UNL     1      -7.761  15.459  67.335  1.00  0.00    -0.224 C  
BRANCH  14  15
HETATM   15  C   UNL     1      -8.139  14.060  67.751  1.00  0.00    -0.170 A  
HETATM   16  C   UNL     1      -7.140  13.245  68.294  1.00  0.00    -0.109 A  
HETATM   17  C   UNL     1      -7.364  11.883  68.469  1.00  0.00    -0.111 A  
HETATM   18  C   UNL     1      -8.580  11.309  68.091  1.00  0.00    -0.150 A  
HETATM   19  C   UNL     1      -9.413  13.512  67.540  1.00  0.00    -0.222 A  
HETATM   20  C   UNL     1      -9.627  12.139  67.689  1.00  0.00    -0.190 A  
BRANCH  18  21
HETATM   21  O   UNL     1      -8.829   9.960  68.054  1.00  0.00    -0.125 OA 
BRANCH  21  22
HETATM   22  C   UNL     1     -10.211   9.636  67.887  1.00  0.00    -0.198 C  
BRANCH  22  23
HETATM   23  C   UNL     1     -10.387   8.219  67.368  1.00  0.00    -0.350 C  
BRANCH  23  24
HETATM   24  C   UNL     1      -9.924   7.135  68.351  1.00  0.00    -0.166 C  
BRANCH  24  25
HETATM   25  C   UNL     1     -11.160   6.445  68.937  1.00  0.00    -0.420 C  
BRANCH  25  26
HETATM   26  C   UNL     1     -11.139   6.177  70.454  1.00  0.00    -0.420 C  
HETATM   27  C   UNL     1      -9.814   6.699  71.042  1.00  0.00    -0.196 C  
HETATM   28  C   UNL     1      -9.819   8.217  71.222  1.00  0.00    -0.164 C  
HETATM   29  N   UNL     1     -10.904   8.613  72.113  1.00  0.00    -0.354 NA 
HETATM   30  H   UNL     1     -10.856   9.606  72.345  1.00  0.00     0.000 HD 
HETATM   31  C   UNL     1     -12.205   8.254  71.550  1.00  0.00    -0.301 C  
HETATM   32  C   UNL     1     -12.321   6.758  71.247  1.00  0.00    -0.395 C  
ENDBRANCH  25  26
ENDBRANCH  24  25
ENDBRANCH  23  24
ENDBRANCH  22  23
ENDBRANCH  21  22
ENDBRANCH  18  21
ENDBRANCH  14  15
ENDBRANCH  10  14
ENDBRANCH   8  10
ENDBRANCH   5   8
ENDBRANCH   4   5
ENDBRANCH   3   4
ENDBRANCH   2   3
TORSDOF 13
ENDMDL
MODEL      292
REMARK 921   NORMALIZED FREE ENERGY PREDICTED BY IDOCK:   -2.64 KCAL/MOL
REMARK 922        TOTAL FREE ENERGY PREDICTED BY IDOCK:   -7.19 KCAL/MOL
REMARK 923 INTER-LIGAND FREE ENERGY PREDICTED BY IDOCK:   -6.12 KCAL/MOL
REMARK 924 INTRA-LIGAND FREE ENERGY PREDICTED BY IDOCK:   -1.08 KCAL/MOL
REMARK 927      BINDING AFFINITY PREDICTED BY RF-SCORE:    0.00 PKD
ROOT
HETATM    1  C   UNL     1      -5.722   9.169  71.545  1.00  0.00    -0.066 C  
HETATM    2  C   UNL     1      -6.644   9.623  70.415  1.00  0.00    -0.096 C  
ENDROOT
BRANCH   2   3
HETATM    3  C   UNL     1      -8.036   9.076  70.676  1.00  0.00    -0.184 C  
BRANCH   3   4
HETATM    4  C   UNL     1      -9.202  10.055  70.509  1.00  0.00     0.327 C  
BRANCH   4   5
HETATM    5  S   UNL     1     -10.079   9.499  69.031  1.00  0.00    -0.202 S  
HETATM    6  O   UNL     1     -10.011   8.058  68.969  1.00  0.00    -0.175 OA 
HETATM    7  O   UNL     1     -11.337  10.206  69.004  1.00  0.00    -0.211 OA 
BRANCH   5   8
HETATM    8  N   UNL     1      -9.159  10.039  67.705  1.00  0.00    -0.134 N  
HETATM    9  H   UNL     1      -8.492  10.810  67.738  1.00  0.00     0.000 HD 
BRANCH   8  10
HETATM   10  C   UNL     1      -9.474   9.201  66.443  1.00  0.00    -0.227 C  
HETATM   11  C   UNL     1      -8.184   8.555  65.933  1.00  0.00    -0.125 C  
HETATM   12  O   UNL     1      -8.140   7.534  65.264  1.00  0.00    -0.120 OA 
HETATM   13  O   UNL     1      -7.071   9.237  66.303  1.00  0.00    -0.085 OA 
BRANCH  10  14
HETATM   14  C   UNL     1     -10.155   9.967  65.295  1.00  0.00    -0.299 C  
BRANCH  14  15
HETATM   15  C   UNL     1     -10.389  11.430  65.578  1.00  0.00    -0.317 A  
HETATM   16  C   UNL     1      -9.352  12.325  65.298  1.00  0.00     0.169 A  
HETATM   17  C   UNL     1      -9.415  13.637  65.759  1.00  0.00     0.011 A  
HETATM   18  C   UNL     1     -10.504  14.072  66.517  1.00  0.00    -0.281 A  
HETATM   19  C   UNL     1     -11.555  11.919  66.186  1.00  0.00    -0.299 A  
HETATM   20  C   UNL     1     -11.604  13.228  66.672  1.00  0.00    -0.408 A  
BRANCH  18  21
HETATM   21  O   UNL     1     -10.573  15.280  67.165  1.00  0.00    -0.288 OA 
BRANCH  21  22
HETATM   22  C   UNL     1      -9.764  16.297  66.571  1.00  0.00    -0.263 C  
BRANCH  22  23
HETATM   23  C   UNL     1     -10.539  17.079  65.524  1.00  0.00    -0.184 C  
BRANCH  23  24
HETATM   24  C   UNL     1     -10.724  18.563  65.868  1.00  0.00    -0.237 C  
BRANCH  24  25
HETATM   25  C   UNL     1     -10.902  18.696  67.383  1.00  0.00    -0.381 C  
BRANCH  25  26
HETATM   26  C   UNL     1     -10.273  19.939  68.039  1.00  0.00    -0.572 C  
HETATM   27  C   UNL     1      -9.486  19.507  69.292  1.00  0.00    -0.209 C  
HETATM   28  C   UNL     1      -8.129  18.898  68.940  1.00  0.00    -0.251 C  
HETATM   29  N   UNL     1      -7.322  19.864  68.201  1.00  0.00    -0.302 NA 
HETATM   30  H   UNL     1      -6.369  19.526  68.060  1.00  0.00     0.000 HD 
HETATM   31  C   UNL     1      -7.960  20.223  66.935  1.00  0.00    -0.304 C  
HETATM   32  C   UNL     1      -9.369  20.787  67.128  1.00  0.00    -0.402 C  
ENDBRANCH  25  26
ENDBRANCH  24  25
ENDBRANCH  23  24
ENDBRANCH  22  23
ENDBRANCH  21  22
ENDBRANCH  18  21
ENDBRANCH  14  15
ENDBRANCH  10  14
ENDBRANCH   8  10
ENDBRANCH   5   8
ENDBRANCH   4   5
ENDBRANCH   3   4
ENDBRANCH   2   3
TORSDOF 13
ENDMDL
MODEL      293
REMARK 921   NORMALIZED FREE ENERGY PREDICTED BY IDOCK:   -2.63 KCAL/MOL
REMARK 922        TOTAL FREE ENERGY PREDICTED BY IDOCK:   -7.17 KCAL/MOL
REMARK 923 INTER-LIGAND FREE ENERGY PREDICTED BY IDOCK:   -5.40 KCAL/MOL
REMARK 924 INTRA-LIGAND FREE ENERGY PREDICTED BY IDOCK:   -1.78 KCAL/MOL
REMARK 927      BINDING AFFINITY PREDICTED BY RF-SCORE:    0.00 PKD
ROOT
HETATM    1  C   UNL     1      -8.916   5.641  65.631  1.00  0.00    -0.139 C  
HETATM    2  C   UNL     1     -10.134   4.794  65.990  1.00  0.00    -0.282 C  
ENDROOT
BRANCH   2   3
HETATM    3  C   UNL     1     -10.009   4.356  67.439  1.00  0.00    -0.146 C  
BRANCH   3   4
HETATM    4  C   UNL     1      -8.951   3.292  67.747  1.00  0.00    -0.150 C  
BRANCH   4   5
HETATM    5  S   UNL     1      -8.503   3.557  69.477  1.00  0.00    -0.064 S  
HETATM    6  O   UNL     1      -8.184   2.280  70.071  1.00  0.00    -0.041 OA 
HETATM    7  O   UNL     1      -7.576   4.663  69.500  1.00  0.00    -0.055 OA 
BRANCH   5   8
HETATM    8  N   UNL     1      -9.925   4.063  70.261  1.00  0.00    -0.131 N  
HETATM    9  H   UNL     1     -10.797   3.534  70.280  1.00  0.00     0.000 HD 
BRANCH   8  10
HETATM   10  C   UNL     1      -9.715   5.436  70.942  1.00  0.00    -0.180 C  
HETATM   11  C   UNL     1      -9.678   5.246  72.460  1.00  0.00    -0.150 C  
HETATM   12  O   UNL     1      -9.117   6.002  73.238  1.00  0.00    -0.131 OA 
HETATM   13  O   UNL     1     -10.340   4.134  72.868  1.00  0.00    -0.161 OA 
BRANCH  10  14
HETATM   14  C   UNL     1     -10.753   6.516  70.584  1.00  0.00    -0.297 C  
BRANCH  14  15
HETATM   15  C   UNL     1     -10.185   7.702  69.847  1.00  0.00    -0.215 A  
HETATM   16  C   UNL     1     -10.485   7.833  68.486  1.00  0.00    -0.202 A  
HETATM   17  C   UNL     1      -9.801   8.759  67.704  1.00  0.00    -0.228 A  
HETATM   18  C   UNL     1      -8.798   9.556  68.261  1.00  0.00    -0.124 A  
HETATM   19  C   UNL     1      -9.306   8.625  70.434  1.00  0.00    -0.191 A  
HETATM   20  C   UNL     1      -8.600   9.534  69.641  1.00  0.00    -0.189 A  
BRANCH  18  21
HETATM   21  O   UNL     1      -7.950  10.361  67.541  1.00  0.00    -0.106 OA 
BRANCH  21  22
HETATM   22  C   UNL     1      -7.350  11.401  68.316  1.00  0.00    -0.089 C  
BRANCH  22  23
HETATM   23  C   UNL     1      -6.701  12.448  67.427  1.00  0.00    -0.152 C  
BRANCH  23  24
HETATM   24  C   UNL     1      -7.263  13.863  67.620  1.00  0.00    -0.187 C  
BRANCH  24  25
HETATM   25  C   UNL     1      -8.765  13.760  67.901  1.00  0.00    -0.183 C  
BRANCH  25  26
HETATM   26  C   UNL     1      -9.541  15.088  67.968  1.00  0.00    -0.208 C  
HETATM   27  C   UNL     1      -9.145  15.967  66.765  1.00  0.00    -0.271 C  
HETATM   28  C   UNL     1      -9.836  15.528  65.475  1.00  0.00    -0.313 C  
HETATM   29  N   UNL     1     -11.285  15.594  65.634  1.00  0.00    -0.178 NA 
HETATM   30  H   UNL     1     -11.767  15.422  64.752  1.00  0.00     0.000 HD 
HETATM   31  C   UNL     1     -11.740  14.684  66.684  1.00  0.00    -0.333 C  
HETATM   32  C   UNL     1     -11.072  14.961  68.032  1.00  0.00    -0.301 C  
ENDBRANCH  25  26
ENDBRANCH  24  25
ENDBRANCH  23  24
ENDBRANCH  22  23
ENDBRANCH  21  22
ENDBRANCH  18  21
ENDBRANCH  14  15
ENDBRANCH  10  14
ENDBRANCH   8  10
ENDBRANCH   5   8
ENDBRANCH   4   5
ENDBRANCH   3   4
ENDBRANCH   2   3
TORSDOF 13
ENDMDL
MODEL      294
REMARK 921   NORMALIZED FREE ENERGY PREDICTED BY IDOCK:   -2.55 KCAL/MOL
REMARK 922        TOTAL FREE ENERGY PREDICTED BY IDOCK:   -7.02 KCAL/MOL
REMARK 923 INTER-LIGAND FREE ENERGY PREDICTED BY IDOCK:   -7.37 KCAL/MOL
REMARK 924 INTRA-LIGAND FREE ENERGY PREDICTED BY IDOCK:    0.34 KCAL/MOL
REMARK 927      BINDING AFFINITY PREDICTED BY RF-SCORE:    0.00 PKD
ROOT
HETATM    1  C   UNL     1     -12.590  15.270  70.418  1.00  0.00    -0.421 C  
HETATM    2  C   UNL     1     -11.125  14.911  70.181  1.00  0.00    -0.247 C  
ENDROOT
BRANCH   2   3
HETATM    3  C   UNL     1     -11.063  13.758  69.195  1.00  0.00    -0.282 C  
BRANCH   3   4
HETATM    4  C   UNL     1     -10.052  13.884  68.050  1.00  0.00    -0.244 C  
BRANCH   4   5
HETATM    5  S   UNL     1     -11.005  14.493  66.642  1.00  0.00    -0.328 S  
HETATM    6  O   UNL     1     -12.236  13.743  66.559  1.00  0.00    -0.435 OA 
HETATM    7  O   UNL     1     -10.992  15.934  66.725  1.00  0.00    -0.271 OA 
BRANCH   5   8
HETATM    8  N   UNL     1     -10.128  14.052  65.252  1.00  0.00    -0.499 N  
HETATM    9  H   UNL     1      -9.774  14.709  64.557  1.00  0.00     0.000 HD 
BRANCH   8  10
HETATM   10  C   UNL     1      -9.941  12.517  65.188  1.00  0.00    -0.192 C  
HETATM   11  C   UNL     1     -10.444  12.005  63.837  1.00  0.00    -0.402 C  
HETATM   12  O   UNL     1     -10.061  10.975  63.303  1.00  0.00    -0.333 OA 
HETATM   13  O   UNL     1     -11.373  12.820  63.277  1.00  0.00    -0.446 OA 
BRANCH  10  14
HETATM   14  C   UNL     1     -10.613  11.723  66.323  1.00  0.00    -0.292 C  
BRANCH  14  15
HETATM   15  C   UNL     1      -9.867  10.478  66.734  1.00  0.00    -0.237 A  
HETATM   16  C   UNL     1     -10.485   9.242  66.516  1.00  0.00    -0.204 A  
HETATM   17  C   UNL     1      -9.961   8.087  67.088  1.00  0.00    -0.303 A  
HETATM   18  C   UNL     1      -8.824   8.147  67.898  1.00  0.00    -0.131 A  
HETATM   19  C   UNL     1      -8.632  10.505  67.398  1.00  0.00    -0.122 A  
HETATM   20  C   UNL     1      -8.124   9.348  67.996  1.00  0.00    -0.106 A  
BRANCH  18  21
HETATM   21  O   UNL     1      -8.343   7.103  68.647  1.00  0.00    -0.124 OA 
BRANCH  21  22
HETATM   22  C   UNL     1      -9.247   6.001  68.745  1.00  0.00    -0.123 C  
BRANCH  22  23
HETATM   23  C   UNL     1     -10.037   6.049  70.041  1.00  0.00    -0.241 C  
BRANCH  23  24
HETATM   24  C   UNL     1      -9.476   7.034  71.076  1.00  0.00    -0.159 C  
BRANCH  24  25
HETATM   25  C   UNL     1      -8.505   6.282  71.991  1.00  0.00    -0.123 C  
BRANCH  25  26
HETATM   26  C   UNL     1      -8.792   6.356  73.502  1.00  0.00    -0.131 C  
HETATM   27  C   UNL     1     -10.283   6.681  73.719  1.00  0.00    -0.354 C  
HETATM   28  C   UNL     1     -11.176   5.457  73.521  1.00  0.00    -0.128 C  
HETATM   29  N   UNL     1     -10.796   4.402  74.454  1.00  0.00    -0.281 NA 
HETATM   30  H   UNL     1     -11.452   3.621  74.426  1.00  0.00     0.000 HD 
HETATM   31  C   UNL     1      -9.422   3.960  74.218  1.00  0.00    -0.103 C  
HETATM   32  C   UNL     1      -8.412   5.106  74.314  1.00  0.00    -0.104 C  
ENDBRANCH  25  26
ENDBRANCH  24  25
ENDBRANCH  23  24
ENDBRANCH  22  23
ENDBRANCH  21  22
ENDBRANCH  18  21
ENDBRANCH  14  15
ENDBRANCH  10  14
ENDBRANCH   8  10
ENDBRANCH   5   8
ENDBRANCH   4   5
ENDBRANCH   3   4
ENDBRANCH   2   3
TORSDOF 13
ENDMDL
MODEL      295
REMARK 921   NORMALIZED FREE ENERGY PREDICTED BY IDOCK:   -2.54 KCAL/MOL
REMARK 922        TOTAL FREE ENERGY PREDICTED BY IDOCK:   -7.02 KCAL/MOL
REMARK 923 INTER-LIGAND FREE ENERGY PREDICTED BY IDOCK:   -7.06 KCAL/MOL
REMARK 924 INTRA-LIGAND FREE ENERGY PREDICTED BY IDOCK:    0.04 KCAL/MOL
REMARK 927      BINDING AFFINITY PREDICTED BY RF-SCORE:    0.00 PKD
ROOT
HETATM    1  C   UNL     1      -7.269   9.711  63.689  1.00  0.00    -0.113 C  
HETATM    2  C   UNL     1      -8.263   8.752  64.341  1.00  0.00    -0.169 C  
ENDROOT
BRANCH   2   3
HETATM    3  C   UNL     1      -7.501   7.550  64.870  1.00  0.00    -0.089 C  
BRANCH   3   4
HETATM    4  C   UNL     1      -7.329   7.459  66.390  1.00  0.00    -0.083 C  
BRANCH   4   5
HETATM    5  S   UNL     1      -8.756   8.324  67.081  1.00  0.00    -0.124 S  
HETATM    6  O   UNL     1      -8.441   9.730  67.176  1.00  0.00    -0.124 OA 
HETATM    7  O   UNL     1      -9.916   7.847  66.367  1.00  0.00    -0.217 OA 
BRANCH   5   8
HETATM    8  N   UNL     1      -8.892   7.796  68.693  1.00  0.00    -0.131 N  
HETATM    9  H   UNL     1      -8.436   6.965  69.072  1.00  0.00     0.000 HD 
BRANCH   8  10
HETATM   10  C   UNL     1      -9.803   8.747  69.505  1.00  0.00    -0.180 C  
HETATM   11  C   UNL     1      -9.931   8.221  70.936  1.00  0.00    -0.190 C  
HETATM   12  O   UNL     1     -10.191   8.916  71.907  1.00  0.00    -0.324 OA 
HETATM   13  O   UNL     1      -9.722   6.884  71.027  1.00  0.00    -0.174 OA 
BRANCH  10  14
HETATM   14  C   UNL     1     -11.206   8.981  68.915  1.00  0.00     0.253 C  
BRANCH  14  15
HETATM   15  C   UNL     1     -11.618  10.430  68.853  1.00  0.00    -0.208 A  
HETATM   16  C   UNL     1     -11.490  11.096  67.629  1.00  0.00    -0.328 A  
HETATM   17  C   UNL     1     -11.622  12.480  67.567  1.00  0.00    -0.424 A  
HETATM   18  C   UNL     1     -11.867  13.222  68.725  1.00  0.00    -0.334 A  
HETATM   19  C   UNL     1     -12.038  11.160  69.975  1.00  0.00    -0.437 A  
HETATM   20  C   UNL     1     -12.141  12.552  69.916  1.00  0.00    -0.322 A  
BRANCH  18  21
HETATM   21  O   UNL     1     -11.832  14.592  68.796  1.00  0.00    -0.315 OA 
BRANCH  21  22
HETATM   22  C   UNL     1     -10.775  15.180  68.034  1.00  0.00    -0.264 C  
BRANCH  22  23
HETATM   23  C   UNL     1     -10.348  16.515  68.620  1.00  0.00    -0.287 C  
BRANCH  23  24
HETATM   24  C   UNL     1      -8.860  16.585  68.989  1.00  0.00    -0.223 C  
BRANCH  24  25
HETATM   25  C   UNL     1      -8.081  17.118  67.783  1.00  0.00    -0.197 C  
BRANCH  25  26
HETATM   26  C   UNL     1      -7.626  18.587  67.857  1.00  0.00    -0.252 C  
HETATM   27  C   UNL     1      -7.768  19.232  66.464  1.00  0.00    -0.284 C  
HETATM   28  C   UNL     1      -9.215  19.606  66.145  1.00  0.00    -0.340 C  
HETATM   29  N   UNL     1      -9.723  20.545  67.140  1.00  0.00    -0.531 NA 
HETATM   30  H   UNL     1     -10.643  20.902  66.883  1.00  0.00     0.000 HD 
HETATM   31  C   UNL     1      -9.730  19.945  68.474  1.00  0.00    -0.318 C  
HETATM   32  C   UNL     1      -8.346  19.454  68.904  1.00  0.00    -0.335 C  
ENDBRANCH  25  26
ENDBRANCH  24  25
ENDBRANCH  23  24
ENDBRANCH  22  23
ENDBRANCH  21  22
ENDBRANCH  18  21
ENDBRANCH  14  15
ENDBRANCH  10  14
ENDBRANCH   8  10
ENDBRANCH   5   8
ENDBRANCH   4   5
ENDBRANCH   3   4
ENDBRANCH   2   3
TORSDOF 13
ENDMDL
MODEL      296
REMARK 921   NORMALIZED FREE ENERGY PREDICTED BY IDOCK:   -2.53 KCAL/MOL
REMARK 922        TOTAL FREE ENERGY PREDICTED BY IDOCK:   -6.99 KCAL/MOL
REMARK 923 INTER-LIGAND FREE ENERGY PREDICTED BY IDOCK:   -7.26 KCAL/MOL
REMARK 924 INTRA-LIGAND FREE ENERGY PREDICTED BY IDOCK:    0.26 KCAL/MOL
REMARK 927      BINDING AFFINITY PREDICTED BY RF-SCORE:    0.00 PKD
ROOT
HETATM    1  C   UNL     1      -9.499  10.019  63.200  1.00  0.00    -0.229 C  
HETATM    2  C   UNL     1      -8.556   9.503  64.284  1.00  0.00    -0.215 C  
ENDROOT
BRANCH   2   3
HETATM    3  C   UNL     1      -9.290   9.523  65.614  1.00  0.00    -0.302 C  
BRANCH   3   4
HETATM    4  C   UNL     1      -9.897   8.198  66.085  1.00  0.00    -0.023 C  
BRANCH   4   5
HETATM    5  S   UNL     1      -8.669   7.485  67.202  1.00  0.00    -0.123 S  
HETATM    6  O   UNL     1      -9.328   7.108  68.431  1.00  0.00    -0.136 OA 
HETATM    7  O   UNL     1      -7.902   6.540  66.426  1.00  0.00    -0.100 OA 
BRANCH   5   8
HETATM    8  N   UNL     1      -7.628   8.759  67.635  1.00  0.00    -0.096 N  
HETATM    9  H   UNL     1      -6.788   9.022  67.119  1.00  0.00     0.000 HD 
BRANCH   8  10
HETATM   10  C   UNL     1      -8.130   9.464  68.917  1.00  0.00    -0.103 C  
HETATM   11  C   UNL     1      -7.148   9.194  70.058  1.00  0.00    -0.060 C  
HETATM   12  O   UNL     1      -7.003   9.918  71.031  1.00  0.00    -0.333 OA 
HETATM   13  O   UNL     1      -6.437   8.052  69.882  1.00  0.00    -0.035 OA 
BRANCH  10  14
HETATM   14  C   UNL     1      -9.555   9.087  69.363  1.00  0.00    -0.160 C  
BRANCH  14  15
HETATM   15  C   UNL     1     -10.500  10.256  69.476  1.00  0.00    -0.268 A  
HETATM   16  C   UNL     1     -10.455  11.233  68.475  1.00  0.00    -0.218 A  
HETATM   17  C   UNL     1     -11.122  12.443  68.648  1.00  0.00    -0.297 A  
HETATM   18  C   UNL     1     -11.827  12.704  69.824  1.00  0.00    -0.309 A  
HETATM   19  C   UNL     1     -11.352  10.454  70.573  1.00  0.00    -0.424 A  
HETATM   20  C   UNL     1     -11.996  11.681  70.756  1.00  0.00    -0.274 A  
BRANCH  18  21
HETATM   21  O   UNL     1     -12.358  13.924  70.162  1.00  0.00    -0.331 OA 
BRANCH  21  22
HETATM   22  C   UNL     1     -12.119  14.943  69.190  1.00  0.00    -0.231 C  
BRANCH  22  23
HETATM   23  C   UNL     1     -11.140  15.982  69.708  1.00  0.00    -0.337 C  
BRANCH  23  24
HETATM   24  C   UNL     1     -10.043  16.359  68.703  1.00  0.00    -0.244 C  
BRANCH  24  25
HETATM   25  C   UNL     1     -10.696  17.045  67.500  1.00  0.00    -0.266 C  
BRANCH  25  26
HETATM   26  C   UNL     1      -9.957  16.919  66.155  1.00  0.00    -0.332 C  
HETATM   27  C   UNL     1      -8.793  15.920  66.309  1.00  0.00    -0.386 C  
HETATM   28  C   UNL     1      -9.271  14.468  66.281  1.00  0.00    -0.198 C  
HETATM   29  N   UNL     1      -9.954  14.188  65.023  1.00  0.00    -0.587 NA 
HETATM   30  H   UNL     1     -10.175  13.196  64.929  1.00  0.00     0.000 HD 
HETATM   31  C   UNL     1     -11.145  15.023  64.873  1.00  0.00    -0.415 C  
HETATM   32  C   UNL     1     -10.827  16.518  64.952  1.00  0.00    -0.222 C  
ENDBRANCH  25  26
ENDBRANCH  24  25
ENDBRANCH  23  24
ENDBRANCH  22  23
ENDBRANCH  21  22
ENDBRANCH  18  21
ENDBRANCH  14  15
ENDBRANCH  10  14
ENDBRANCH   8  10
ENDBRANCH   5   8
ENDBRANCH   4   5
ENDBRANCH   3   4
ENDBRANCH   2   3
TORSDOF 13
ENDMDL
MODEL      297
REMARK 921   NORMALIZED FREE ENERGY PREDICTED BY IDOCK:   -2.52 KCAL/MOL
REMARK 922        TOTAL FREE ENERGY PREDICTED BY IDOCK:   -6.98 KCAL/MOL
REMARK 923 INTER-LIGAND FREE ENERGY PREDICTED BY IDOCK:   -6.88 KCAL/MOL
REMARK 924 INTRA-LIGAND FREE ENERGY PREDICTED BY IDOCK:   -0.11 KCAL/MOL
REMARK 927      BINDING AFFINITY PREDICTED BY RF-SCORE:    0.00 PKD
ROOT
HETATM    1  C   UNL     1      -9.288  19.918  66.693  1.00  0.00    -0.500 C  
HETATM    2  C   UNL     1      -7.975  19.413  66.098  1.00  0.00    -0.320 C  
ENDROOT
BRANCH   2   3
HETATM    3  C   UNL     1      -7.673  18.045  66.685  1.00  0.00    -0.268 C  
BRANCH   3   4
HETATM    4  C   UNL     1      -8.601  17.555  67.801  1.00  0.00    -0.230 C  
BRANCH   4   5
HETATM    5  S   UNL     1      -9.703  16.361  67.012  1.00  0.00    -0.256 S  
HETATM    6  O   UNL     1     -11.014  16.954  66.892  1.00  0.00    -0.092 OA 
HETATM    7  O   UNL     1      -8.995  15.835  65.870  1.00  0.00    -0.321 OA 
BRANCH   5   8
HETATM    8  N   UNL     1      -9.897  15.089  68.125  1.00  0.00    -0.214 N  
HETATM    9  H   UNL     1      -9.902  15.202  69.139  1.00  0.00     0.000 HD 
BRANCH   8  10
HETATM   10  C   UNL     1     -10.065  13.739  67.390  1.00  0.00    -0.244 C  
HETATM   11  C   UNL     1     -11.548  13.370  67.346  1.00  0.00    -0.354 C  
HETATM   12  O   UNL     1     -12.055  12.642  66.506  1.00  0.00    -0.525 OA 
HETATM   13  O   UNL     1     -12.263  13.940  68.349  1.00  0.00    -0.339 OA 
BRANCH  10  14
HETATM   14  C   UNL     1      -9.258  12.564  67.974  1.00  0.00    -0.204 C  
BRANCH  14  15
HETATM   15  C   UNL     1      -9.754  11.203  67.556  1.00  0.00    -0.193 A  
HETATM   16  C   UNL     1     -10.485  10.458  68.488  1.00  0.00    -0.210 A  
HETATM   17  C   UNL     1     -10.757   9.114  68.251  1.00  0.00    -0.173 A  
HETATM   18  C   UNL     1     -10.292   8.488  67.091  1.00  0.00    -0.307 A  
HETATM   19  C   UNL     1      -9.445  10.618  66.320  1.00  0.00    -0.213 A  
HETATM   20  C   UNL     1      -9.694   9.261  66.097  1.00  0.00    -0.349 A  
BRANCH  18  21
HETATM   21  O   UNL     1     -10.351   7.138  66.855  1.00  0.00    -0.256 OA 
BRANCH  21  22
HETATM   22  C   UNL     1      -9.337   6.392  67.532  1.00  0.00    -0.118 C  
BRANCH  22  23
HETATM   23  C   UNL     1      -9.724   6.115  68.974  1.00  0.00    -0.157 C  
BRANCH  23  24
HETATM   24  C   UNL     1      -9.816   4.622  69.318  1.00  0.00    -0.260 C  
BRANCH  24  25
HETATM   25  C   UNL     1      -9.684   4.460  70.835  1.00  0.00    -0.267 C  
BRANCH  25  26
HETATM   26  C   UNL     1      -8.470   3.654  71.334  1.00  0.00    -0.095 C  
HETATM   27  C   UNL     1      -7.411   4.626  71.890  1.00  0.00    -0.070 C  
HETATM   28  C   UNL     1      -7.763   5.127  73.290  1.00  0.00    -0.096 C  
HETATM   29  N   UNL     1      -7.882   4.002  74.211  1.00  0.00    -0.085 NA 
HETATM   30  H   UNL     1      -7.997   4.316  75.175  1.00  0.00     0.000 HD 
HETATM   31  C   UNL     1      -8.960   3.101  73.805  1.00  0.00    -0.075 C  
HETATM   32  C   UNL     1      -8.777   2.571  72.382  1.00  0.00    -0.085 C  
ENDBRANCH  25  26
ENDBRANCH  24  25
ENDBRANCH  23  24
ENDBRANCH  22  23
ENDBRANCH  21  22
ENDBRANCH  18  21
ENDBRANCH  14  15
ENDBRANCH  10  14
ENDBRANCH   8  10
ENDBRANCH   5   8
ENDBRANCH   4   5
ENDBRANCH   3   4
ENDBRANCH   2   3
TORSDOF 13
ENDMDL
MODEL      298
REMARK 921   NORMALIZED FREE ENERGY PREDICTED BY IDOCK:   -2.50 KCAL/MOL
REMARK 922        TOTAL FREE ENERGY PREDICTED BY IDOCK:   -6.94 KCAL/MOL
REMARK 923 INTER-LIGAND FREE ENERGY PREDICTED BY IDOCK:   -6.04 KCAL/MOL
REMARK 924 INTRA-LIGAND FREE ENERGY PREDICTED BY IDOCK:   -0.90 KCAL/MOL
REMARK 927      BINDING AFFINITY PREDICTED BY RF-SCORE:    0.00 PKD
ROOT
HETATM    1  C   UNL     1     -12.415  13.491  63.739  1.00  0.00    -0.296 C  
HETATM    2  C   UNL     1     -11.813  14.650  64.530  1.00  0.00    -0.442 C  
ENDROOT
BRANCH   2   3
HETATM    3  C   UNL     1     -11.503  14.168  65.936  1.00  0.00    -0.338 C  
BRANCH   3   4
HETATM    4  C   UNL     1     -10.031  14.179  66.360  1.00  0.00    -0.293 C  
BRANCH   4   5
HETATM    5  S   UNL     1      -9.576  12.441  66.540  1.00  0.00    -0.242 S  
HETATM    6  O   UNL     1     -10.191  11.926  67.741  1.00  0.00    -0.193 OA 
HETATM    7  O   UNL     1      -9.780  11.823  65.252  1.00  0.00    -0.237 OA 
BRANCH   5   8
HETATM    8  N   UNL     1      -7.905  12.421  66.860  1.00  0.00    -0.374 N  
HETATM    9  H   UNL     1      -7.182  12.278  66.155  1.00  0.00     0.000 HD 
BRANCH   8  10
HETATM   10  C   UNL     1      -7.633  12.649  68.366  1.00  0.00    -0.132 C  
HETATM   11  C   UNL     1      -6.948  14.004  68.554  1.00  0.00    -0.103 C  
HETATM   12  O   UNL     1      -6.992  14.663  69.582  1.00  0.00    -0.156 OA 
HETATM   13  O   UNL     1      -6.276  14.413  67.449  1.00  0.00    -0.334 OA 
BRANCH  10  14
HETATM   14  C   UNL     1      -6.806  11.552  69.061  1.00  0.00    -0.107 C  
BRANCH  14  15
HETATM   15  C   UNL     1      -7.411  10.174  68.980  1.00  0.00    -0.091 A  
HETATM   16  C   UNL     1      -8.470   9.872  69.843  1.00  0.00    -0.210 A  
HETATM   17  C   UNL     1      -8.905   8.558  69.986  1.00  0.00    -0.141 A  
HETATM   18  C   UNL     1      -8.283   7.524  69.283  1.00  0.00    -0.130 A  
HETATM   19  C   UNL     1      -6.911   9.161  68.149  1.00  0.00    -0.068 A  
HETATM   20  C   UNL     1      -7.330   7.838  68.315  1.00  0.00    -0.102 A  
BRANCH  18  21
HETATM   21  O   UNL     1      -8.515   6.187  69.491  1.00  0.00    -0.118 OA 
BRANCH  21  22
HETATM   22  C   UNL     1      -9.886   5.812  69.338  1.00  0.00    -0.167 C  
BRANCH  22  23
HETATM   23  C   UNL     1     -10.324   4.857  70.435  1.00  0.00    -0.248 C  
BRANCH  23  24
HETATM   24  C   UNL     1      -9.215   4.514  71.440  1.00  0.00    -0.189 C  
BRANCH  24  25
HETATM   25  C   UNL     1      -9.864   3.997  72.727  1.00  0.00    -0.200 C  
BRANCH  25  26
HETATM   26  C   UNL     1      -9.470   4.719  74.029  1.00  0.00    -0.127 C  
HETATM   27  C   UNL     1      -8.016   5.216  73.913  1.00  0.00    -0.102 C  
HETATM   28  C   UNL     1      -7.905   6.487  73.072  1.00  0.00    -0.104 C  
HETATM   29  N   UNL     1      -8.708   7.552  73.664  1.00  0.00    -0.184 NA 
HETATM   30  H   UNL     1      -8.556   8.444  73.191  1.00  0.00     0.000 HD 
HETATM   31  C   UNL     1     -10.125   7.190  73.690  1.00  0.00    -0.346 C  
HETATM   32  C   UNL     1     -10.383   5.885  74.445  1.00  0.00    -0.267 C  
ENDBRANCH  25  26
ENDBRANCH  24  25
ENDBRANCH  23  24
ENDBRANCH  22  23
ENDBRANCH  21  22
ENDBRANCH  18  21
ENDBRANCH  14  15
ENDBRANCH  10  14
ENDBRANCH   8  10
ENDBRANCH   5   8
ENDBRANCH   4   5
ENDBRANCH   3   4
ENDBRANCH   2   3
TORSDOF 13
ENDMDL
MODEL      299
REMARK 921   NORMALIZED FREE ENERGY PREDICTED BY IDOCK:   -2.49 KCAL/MOL
REMARK 922        TOTAL FREE ENERGY PREDICTED BY IDOCK:   -6.92 KCAL/MOL
REMARK 923 INTER-LIGAND FREE ENERGY PREDICTED BY IDOCK:   -6.67 KCAL/MOL
REMARK 924 INTRA-LIGAND FREE ENERGY PREDICTED BY IDOCK:   -0.26 KCAL/MOL
REMARK 927      BINDING AFFINITY PREDICTED BY RF-SCORE:    0.00 PKD
ROOT
HETATM    1  C   UNL     1      -5.470   8.116  73.588  1.00  0.00    -0.053 C  
HETATM    2  C   UNL     1      -5.646   6.928  74.532  1.00  0.00    -0.063 C  
ENDROOT
BRANCH   2   3
HETATM    3  C   UNL     1      -5.760   5.662  73.700  1.00  0.00    -0.032 C  
BRANCH   3   4
HETATM    4  C   UNL     1      -7.098   4.919  73.757  1.00  0.00    -0.081 C  
BRANCH   4   5
HETATM    5  S   UNL     1      -8.057   5.561  72.368  1.00  0.00    -0.107 S  
HETATM    6  O   UNL     1      -7.142   6.043  71.360  1.00  0.00    -0.073 OA 
HETATM    7  O   UNL     1      -9.070   4.577  72.073  1.00  0.00    -0.126 OA 
BRANCH   5   8
HETATM    8  N   UNL     1      -8.848   6.954  72.943  1.00  0.00    -0.126 N  
HETATM    9  H   UNL     1      -8.813   7.283  73.909  1.00  0.00     0.000 HD 
BRANCH   8  10
HETATM   10  C   UNL     1      -9.626   7.652  71.803  1.00  0.00    -0.149 C  
HETATM   11  C   UNL     1     -11.117   7.662  72.143  1.00  0.00    -0.267 C  
HETATM   12  O   UNL     1     -11.919   8.475  71.710  1.00  0.00    -0.292 OA 
HETATM   13  O   UNL     1     -11.471   6.663  72.991  1.00  0.00    -0.144 OA 
BRANCH  10  14
HETATM   14  C   UNL     1      -9.421   7.051  70.400  1.00  0.00    -0.162 C  
BRANCH  14  15
HETATM   15  C   UNL     1      -9.778   7.982  69.269  1.00  0.00    -0.167 A  
HETATM   16  C   UNL     1     -10.306   7.421  68.101  1.00  0.00    -0.235 A  
HETATM   17  C   UNL     1     -10.425   8.190  66.947  1.00  0.00    -0.379 A  
HETATM   18  C   UNL     1     -10.007   9.522  66.934  1.00  0.00    -0.216 A  
HETATM   19  C   UNL     1      -9.526   9.362  69.299  1.00  0.00    -0.164 A  
HETATM   20  C   UNL     1      -9.620  10.124  68.131  1.00  0.00    -0.151 A  
BRANCH  18  21
HETATM   21  O   UNL     1      -9.915  10.301  65.808  1.00  0.00    -0.242 OA 
BRANCH  21  22
HETATM   22  C   UNL     1      -9.234   9.666  64.724  1.00  0.00    -0.238 C  
BRANCH  22  23
HETATM   23  C   UNL     1      -9.363  10.471  63.443  1.00  0.00    -0.335 C  
BRANCH  23  24
HETATM   24  C   UNL     1     -10.736  11.133  63.260  1.00  0.00    -0.199 C  
BRANCH  24  25
HETATM   25  C   UNL     1     -10.599  12.631  63.548  1.00  0.00    -0.301 C  
BRANCH  25  26
HETATM   26  C   UNL     1     -11.896  13.380  63.906  1.00  0.00    -0.492 C  
HETATM   27  C   UNL     1     -12.591  12.659  65.077  1.00  0.00    -0.504 C  
HETATM   28  C   UNL     1     -11.935  12.974  66.421  1.00  0.00    -0.402 C  
HETATM   29  N   UNL     1     -11.977  14.410  66.677  1.00  0.00    -0.410 NA 
HETATM   30  H   UNL     1     -11.656  14.634  67.619  1.00  0.00     0.000 HD 
HETATM   31  C   UNL     1     -11.227  15.147  65.661  1.00  0.00    -0.296 C  
HETATM   32  C   UNL     1     -11.731  14.872  64.243  1.00  0.00    -0.261 C  
ENDBRANCH  25  26
ENDBRANCH  24  25
ENDBRANCH  23  24
ENDBRANCH  22  23
ENDBRANCH  21  22
ENDBRANCH  18  21
ENDBRANCH  14  15
ENDBRANCH  10  14
ENDBRANCH   8  10
ENDBRANCH   5   8
ENDBRANCH   4   5
ENDBRANCH   3   4
ENDBRANCH   2   3
TORSDOF 13
ENDMDL
MODEL      300
REMARK 921   NORMALIZED FREE ENERGY PREDICTED BY IDOCK:   -2.46 KCAL/MOL
REMARK 922        TOTAL FREE ENERGY PREDICTED BY IDOCK:   -6.87 KCAL/MOL
REMARK 923 INTER-LIGAND FREE ENERGY PREDICTED BY IDOCK:   -4.42 KCAL/MOL
REMARK 924 INTRA-LIGAND FREE ENERGY PREDICTED BY IDOCK:   -2.46 KCAL/MOL
REMARK 927      BINDING AFFINITY PREDICTED BY RF-SCORE:    0.00 PKD
ROOT
HETATM    1  C   UNL     1      -7.269   7.797  69.270  1.00  0.00    -0.081 C  
HETATM    2  C   UNL     1      -7.813   6.858  70.344  1.00  0.00    -0.109 C  
ENDROOT
BRANCH   2   3
HETATM    3  C   UNL     1      -9.165   6.335  69.891  1.00  0.00    -0.155 C  
BRANCH   3   4
HETATM    4  C   UNL     1      -9.390   4.824  70.000  1.00  0.00    -0.146 C  
BRANCH   4   5
HETATM    5  S   UNL     1      -9.482   4.235  68.295  1.00  0.00    -0.140 S  
HETATM    6  O   UNL     1      -9.583   2.794  68.310  1.00  0.00    -0.187 OA 
HETATM    7  O   UNL     1     -10.455   5.062  67.622  1.00  0.00    -0.117 OA 
BRANCH   5   8
HETATM    8  N   UNL     1      -7.963   4.561  67.600  1.00  0.00    -0.095 N  
HETATM    9  H   UNL     1      -7.202   5.048  68.073  1.00  0.00     0.000 HD 
BRANCH   8  10
HETATM   10  C   UNL     1      -7.895   4.017  66.153  1.00  0.00    -0.090 C  
HETATM   11  C   UNL     1      -6.555   3.312  65.943  1.00  0.00    -0.040 C  
HETATM   12  O   UNL     1      -6.358   2.433  65.117  1.00  0.00    -0.022 OA 
HETATM   13  O   UNL     1      -5.585   3.762  66.778  1.00  0.00    -0.020 OA 
BRANCH  10  14
HETATM   14  C   UNL     1      -8.107   5.064  65.044  1.00  0.00    -0.113 C  
BRANCH  14  15
HETATM   15  C   UNL     1      -7.864   6.487  65.480  1.00  0.00    -0.104 A  
HETATM   16  C   UNL     1      -8.974   7.262  65.832  1.00  0.00    -0.103 A  
HETATM   17  C   UNL     1      -8.842   8.636  66.007  1.00  0.00    -0.213 A  
HETATM   18  C   UNL     1      -7.607   9.261  65.818  1.00  0.00    -0.098 A  
HETATM   19  C   UNL     1      -6.599   7.091  65.465  1.00  0.00    -0.051 A  
HETATM   20  C   UNL     1      -6.473   8.475  65.612  1.00  0.00    -0.056 A  
BRANCH  18  21
HETATM   21  O   UNL     1      -7.415  10.619  65.787  1.00  0.00    -0.149 OA 
BRANCH  21  22
HETATM   22  C   UNL     1      -6.998  11.168  67.039  1.00  0.00    -0.123 C  
BRANCH  22  23
HETATM   23  C   UNL     1      -7.923  12.288  67.487  1.00  0.00    -0.166 C  
BRANCH  23  24
HETATM   24  C   UNL     1      -9.391  12.077  67.093  1.00  0.00    -0.187 C  
BRANCH  24  25
HETATM   25  C   UNL     1     -10.233  11.994  68.370  1.00  0.00    -0.211 C  
BRANCH  25  26
HETATM   26  C   UNL     1     -11.260  10.848  68.439  1.00  0.00    -0.347 C  
HETATM   27  C   UNL     1     -10.574   9.586  68.996  1.00  0.00    -0.238 C  
HETATM   28  C   UNL     1     -10.404   9.642  70.514  1.00  0.00    -0.295 C  
HETATM   29  N   UNL     1     -11.706   9.780  71.160  1.00  0.00    -0.354 NA 
HETATM   30  H   UNL     1     -11.632   9.699  72.174  1.00  0.00     0.000 HD 
HETATM   31  C   UNL     1     -12.359  11.027  70.765  1.00  0.00    -0.398 C  
HETATM   32  C   UNL     1     -12.533  11.144  69.249  1.00  0.00    -0.008 C  
ENDBRANCH  25  26
ENDBRANCH  24  25
ENDBRANCH  23  24
ENDBRANCH  22  23
ENDBRANCH  21  22
ENDBRANCH  18  21
ENDBRANCH  14  15
ENDBRANCH  10  14
ENDBRANCH   8  10
ENDBRANCH   5   8
ENDBRANCH   4   5
ENDBRANCH   3   4
ENDBRANCH   2   3
TORSDOF 13
ENDMDL
MODEL      301
REMARK 921   NORMALIZED FREE ENERGY PREDICTED BY IDOCK:   -2.45 KCAL/MOL
REMARK 922        TOTAL FREE ENERGY PREDICTED BY IDOCK:   -6.85 KCAL/MOL
REMARK 923 INTER-LIGAND FREE ENERGY PREDICTED BY IDOCK:   -4.91 KCAL/MOL
REMARK 924 INTRA-LIGAND FREE ENERGY PREDICTED BY IDOCK:   -1.95 KCAL/MOL
REMARK 927      BINDING AFFINITY PREDICTED BY RF-SCORE:    0.00 PKD
ROOT
HETATM    1  C   UNL     1      -7.521   7.151  69.415  1.00  0.00    -0.096 C  
HETATM    2  C   UNL     1      -8.731   6.448  70.026  1.00  0.00    -0.142 C  
ENDROOT
BRANCH   2   3
HETATM    3  C   UNL     1      -9.576   5.875  68.902  1.00  0.00    -0.158 C  
BRANCH   3   4
HETATM    4  C   UNL     1      -9.713   4.350  68.852  1.00  0.00    -0.141 C  
BRANCH   4   5
HETATM    5  S   UNL     1      -9.446   3.906  67.122  1.00  0.00    -0.189 S  
HETATM    6  O   UNL     1      -9.131   2.499  67.051  1.00  0.00    -0.147 OA 
HETATM    7  O   UNL     1     -10.535   4.484  66.373  1.00  0.00    -0.235 OA 
BRANCH   5   8
HETATM    8  N   UNL     1      -8.017   4.700  66.646  1.00  0.00    -0.102 N  
HETATM    9  H   UNL     1      -7.376   5.171  67.284  1.00  0.00     0.000 HD 
BRANCH   8  10
HETATM   10  C   UNL     1      -7.825   4.608  65.114  1.00  0.00    -0.090 C  
HETATM   11  C   UNL     1      -6.383   4.199  64.810  1.00  0.00    -0.034 C  
HETATM   12  O   UNL     1      -6.026   3.632  63.789  1.00  0.00    -0.014 OA 
HETATM   13  O   UNL     1      -5.521   4.530  65.805  1.00  0.00    -0.012 OA 
BRANCH  10  14
HETATM   14  C   UNL     1      -8.175   5.885  64.327  1.00  0.00    -0.088 C  
BRANCH  14  15
HETATM   15  C   UNL     1      -7.963   7.164  65.097  1.00  0.00    -0.128 A  
HETATM   16  C   UNL     1      -9.071   7.737  65.732  1.00  0.00    -0.063 A  
HETATM   17  C   UNL     1      -8.993   9.028  66.247  1.00  0.00    -0.199 A  
HETATM   18  C   UNL     1      -7.818   9.772  66.123  1.00  0.00    -0.107 A  
HETATM   19  C   UNL     1      -6.739   7.848  65.133  1.00  0.00    -0.051 A  
HETATM   20  C   UNL     1      -6.672   9.154  65.625  1.00  0.00    -0.072 A  
BRANCH  18  21
HETATM   21  O   UNL     1      -7.701  11.105  66.432  1.00  0.00    -0.152 OA 
BRANCH  21  22
HETATM   22  C   UNL     1      -7.035  11.350  67.672  1.00  0.00    -0.081 C  
BRANCH  22  23
HETATM   23  C   UNL     1      -7.844  12.281  68.559  1.00  0.00    -0.111 C  
BRANCH  23  24
HETATM   24  C   UNL     1      -9.346  12.292  68.243  1.00  0.00    -0.199 C  
BRANCH  24  25
HETATM   25  C   UNL     1      -9.731  13.687  67.741  1.00  0.00    -0.225 C  
BRANCH  25  26
HETATM   26  C   UNL     1     -11.134  13.828  67.121  1.00  0.00    -0.315 C  
HETATM   27  C   UNL     1     -11.042  14.703  65.855  1.00  0.00    -0.338 C  
HETATM   28  C   UNL     1     -10.494  13.930  64.656  1.00  0.00    -0.396 C  
HETATM   29  N   UNL     1     -11.351  12.786  64.362  1.00  0.00    -0.327 NA 
HETATM   30  H   UNL     1     -11.076  12.324  63.495  1.00  0.00     0.000 HD 
HETATM   31  C   UNL     1     -11.382  11.849  65.485  1.00  0.00    -0.277 C  
HETATM   32  C   UNL     1     -11.848  12.508  66.786  1.00  0.00    -0.416 C  
ENDBRANCH  25  26
ENDBRANCH  24  25
ENDBRANCH  23  24
ENDBRANCH  22  23
ENDBRANCH  21  22
ENDBRANCH  18  21
ENDBRANCH  14  15
ENDBRANCH  10  14
ENDBRANCH   8  10
ENDBRANCH   5   8
ENDBRANCH   4   5
ENDBRANCH   3   4
ENDBRANCH   2   3
TORSDOF 13
ENDMDL
MODEL      302
REMARK 921   NORMALIZED FREE ENERGY PREDICTED BY IDOCK:   -2.43 KCAL/MOL
REMARK 922        TOTAL FREE ENERGY PREDICTED BY IDOCK:   -6.82 KCAL/MOL
REMARK 923 INTER-LIGAND FREE ENERGY PREDICTED BY IDOCK:   -5.77 KCAL/MOL
REMARK 924 INTRA-LIGAND FREE ENERGY PREDICTED BY IDOCK:   -1.05 KCAL/MOL
REMARK 927      BINDING AFFINITY PREDICTED BY RF-SCORE:    0.00 PKD
ROOT
HETATM    1  C   UNL     1     -12.391  13.490  63.780  1.00  0.00    -0.392 C  
HETATM    2  C   UNL     1     -11.718  14.614  64.565  1.00  0.00    -0.410 C  
ENDROOT
BRANCH   2   3
HETATM    3  C   UNL     1     -11.420  14.114  65.968  1.00  0.00    -0.343 C  
BRANCH   3   4
HETATM    4  C   UNL     1      -9.951  14.117  66.402  1.00  0.00    -0.293 C  
BRANCH   4   5
HETATM    5  S   UNL     1      -9.521  12.379  66.636  1.00  0.00    -0.234 S  
HETATM    6  O   UNL     1     -10.114  11.920  67.871  1.00  0.00    -0.183 OA 
HETATM    7  O   UNL     1      -9.770  11.717  65.378  1.00  0.00    -0.231 OA 
BRANCH   5   8
HETATM    8  N   UNL     1      -7.843  12.340  66.913  1.00  0.00    -0.359 N  
HETATM    9  H   UNL     1      -7.142  12.147  66.198  1.00  0.00     0.000 HD 
BRANCH   8  10
HETATM   10  C   UNL     1      -7.527  12.637  68.398  1.00  0.00    -0.127 C  
HETATM   11  C   UNL     1      -6.858  14.008  68.507  1.00  0.00    -0.104 C  
HETATM   12  O   UNL     1      -6.879  14.710  69.506  1.00  0.00    -0.145 OA 
HETATM   13  O   UNL     1      -6.227  14.378  67.364  1.00  0.00    -0.334 OA 
BRANCH  10  14
HETATM   14  C   UNL     1      -6.661  11.582  69.112  1.00  0.00    -0.102 C  
BRANCH  14  15
HETATM   15  C   UNL     1      -7.271  10.204  69.156  1.00  0.00    -0.081 A  
HETATM   16  C   UNL     1      -8.272   9.961  70.102  1.00  0.00    -0.162 A  
HETATM   17  C   UNL     1      -8.698   8.660  70.353  1.00  0.00    -0.165 A  
HETATM   18  C   UNL     1      -8.123   7.582  69.677  1.00  0.00    -0.127 A  
HETATM   19  C   UNL     1      -6.826   9.140  68.358  1.00  0.00    -0.064 A  
HETATM   20  C   UNL     1      -7.234   7.831  68.632  1.00  0.00    -0.085 A  
BRANCH  18  21
HETATM   21  O   UNL     1      -8.342   6.262  69.981  1.00  0.00    -0.125 OA 
BRANCH  21  22
HETATM   22  C   UNL     1      -7.213   5.421  69.740  1.00  0.00    -0.064 C  
BRANCH  22  23
HETATM   23  C   UNL     1      -7.596   4.205  68.913  1.00  0.00    -0.055 C  
BRANCH  23  24
HETATM   24  C   UNL     1      -9.070   4.182  68.488  1.00  0.00    -0.182 C  
BRANCH  24  25
HETATM   25  C   UNL     1      -9.232   3.183  67.338  1.00  0.00    -0.224 C  
BRANCH  25  26
HETATM   26  C   UNL     1      -9.704   3.761  65.991  1.00  0.00    -0.136 C  
HETATM   27  C   UNL     1     -10.595   4.991  66.252  1.00  0.00    -0.332 C  
HETATM   28  C   UNL     1      -9.778   6.235  66.598  1.00  0.00    -0.155 C  
HETATM   29  N   UNL     1      -8.862   6.554  65.507  1.00  0.00    -0.344 NA 
HETATM   30  H   UNL     1      -8.392   7.447  65.660  1.00  0.00     0.000 HD 
HETATM   31  C   UNL     1      -7.905   5.470  65.290  1.00  0.00    -0.095 C  
HETATM   32  C   UNL     1      -8.588   4.133  64.999  1.00  0.00    -0.117 C  
ENDBRANCH  25  26
ENDBRANCH  24  25
ENDBRANCH  23  24
ENDBRANCH  22  23
ENDBRANCH  21  22
ENDBRANCH  18  21
ENDBRANCH  14  15
ENDBRANCH  10  14
ENDBRANCH   8  10
ENDBRANCH   5   8
ENDBRANCH   4   5
ENDBRANCH   3   4
ENDBRANCH   2   3
TORSDOF 13
ENDMDL
MODEL      303
REMARK 921   NORMALIZED FREE ENERGY PREDICTED BY IDOCK:   -2.39 KCAL/MOL
REMARK 922        TOTAL FREE ENERGY PREDICTED BY IDOCK:   -6.76 KCAL/MOL
REMARK 923 INTER-LIGAND FREE ENERGY PREDICTED BY IDOCK:   -6.34 KCAL/MOL
REMARK 924 INTRA-LIGAND FREE ENERGY PREDICTED BY IDOCK:   -0.41 KCAL/MOL
REMARK 927      BINDING AFFINITY PREDICTED BY RF-SCORE:    0.00 PKD
ROOT
HETATM    1  C   UNL     1      -9.691  19.386  67.517  1.00  0.00    -0.432 C  
HETATM    2  C   UNL     1      -8.732  18.471  66.759  1.00  0.00    -0.283 C  
ENDROOT
BRANCH   2   3
HETATM    3  C   UNL     1      -8.620  17.157  67.512  1.00  0.00    -0.209 C  
BRANCH   3   4
HETATM    4  C   UNL     1      -9.442  17.028  68.798  1.00  0.00    -0.263 C  
BRANCH   4   5
HETATM    5  S   UNL     1     -10.653  15.731  68.460  1.00  0.00    -0.265 S  
HETATM    6  O   UNL     1     -11.872  16.042  69.170  1.00  0.00    -0.356 OA 
HETATM    7  O   UNL     1     -10.635  15.509  67.034  1.00  0.00    -0.300 OA 
BRANCH   5   8
HETATM    8  N   UNL     1     -10.057  14.323  69.206  1.00  0.00    -0.429 N  
HETATM    9  H   UNL     1      -9.681  14.284  70.153  1.00  0.00     0.000 HD 
BRANCH   8  10
HETATM   10  C   UNL     1     -10.165  13.110  68.251  1.00  0.00    -0.250 C  
HETATM   11  C   UNL     1     -11.576  12.527  68.334  1.00  0.00    -0.322 C  
HETATM   12  O   UNL     1     -12.112  11.885  67.444  1.00  0.00    -0.577 OA 
HETATM   13  O   UNL     1     -12.189  12.796  69.515  1.00  0.00    -0.222 OA 
BRANCH  10  14
HETATM   14  C   UNL     1      -9.130  11.994  68.483  1.00  0.00    -0.107 C  
BRANCH  14  15
HETATM   15  C   UNL     1      -9.466  10.687  67.810  1.00  0.00    -0.165 A  
HETATM   16  C   UNL     1     -10.094   9.698  68.575  1.00  0.00    -0.195 A  
HETATM   17  C   UNL     1     -10.208   8.400  68.084  1.00  0.00    -0.253 A  
HETATM   18  C   UNL     1      -9.685   8.065  66.833  1.00  0.00    -0.225 A  
HETATM   19  C   UNL     1      -9.104  10.387  66.488  1.00  0.00    -0.175 A  
HETATM   20  C   UNL     1      -9.193   9.077  66.010  1.00  0.00    -0.284 A  
BRANCH  18  21
HETATM   21  O   UNL     1      -9.587   6.786  66.345  1.00  0.00    -0.163 OA 
BRANCH  21  22
HETATM   22  C   UNL     1      -8.294   6.468  65.825  1.00  0.00    -0.143 C  
BRANCH  22  23
HETATM   23  C   UNL     1      -7.858   5.075  66.244  1.00  0.00    -0.099 C  
BRANCH  23  24
HETATM   24  C   UNL     1      -6.959   5.051  67.488  1.00  0.00    -0.061 C  
BRANCH  24  25
HETATM   25  C   UNL     1      -7.371   3.867  68.367  1.00  0.00    -0.055 C  
BRANCH  25  26
HETATM   26  C   UNL     1      -8.626   4.066  69.238  1.00  0.00    -0.111 C  
HETATM   27  C   UNL     1      -9.644   2.953  68.922  1.00  0.00    -0.061 C  
HETATM   28  C   UNL     1      -9.280   1.629  69.594  1.00  0.00    -0.100 C  
HETATM   29  N   UNL     1      -9.222   1.801  71.042  1.00  0.00    -0.092 NA 
HETATM   30  H   UNL     1      -9.101   0.908  71.522  1.00  0.00     0.000 HD 
HETATM   31  C   UNL     1      -8.184   2.760  71.417  1.00  0.00    -0.062 C  
HETATM   32  C   UNL     1      -8.379   4.125  70.755  1.00  0.00    -0.086 C  
ENDBRANCH  25  26
ENDBRANCH  24  25
ENDBRANCH  23  24
ENDBRANCH  22  23
ENDBRANCH  21  22
ENDBRANCH  18  21
ENDBRANCH  14  15
ENDBRANCH  10  14
ENDBRANCH   8  10
ENDBRANCH   5   8
ENDBRANCH   4   5
ENDBRANCH   3   4
ENDBRANCH   2   3
TORSDOF 13
ENDMDL
MODEL      304
REMARK 921   NORMALIZED FREE ENERGY PREDICTED BY IDOCK:   -2.38 KCAL/MOL
REMARK 922        TOTAL FREE ENERGY PREDICTED BY IDOCK:   -6.73 KCAL/MOL
REMARK 923 INTER-LIGAND FREE ENERGY PREDICTED BY IDOCK:   -4.92 KCAL/MOL
REMARK 924 INTRA-LIGAND FREE ENERGY PREDICTED BY IDOCK:   -1.80 KCAL/MOL
REMARK 927      BINDING AFFINITY PREDICTED BY RF-SCORE:    0.00 PKD
ROOT
HETATM    1  C   UNL     1      -7.502   7.430  69.342  1.00  0.00    -0.091 C  
HETATM    2  C   UNL     1      -8.700   6.863  70.100  1.00  0.00    -0.141 C  
ENDROOT
BRANCH   2   3
HETATM    3  C   UNL     1      -9.677   6.279  69.095  1.00  0.00    -0.154 C  
BRANCH   3   4
HETATM    4  C   UNL     1      -9.889   4.763  69.142  1.00  0.00    -0.184 C  
BRANCH   4   5
HETATM    5  S   UNL     1      -9.525   4.181  67.471  1.00  0.00    -0.177 S  
HETATM    6  O   UNL     1      -9.297   2.756  67.519  1.00  0.00    -0.189 OA 
HETATM    7  O   UNL     1     -10.517   4.768  66.602  1.00  0.00    -0.248 OA 
BRANCH   5   8
HETATM    8  N   UNL     1      -8.018   4.853  67.055  1.00  0.00    -0.102 N  
HETATM    9  H   UNL     1      -7.399   5.337  67.706  1.00  0.00     0.000 HD 
BRANCH   8  10
HETATM   10  C   UNL     1      -7.714   4.629  65.555  1.00  0.00    -0.090 C  
HETATM   11  C   UNL     1      -6.259   4.186  65.396  1.00  0.00    -0.027 C  
HETATM   12  O   UNL     1      -5.834   3.532  64.456  1.00  0.00    -0.017 OA 
HETATM   13  O   UNL     1      -5.468   4.596  66.420  1.00  0.00    -0.012 OA 
BRANCH  10  14
HETATM   14  C   UNL     1      -7.988   5.836  64.639  1.00  0.00    -0.122 C  
BRANCH  14  15
HETATM   15  C   UNL     1      -7.896   7.173  65.331  1.00  0.00    -0.119 A  
HETATM   16  C   UNL     1      -9.084   7.762  65.778  1.00  0.00    -0.063 A  
HETATM   17  C   UNL     1      -9.092   9.088  66.200  1.00  0.00    -0.246 A  
HETATM   18  C   UNL     1      -7.923   9.851  66.168  1.00  0.00    -0.109 A  
HETATM   19  C   UNL     1      -6.697   7.888  65.468  1.00  0.00    -0.045 A  
HETATM   20  C   UNL     1      -6.713   9.228  65.865  1.00  0.00    -0.080 A  
BRANCH  18  21
HETATM   21  O   UNL     1      -7.868  11.205  66.388  1.00  0.00    -0.156 OA 
BRANCH  21  22
HETATM   22  C   UNL     1      -7.108  11.568  67.543  1.00  0.00    -0.106 C  
BRANCH  22  23
HETATM   23  C   UNL     1      -7.916  12.448  68.481  1.00  0.00    -0.110 C  
BRANCH  23  24
HETATM   24  C   UNL     1      -9.282  12.867  67.919  1.00  0.00    -0.208 C  
BRANCH  24  25
HETATM   25  C   UNL     1      -9.363  14.396  67.919  1.00  0.00    -0.203 C  
BRANCH  25  26
HETATM   26  C   UNL     1     -10.702  15.010  67.472  1.00  0.00    -0.284 C  
HETATM   27  C   UNL     1     -11.251  15.904  68.601  1.00  0.00    -0.360 C  
HETATM   28  C   UNL     1     -10.549  17.261  68.657  1.00  0.00    -0.329 C  
HETATM   29  N   UNL     1     -10.717  17.966  67.391  1.00  0.00    -0.343 NA 
HETATM   30  H   UNL     1     -10.362  18.921  67.443  1.00  0.00     0.000 HD 
HETATM   31  C   UNL     1     -10.104  17.223  66.290  1.00  0.00    -0.316 C  
HETATM   32  C   UNL     1     -10.664  15.805  66.156  1.00  0.00    -0.293 C  
ENDBRANCH  25  26
ENDBRANCH  24  25
ENDBRANCH  23  24
ENDBRANCH  22  23
ENDBRANCH  21  22
ENDBRANCH  18  21
ENDBRANCH  14  15
ENDBRANCH  10  14
ENDBRANCH   8  10
ENDBRANCH   5   8
ENDBRANCH   4   5
ENDBRANCH   3   4
ENDBRANCH   2   3
TORSDOF 13
ENDMDL
MODEL      305
REMARK 921   NORMALIZED FREE ENERGY PREDICTED BY IDOCK:   -2.33 KCAL/MOL
REMARK 922        TOTAL FREE ENERGY PREDICTED BY IDOCK:   -6.64 KCAL/MOL
REMARK 923 INTER-LIGAND FREE ENERGY PREDICTED BY IDOCK:   -5.24 KCAL/MOL
REMARK 924 INTRA-LIGAND FREE ENERGY PREDICTED BY IDOCK:   -1.40 KCAL/MOL
REMARK 927      BINDING AFFINITY PREDICTED BY RF-SCORE:    0.00 PKD
ROOT
HETATM    1  C   UNL     1     -13.508  10.241  71.734  1.00  0.00    -0.387 C  
HETATM    2  C   UNL     1     -13.469   8.867  72.398  1.00  0.00    -0.499 C  
ENDROOT
BRANCH   2   3
HETATM    3  C   UNL     1     -12.028   8.389  72.437  1.00  0.00    -0.451 C  
BRANCH   3   4
HETATM    4  C   UNL     1     -11.567   7.496  71.281  1.00  0.00    -0.281 C  
BRANCH   4   5
HETATM    5  S   UNL     1     -10.425   8.514  70.322  1.00  0.00    -0.226 S  
HETATM    6  O   UNL     1     -10.763   8.393  68.923  1.00  0.00    -0.179 OA 
HETATM    7  O   UNL     1     -10.355   9.795  70.983  1.00  0.00    -0.273 OA 
BRANCH   5   8
HETATM    8  N   UNL     1      -8.898   7.778  70.469  1.00  0.00    -0.144 N  
HETATM    9  H   UNL     1      -8.742   6.831  70.815  1.00  0.00     0.000 HD 
BRANCH   8  10
HETATM   10  C   UNL     1      -7.779   8.741  70.008  1.00  0.00    -0.082 C  
HETATM   11  C   UNL     1      -6.830   9.009  71.177  1.00  0.00    -0.092 C  
HETATM   12  O   UNL     1      -5.661   9.343  71.056  1.00  0.00    -0.047 OA 
HETATM   13  O   UNL     1      -7.421   8.833  72.386  1.00  0.00    -0.324 OA 
BRANCH  10  14
HETATM   14  C   UNL     1      -8.262  10.080  69.419  1.00  0.00    -0.158 C  
BRANCH  14  15
HETATM   15  C   UNL     1      -7.915  10.279  67.966  1.00  0.00    -0.101 A  
HETATM   16  C   UNL     1      -8.937  10.678  67.098  1.00  0.00    -0.143 A  
HETATM   17  C   UNL     1      -8.740  10.644  65.720  1.00  0.00    -0.192 A  
HETATM   18  C   UNL     1      -7.529  10.197  65.187  1.00  0.00    -0.141 A  
HETATM   19  C   UNL     1      -6.648  10.002  67.431  1.00  0.00    -0.069 A  
HETATM   20  C   UNL     1      -6.462   9.940  66.047  1.00  0.00    -0.084 A  
BRANCH  18  21
HETATM   21  O   UNL     1      -7.303   9.955  63.855  1.00  0.00    -0.124 OA 
BRANCH  21  22
HETATM   22  C   UNL     1      -8.443   9.438  63.165  1.00  0.00    -0.205 C  
BRANCH  22  23
HETATM   23  C   UNL     1      -8.262   7.969  62.824  1.00  0.00    -0.112 C  
BRANCH  23  24
HETATM   24  C   UNL     1      -7.126   7.286  63.597  1.00  0.00    -0.066 C  
BRANCH  24  25
HETATM   25  C   UNL     1      -7.716   6.139  64.423  1.00  0.00    -0.106 C  
BRANCH  25  26
HETATM   26  C   UNL     1      -7.626   6.282  65.954  1.00  0.00    -0.084 C  
HETATM   27  C   UNL     1      -8.945   6.874  66.486  1.00  0.00    -0.166 C  
HETATM   28  C   UNL     1     -10.059   5.830  66.561  1.00  0.00    -0.171 C  
HETATM   29  N   UNL     1      -9.661   4.735  67.439  1.00  0.00    -0.149 NA 
HETATM   30  H   UNL     1     -10.431   4.086  67.603  1.00  0.00     0.000 HD 
HETATM   31  C   UNL     1      -8.478   4.049  66.921  1.00  0.00    -0.101 C  
HETATM   32  C   UNL     1      -7.290   4.994  66.724  1.00  0.00    -0.086 C  
ENDBRANCH  25  26
ENDBRANCH  24  25
ENDBRANCH  23  24
ENDBRANCH  22  23
ENDBRANCH  21  22
ENDBRANCH  18  21
ENDBRANCH  14  15
ENDBRANCH  10  14
ENDBRANCH   8  10
ENDBRANCH   5   8
ENDBRANCH   4   5
ENDBRANCH   3   4
ENDBRANCH   2   3
TORSDOF 13
ENDMDL
MODEL      306
REMARK 921   NORMALIZED FREE ENERGY PREDICTED BY IDOCK:   -2.26 KCAL/MOL
REMARK 922        TOTAL FREE ENERGY PREDICTED BY IDOCK:   -6.53 KCAL/MOL
REMARK 923 INTER-LIGAND FREE ENERGY PREDICTED BY IDOCK:   -6.19 KCAL/MOL
REMARK 924 INTRA-LIGAND FREE ENERGY PREDICTED BY IDOCK:   -0.34 KCAL/MOL
REMARK 927      BINDING AFFINITY PREDICTED BY RF-SCORE:    0.00 PKD
ROOT
HETATM    1  C   UNL     1     -12.186  14.484  65.068  1.00  0.00    -0.376 C  
HETATM    2  C   UNL     1     -10.802  15.066  64.791  1.00  0.00    -0.375 C  
ENDROOT
BRANCH   2   3
HETATM    3  C   UNL     1     -10.817  16.541  65.150  1.00  0.00    -0.247 C  
BRANCH   3   4
HETATM    4  C   UNL     1     -10.601  16.893  66.625  1.00  0.00    -0.189 C  
BRANCH   4   5
HETATM    5  S   UNL     1      -9.227  18.065  66.637  1.00  0.00    -0.283 S  
HETATM    6  O   UNL     1      -8.109  17.473  65.940  1.00  0.00    -0.536 OA 
HETATM    7  O   UNL     1      -9.772  19.346  66.258  1.00  0.00    -0.353 OA 
BRANCH   5   8
HETATM    8  N   UNL     1      -8.720  18.183  68.257  1.00  0.00    -0.278 N  
HETATM    9  H   UNL     1      -8.898  18.984  68.863  1.00  0.00     0.000 HD 
BRANCH   8  10
HETATM   10  C   UNL     1      -7.954  16.909  68.685  1.00  0.00    -0.256 C  
HETATM   11  C   UNL     1      -6.568  17.302  69.197  1.00  0.00    -0.239 C  
HETATM   12  O   UNL     1      -5.908  16.640  69.983  1.00  0.00    -0.211 OA 
HETATM   13  O   UNL     1      -6.133  18.482  68.687  1.00  0.00    -0.196 OA 
BRANCH  10  14
HETATM   14  C   UNL     1      -7.814  15.827  67.598  1.00  0.00    -0.168 C  
BRANCH  14  15
HETATM   15  C   UNL     1      -8.151  14.433  68.064  1.00  0.00    -0.142 A  
HETATM   16  C   UNL     1      -7.120  13.656  68.603  1.00  0.00    -0.105 A  
HETATM   17  C   UNL     1      -7.310  12.295  68.823  1.00  0.00    -0.083 A  
HETATM   18  C   UNL     1      -8.523  11.685  68.494  1.00  0.00    -0.135 A  
HETATM   19  C   UNL     1      -9.418  13.852  67.902  1.00  0.00    -0.212 A  
HETATM   20  C   UNL     1      -9.597  12.480  68.097  1.00  0.00    -0.215 A  
BRANCH  18  21
HETATM   21  O   UNL     1      -8.744  10.330  68.502  1.00  0.00    -0.120 OA 
BRANCH  21  22
HETATM   22  C   UNL     1     -10.116   9.971  68.323  1.00  0.00    -0.158 C  
BRANCH  22  23
HETATM   23  C   UNL     1     -10.249   8.576  67.738  1.00  0.00    -0.283 C  
BRANCH  23  24
HETATM   24  C   UNL     1     -10.353   8.551  66.207  1.00  0.00     0.087 C  
BRANCH  24  25
HETATM   25  C   UNL     1      -9.011   8.087  65.632  1.00  0.00    -0.102 C  
BRANCH  25  26
HETATM   26  C   UNL     1      -8.211   9.133  64.834  1.00  0.00    -0.154 C  
HETATM   27  C   UNL     1      -7.925   8.583  63.423  1.00  0.00    -0.161 C  
HETATM   28  C   UNL     1      -9.141   8.684  62.504  1.00  0.00     0.413 C  
HETATM   29  N   UNL     1      -9.560  10.077  62.377  1.00  0.00    -0.603 NA 
HETATM   30  H   UNL     1     -10.293  10.186  61.676  1.00  0.00     0.000 HD 
HETATM   31  C   UNL     1      -9.965  10.624  63.671  1.00  0.00    -0.301 C  
HETATM   32  C   UNL     1      -8.859  10.524  64.724  1.00  0.00    -0.211 C  
ENDBRANCH  25  26
ENDBRANCH  24  25
ENDBRANCH  23  24
ENDBRANCH  22  23
ENDBRANCH  21  22
ENDBRANCH  18  21
ENDBRANCH  14  15
ENDBRANCH  10  14
ENDBRANCH   8  10
ENDBRANCH   5   8
ENDBRANCH   4   5
ENDBRANCH   3   4
ENDBRANCH   2   3
TORSDOF 13
ENDMDL
MODEL      307
REMARK 921   NORMALIZED FREE ENERGY PREDICTED BY IDOCK:   -2.24 KCAL/MOL
REMARK 922        TOTAL FREE ENERGY PREDICTED BY IDOCK:   -6.49 KCAL/MOL
REMARK 923 INTER-LIGAND FREE ENERGY PREDICTED BY IDOCK:   -5.36 KCAL/MOL
REMARK 924 INTRA-LIGAND FREE ENERGY PREDICTED BY IDOCK:   -1.13 KCAL/MOL
REMARK 927      BINDING AFFINITY PREDICTED BY RF-SCORE:    0.00 PKD
ROOT
HETATM    1  C   UNL     1     -12.169   4.635  72.944  1.00  0.00     0.351 C  
HETATM    2  C   UNL     1     -10.932   5.460  73.292  1.00  0.00    -0.358 C  
ENDROOT
BRANCH   2   3
HETATM    3  C   UNL     1      -9.841   5.145  72.284  1.00  0.00    -0.216 C  
BRANCH   3   4
HETATM    4  C   UNL     1      -8.798   6.239  72.033  1.00  0.00    -0.138 C  
BRANCH   4   5
HETATM    5  S   UNL     1      -8.963   6.658  70.284  1.00  0.00    -0.152 S  
HETATM    6  O   UNL     1      -9.095   5.435  69.527  1.00  0.00    -0.110 OA 
HETATM    7  O   UNL     1      -9.940   7.717  70.201  1.00  0.00    -0.184 OA 
BRANCH   5   8
HETATM    8  N   UNL     1      -7.462   7.306  69.810  1.00  0.00    -0.091 N  
HETATM    9  H   UNL     1      -6.661   7.425  70.430  1.00  0.00     0.000 HD 
BRANCH   8  10
HETATM   10  C   UNL     1      -7.480   7.689  68.312  1.00  0.00    -0.104 C  
HETATM   11  C   UNL     1      -6.442   6.851  67.565  1.00  0.00    -0.050 C  
HETATM   12  O   UNL     1      -6.493   6.587  66.373  1.00  0.00    -0.041 OA 
HETATM   13  O   UNL     1      -5.438   6.417  68.368  1.00  0.00    -0.007 OA 
BRANCH  10  14
HETATM   14  C   UNL     1      -7.251   9.182  68.009  1.00  0.00    -0.079 C  
BRANCH  14  15
HETATM   15  C   UNL     1      -8.210   9.765  67.002  1.00  0.00    -0.117 A  
HETATM   16  C   UNL     1      -9.530   9.301  67.010  1.00  0.00    -0.205 A  
HETATM   17  C   UNL     1     -10.389   9.617  65.961  1.00  0.00    -0.160 A  
HETATM   18  C   UNL     1      -9.943  10.384  64.884  1.00  0.00    -0.339 A  
HETATM   19  C   UNL     1      -7.823  10.677  66.009  1.00  0.00    -0.156 A  
HETATM   20  C   UNL     1      -8.678  10.969  64.944  1.00  0.00    -0.002 A  
BRANCH  18  21
HETATM   21  O   UNL     1     -10.651  10.594  63.727  1.00  0.00    -0.191 OA 
BRANCH  21  22
HETATM   22  C   UNL     1     -10.519  11.917  63.204  1.00  0.00    -0.276 C  
BRANCH  22  23
HETATM   23  C   UNL     1     -11.616  12.830  63.726  1.00  0.00    -0.548 C  
BRANCH  23  24
HETATM   24  C   UNL     1     -12.457  12.211  64.851  1.00  0.00    -0.185 C  
BRANCH  24  25
HETATM   25  C   UNL     1     -11.807  12.554  66.194  1.00  0.00    -0.459 C  
BRANCH  25  26
HETATM   26  C   UNL     1     -11.047  13.891  66.264  1.00  0.00    -0.304 C  
HETATM   27  C   UNL     1     -11.899  14.919  67.035  1.00  0.00    -0.216 C  
HETATM   28  C   UNL     1     -11.836  14.704  68.546  1.00  0.00    -0.311 C  
HETATM   29  N   UNL     1     -10.457  14.810  69.012  1.00  0.00    -0.245 NA 
HETATM   30  H   UNL     1     -10.402  14.791  70.031  1.00  0.00     0.000 HD 
HETATM   31  C   UNL     1      -9.617  13.777  68.407  1.00  0.00    -0.206 C  
HETATM   32  C   UNL     1      -9.638  13.824  66.878  1.00  0.00    -0.263 C  
ENDBRANCH  25  26
ENDBRANCH  24  25
ENDBRANCH  23  24
ENDBRANCH  22  23
ENDBRANCH  21  22
ENDBRANCH  18  21
ENDBRANCH  14  15
ENDBRANCH  10  14
ENDBRANCH   8  10
ENDBRANCH   5   8
ENDBRANCH   4   5
ENDBRANCH   3   4
ENDBRANCH   2   3
TORSDOF 13
ENDMDL
MODEL      308
REMARK 921   NORMALIZED FREE ENERGY PREDICTED BY IDOCK:   -2.24 KCAL/MOL
REMARK 922        TOTAL FREE ENERGY PREDICTED BY IDOCK:   -6.49 KCAL/MOL
REMARK 923 INTER-LIGAND FREE ENERGY PREDICTED BY IDOCK:   -6.97 KCAL/MOL
REMARK 924 INTRA-LIGAND FREE ENERGY PREDICTED BY IDOCK:    0.48 KCAL/MOL
REMARK 927      BINDING AFFINITY PREDICTED BY RF-SCORE:    0.00 PKD
ROOT
HETATM    1  C   UNL     1     -12.612  14.073  65.188  1.00  0.00    -0.453 C  
HETATM    2  C   UNL     1     -11.186  14.420  64.769  1.00  0.00    -0.391 C  
ENDROOT
BRANCH   2   3
HETATM    3  C   UNL     1     -10.945  15.894  65.045  1.00  0.00    -0.426 C  
BRANCH   3   4
HETATM    4  C   UNL     1     -10.892  16.320  66.515  1.00  0.00    -0.105 C  
BRANCH   4   5
HETATM    5  S   UNL     1      -9.393  17.315  66.667  1.00  0.00    -0.270 S  
HETATM    6  O   UNL     1      -8.325  16.651  65.958  1.00  0.00    -0.402 OA 
HETATM    7  O   UNL     1      -9.769  18.678  66.379  1.00  0.00    -0.329 OA 
BRANCH   5   8
HETATM    8  N   UNL     1      -8.943  17.243  68.307  1.00  0.00    -0.254 N  
HETATM    9  H   UNL     1      -8.987  18.029  68.955  1.00  0.00     0.000 HD 
BRANCH   8  10
HETATM   10  C   UNL     1      -8.456  15.822  68.678  1.00  0.00    -0.193 C  
HETATM   11  C   UNL     1      -7.071  15.916  69.320  1.00  0.00    -0.206 C  
HETATM   12  O   UNL     1      -6.609  15.089  70.092  1.00  0.00    -0.167 OA 
HETATM   13  O   UNL     1      -6.390  17.028  68.945  1.00  0.00    -0.163 OA 
BRANCH  10  14
HETATM   14  C   UNL     1      -8.417  14.813  67.515  1.00  0.00    -0.204 C  
BRANCH  14  15
HETATM   15  C   UNL     1      -9.038  13.476  67.834  1.00  0.00    -0.204 A  
HETATM   16  C   UNL     1     -10.363  13.460  68.284  1.00  0.00    -0.251 A  
HETATM   17  C   UNL     1     -10.906  12.295  68.819  1.00  0.00    -0.266 A  
HETATM   18  C   UNL     1     -10.134  11.137  68.930  1.00  0.00    -0.186 A  
HETATM   19  C   UNL     1      -8.329  12.267  67.785  1.00  0.00    -0.162 A  
HETATM   20  C   UNL     1      -8.867  11.107  68.350  1.00  0.00    -0.157 A  
BRANCH  18  21
HETATM   21  O   UNL     1     -10.518  10.004  69.604  1.00  0.00    -0.214 OA 
BRANCH  21  22
HETATM   22  C   UNL     1     -11.345  10.264  70.740  1.00  0.00    -0.337 C  
BRANCH  22  23
HETATM   23  C   UNL     1     -11.937   8.981  71.297  1.00  0.00    -0.374 C  
BRANCH  23  24
HETATM   24  C   UNL     1     -10.900   7.884  71.570  1.00  0.00    -0.268 C  
BRANCH  24  25
HETATM   25  C   UNL     1     -10.289   8.120  72.954  1.00  0.00    -0.333 C  
BRANCH  25  26
HETATM   26  C   UNL     1      -8.826   7.677  73.141  1.00  0.00    -0.231 C  
HETATM   27  C   UNL     1      -8.648   6.261  72.558  1.00  0.00    -0.120 C  
HETATM   28  C   UNL     1      -8.540   6.273  71.034  1.00  0.00    -0.132 C  
HETATM   29  N   UNL     1      -7.403   7.088  70.617  1.00  0.00    -0.075 NA 
HETATM   30  H   UNL     1      -7.237   7.015  69.613  1.00  0.00     0.000 HD 
HETATM   31  C   UNL     1      -7.572   8.479  71.036  1.00  0.00    -0.090 C  
HETATM   32  C   UNL     1      -7.765   8.618  72.548  1.00  0.00    -0.007 C  
ENDBRANCH  25  26
ENDBRANCH  24  25
ENDBRANCH  23  24
ENDBRANCH  22  23
ENDBRANCH  21  22
ENDBRANCH  18  21
ENDBRANCH  14  15
ENDBRANCH  10  14
ENDBRANCH   8  10
ENDBRANCH   5   8
ENDBRANCH   4   5
ENDBRANCH   3   4
ENDBRANCH   2   3
TORSDOF 13
ENDMDL
MODEL      309
REMARK 921   NORMALIZED FREE ENERGY PREDICTED BY IDOCK:   -2.24 KCAL/MOL
REMARK 922        TOTAL FREE ENERGY PREDICTED BY IDOCK:   -6.48 KCAL/MOL
REMARK 923 INTER-LIGAND FREE ENERGY PREDICTED BY IDOCK:   -5.18 KCAL/MOL
REMARK 924 INTRA-LIGAND FREE ENERGY PREDICTED BY IDOCK:   -1.31 KCAL/MOL
REMARK 927      BINDING AFFINITY PREDICTED BY RF-SCORE:    0.00 PKD
ROOT
HETATM    1  C   UNL     1     -12.665  13.941  65.468  1.00  0.00    -0.536 C  
HETATM    2  C   UNL     1     -11.949  12.665  65.030  1.00  0.00    -0.467 C  
ENDROOT
BRANCH   2   3
HETATM    3  C   UNL     1     -10.869  12.343  66.048  1.00  0.00    -0.308 C  
BRANCH   3   4
HETATM    4  C   UNL     1     -11.261  11.408  67.196  1.00  0.00    -0.296 C  
BRANCH   4   5
HETATM    5  S   UNL     1     -10.528  12.139  68.676  1.00  0.00    -0.185 S  
HETATM    6  O   UNL     1     -11.498  13.020  69.283  1.00  0.00    -0.274 OA 
HETATM    7  O   UNL     1      -9.911  11.061  69.409  1.00  0.00    -0.131 OA 
BRANCH   5   8
HETATM    8  N   UNL     1      -9.285  13.165  68.129  1.00  0.00    -0.212 N  
HETATM    9  H   UNL     1      -9.427  14.113  67.780  1.00  0.00     0.000 HD 
BRANCH   8  10
HETATM   10  C   UNL     1      -7.910  12.463  68.235  1.00  0.00    -0.150 C  
HETATM   11  C   UNL     1      -6.966  13.327  69.072  1.00  0.00    -0.075 C  
HETATM   12  O   UNL     1      -6.006  12.899  69.694  1.00  0.00    -0.102 OA 
HETATM   13  O   UNL     1      -7.304  14.641  69.060  1.00  0.00    -0.120 OA 
BRANCH  10  14
HETATM   14  C   UNL     1      -7.240  12.121  66.891  1.00  0.00    -0.002 C  
BRANCH  14  15
HETATM   15  C   UNL     1      -7.040  10.645  66.656  1.00  0.00    -0.124 A  
HETATM   16  C   UNL     1      -7.492   9.758  67.640  1.00  0.00    -0.091 A  
HETATM   17  C   UNL     1      -7.124   8.417  67.596  1.00  0.00    -0.083 A  
HETATM   18  C   UNL     1      -6.287   7.942  66.583  1.00  0.00    -0.050 A  
HETATM   19  C   UNL     1      -6.349  10.128  65.550  1.00  0.00    -0.102 A  
HETATM   20  C   UNL     1      -5.957   8.787  65.524  1.00  0.00    -0.051 A  
BRANCH  18  21
HETATM   21  O   UNL     1      -5.725   6.690  66.556  1.00  0.00    -0.014 OA 
BRANCH  21  22
HETATM   22  C   UNL     1      -6.088   5.923  65.407  1.00  0.00    -0.029 C  
BRANCH  22  23
HETATM   23  C   UNL     1      -7.312   5.065  65.679  1.00  0.00    -0.077 C  
BRANCH  23  24
HETATM   24  C   UNL     1      -7.466   4.650  67.149  1.00  0.00    -0.085 C  
BRANCH  24  25
HETATM   25  C   UNL     1      -8.463   5.597  67.823  1.00  0.00    -0.102 C  
BRANCH  25  26
HETATM   26  C   UNL     1      -9.830   4.996  68.200  1.00  0.00    -0.203 C  
HETATM   27  C   UNL     1      -9.724   4.322  69.582  1.00  0.00    -0.284 C  
HETATM   28  C   UNL     1      -9.758   5.337  70.724  1.00  0.00    -0.185 C  
HETATM   29  N   UNL     1     -11.000   6.101  70.680  1.00  0.00    -0.292 NA 
HETATM   30  H   UNL     1     -11.102   6.700  71.500  1.00  0.00     0.000 HD 
HETATM   31  C   UNL     1     -11.104   6.865  69.437  1.00  0.00    -0.206 C  
HETATM   32  C   UNL     1     -11.013   5.978  68.194  1.00  0.00    -0.340 C  
ENDBRANCH  25  26
ENDBRANCH  24  25
ENDBRANCH  23  24
ENDBRANCH  22  23
ENDBRANCH  21  22
ENDBRANCH  18  21
ENDBRANCH  14  15
ENDBRANCH  10  14
ENDBRANCH   8  10
ENDBRANCH   5   8
ENDBRANCH   4   5
ENDBRANCH   3   4
ENDBRANCH   2   3
TORSDOF 13
ENDMDL
MODEL      310
REMARK 921   NORMALIZED FREE ENERGY PREDICTED BY IDOCK:   -2.22 KCAL/MOL
REMARK 922        TOTAL FREE ENERGY PREDICTED BY IDOCK:   -6.45 KCAL/MOL
REMARK 923 INTER-LIGAND FREE ENERGY PREDICTED BY IDOCK:   -5.03 KCAL/MOL
REMARK 924 INTRA-LIGAND FREE ENERGY PREDICTED BY IDOCK:   -1.42 KCAL/MOL
REMARK 927      BINDING AFFINITY PREDICTED BY RF-SCORE:    0.00 PKD
ROOT
HETATM    1  C   UNL     1     -12.759  13.807  65.382  1.00  0.00    -0.513 C  
HETATM    2  C   UNL     1     -11.773  12.727  64.946  1.00  0.00    -0.394 C  
ENDROOT
BRANCH   2   3
HETATM    3  C   UNL     1     -11.020  12.235  66.170  1.00  0.00    -0.328 C  
BRANCH   3   4
HETATM    4  C   UNL     1     -11.851  11.552  67.261  1.00  0.00     0.024 C  
BRANCH   4   5
HETATM    5  S   UNL     1     -11.081  12.040  68.820  1.00  0.00    -0.266 S  
HETATM    6  O   UNL     1     -11.825  13.147  69.374  1.00  0.00    -0.304 OA 
HETATM    7  O   UNL     1     -10.849  10.827  69.565  1.00  0.00    -0.225 OA 
BRANCH   5   8
HETATM    8  N   UNL     1      -9.563  12.691  68.413  1.00  0.00    -0.315 N  
HETATM    9  H   UNL     1      -9.412  13.640  68.068  1.00  0.00     0.000 HD 
BRANCH   8  10
HETATM   10  C   UNL     1      -8.442  11.649  68.637  1.00  0.00    -0.094 C  
HETATM   11  C   UNL     1      -7.082  12.338  68.523  1.00  0.00    -0.099 C  
HETATM   12  O   UNL     1      -6.057  11.937  69.052  1.00  0.00    -0.061 OA 
HETATM   13  O   UNL     1      -7.123  13.463  67.764  1.00  0.00    -0.122 OA 
BRANCH  10  14
HETATM   14  C   UNL     1      -8.481  10.427  67.700  1.00  0.00    -0.114 C  
BRANCH  14  15
HETATM   15  C   UNL     1      -7.933   9.161  68.309  1.00  0.00    -0.103 A  
HETATM   16  C   UNL     1      -7.800   9.108  69.700  1.00  0.00    -0.084 A  
HETATM   17  C   UNL     1      -7.084   8.074  70.297  1.00  0.00    -0.048 A  
HETATM   18  C   UNL     1      -6.477   7.088  69.516  1.00  0.00    -0.043 A  
HETATM   19  C   UNL     1      -7.474   8.076  67.547  1.00  0.00    -0.097 A  
HETATM   20  C   UNL     1      -6.730   7.056  68.145  1.00  0.00    -0.064 A  
BRANCH  18  21
HETATM   21  O   UNL     1      -5.605   6.141  69.992  1.00  0.00    -0.013 OA 
BRANCH  21  22
HETATM   22  C   UNL     1      -5.926   4.809  69.586  1.00  0.00    -0.018 C  
BRANCH  22  23
HETATM   23  C   UNL     1      -6.710   4.077  70.661  1.00  0.00    -0.032 C  
BRANCH  23  24
HETATM   24  C   UNL     1      -6.496   4.635  72.075  1.00  0.00    -0.026 C  
BRANCH  24  25
HETATM   25  C   UNL     1      -7.864   4.836  72.734  1.00  0.00    -0.093 C  
BRANCH  25  26
HETATM   26  C   UNL     1      -9.079   4.879  71.788  1.00  0.00    -0.166 C  
HETATM   27  C   UNL     1     -10.070   3.767  72.186  1.00  0.00    -0.220 C  
HETATM   28  C   UNL     1     -10.901   4.143  73.411  1.00  0.00    -0.244 C  
HETATM   29  N   UNL     1     -11.660   5.362  73.148  1.00  0.00    -0.531 NA 
HETATM   30  H   UNL     1     -12.313   5.568  73.904  1.00  0.00     0.000 HD 
HETATM   31  C   UNL     1     -10.768   6.490  72.884  1.00  0.00    -0.251 C  
HETATM   32  C   UNL     1      -9.817   6.226  71.714  1.00  0.00    -0.182 C  
ENDBRANCH  25  26
ENDBRANCH  24  25
ENDBRANCH  23  24
ENDBRANCH  22  23
ENDBRANCH  21  22
ENDBRANCH  18  21
ENDBRANCH  14  15
ENDBRANCH  10  14
ENDBRANCH   8  10
ENDBRANCH   5   8
ENDBRANCH   4   5
ENDBRANCH   3   4
ENDBRANCH   2   3
TORSDOF 13
ENDMDL
MODEL      311
REMARK 921   NORMALIZED FREE ENERGY PREDICTED BY IDOCK:   -2.21 KCAL/MOL
REMARK 922        TOTAL FREE ENERGY PREDICTED BY IDOCK:   -6.44 KCAL/MOL
REMARK 923 INTER-LIGAND FREE ENERGY PREDICTED BY IDOCK:   -6.36 KCAL/MOL
REMARK 924 INTRA-LIGAND FREE ENERGY PREDICTED BY IDOCK:   -0.07 KCAL/MOL
REMARK 927      BINDING AFFINITY PREDICTED BY RF-SCORE:    0.00 PKD
ROOT
HETATM    1  C   UNL     1      -6.599  18.518  68.798  1.00  0.00    -0.267 C  
HETATM    2  C   UNL     1      -6.892  19.959  68.387  1.00  0.00    -0.335 C  
ENDROOT
BRANCH   2   3
HETATM    3  C   UNL     1      -8.386  20.101  68.152  1.00  0.00    -0.144 C  
BRANCH   3   4
HETATM    4  C   UNL     1      -9.300  19.167  68.950  1.00  0.00    -0.341 C  
BRANCH   4   5
HETATM    5  S   UNL     1     -10.079  18.099  67.720  1.00  0.00    -0.382 S  
HETATM    6  O   UNL     1     -11.398  18.613  67.433  1.00  0.00     0.034 OA 
HETATM    7  O   UNL     1      -9.102  17.882  66.681  1.00  0.00    -0.254 OA 
BRANCH   5   8
HETATM    8  N   UNL     1     -10.348  16.607  68.491  1.00  0.00    -0.283 N  
HETATM    9  H   UNL     1     -10.661  16.502  69.457  1.00  0.00     0.000 HD 
BRANCH   8  10
HETATM   10  C   UNL     1     -10.053  15.432  67.529  1.00  0.00    -0.233 C  
HETATM   11  C   UNL     1     -11.332  14.619  67.320  1.00  0.00    -0.353 C  
HETATM   12  O   UNL     1     -11.561  13.933  66.336  1.00  0.00    -0.337 OA 
HETATM   13  O   UNL     1     -12.206  14.736  68.351  1.00  0.00    -0.209 OA 
BRANCH  10  14
HETATM   14  C   UNL     1      -8.912  14.494  67.963  1.00  0.00    -0.180 C  
BRANCH  14  15
HETATM   15  C   UNL     1      -9.229  13.026  67.826  1.00  0.00    -0.200 A  
HETATM   16  C   UNL     1      -8.952  12.408  66.602  1.00  0.00    -0.184 A  
HETATM   17  C   UNL     1      -9.440  11.132  66.335  1.00  0.00    -0.216 A  
HETATM   18  C   UNL     1     -10.224  10.461  67.276  1.00  0.00    -0.211 A  
HETATM   19  C   UNL     1      -9.863  12.279  68.829  1.00  0.00    -0.018 A  
HETATM   20  C   UNL     1     -10.377  11.010  68.548  1.00  0.00    -0.204 A  
BRANCH  18  21
HETATM   21  O   UNL     1     -10.897   9.289  67.038  1.00  0.00    -0.186 OA 
BRANCH  21  22
HETATM   22  C   UNL     1     -10.306   8.149  67.667  1.00  0.00    -0.247 C  
BRANCH  22  23
HETATM   23  C   UNL     1     -10.305   6.946  66.740  1.00  0.00    -0.287 C  
BRANCH  23  24
HETATM   24  C   UNL     1     -10.383   5.598  67.471  1.00  0.00    -0.277 C  
BRANCH  24  25
HETATM   25  C   UNL     1     -10.434   5.861  68.979  1.00  0.00    -0.332 C  
BRANCH  25  26
HETATM   26  C   UNL     1      -9.415   5.093  69.842  1.00  0.00    -0.221 C  
HETATM   27  C   UNL     1      -8.090   4.963  69.066  1.00  0.00    -0.079 C  
HETATM   28  C   UNL     1      -7.273   6.255  69.096  1.00  0.00    -0.087 C  
HETATM   29  N   UNL     1      -6.965   6.621  70.475  1.00  0.00    -0.062 NA 
HETATM   30  H   UNL     1      -6.320   7.411  70.518  1.00  0.00     0.000 HD 
HETATM   31  C   UNL     1      -8.186   6.880  71.237  1.00  0.00    -0.114 C  
HETATM   32  C   UNL     1      -9.143   5.686  71.234  1.00  0.00    -0.156 C  
ENDBRANCH  25  26
ENDBRANCH  24  25
ENDBRANCH  23  24
ENDBRANCH  22  23
ENDBRANCH  21  22
ENDBRANCH  18  21
ENDBRANCH  14  15
ENDBRANCH  10  14
ENDBRANCH   8  10
ENDBRANCH   5   8
ENDBRANCH   4   5
ENDBRANCH   3   4
ENDBRANCH   2   3
TORSDOF 13
ENDMDL
MODEL      312
REMARK 921   NORMALIZED FREE ENERGY PREDICTED BY IDOCK:   -2.09 KCAL/MOL
REMARK 922        TOTAL FREE ENERGY PREDICTED BY IDOCK:   -6.22 KCAL/MOL
REMARK 923 INTER-LIGAND FREE ENERGY PREDICTED BY IDOCK:   -6.53 KCAL/MOL
REMARK 924 INTRA-LIGAND FREE ENERGY PREDICTED BY IDOCK:    0.31 KCAL/MOL
REMARK 927      BINDING AFFINITY PREDICTED BY RF-SCORE:    0.00 PKD
ROOT
HETATM    1  C   UNL     1     -12.354  14.413  64.929  1.00  0.00    -0.414 C  
HETATM    2  C   UNL     1     -10.977  14.959  64.560  1.00  0.00    -0.216 C  
ENDROOT
BRANCH   2   3
HETATM    3  C   UNL     1     -10.874  16.390  65.059  1.00  0.00    -0.289 C  
BRANCH   3   4
HETATM    4  C   UNL     1     -10.610  16.580  66.556  1.00  0.00    -0.217 C  
BRANCH   4   5
HETATM    5  S   UNL     1      -9.188  17.689  66.650  1.00  0.00    -0.273 S  
HETATM    6  O   UNL     1      -8.139  17.166  65.807  1.00  0.00    -0.497 OA 
HETATM    7  O   UNL     1      -9.697  19.030  66.492  1.00  0.00    -0.325 OA 
BRANCH   5   8
HETATM    8  N   UNL     1      -8.586  17.553  68.236  1.00  0.00    -0.259 N  
HETATM    9  H   UNL     1      -8.758  18.228  68.981  1.00  0.00     0.000 HD 
BRANCH   8  10
HETATM   10  C   UNL     1      -7.744  16.265  68.392  1.00  0.00    -0.169 C  
HETATM   11  C   UNL     1      -6.302  16.644  68.734  1.00  0.00    -0.152 C  
HETATM   12  O   UNL     1      -5.520  15.919  69.330  1.00  0.00    -0.110 OA 
HETATM   13  O   UNL     1      -5.969  17.888  68.307  1.00  0.00    -0.167 OA 
BRANCH  10  14
HETATM   14  C   UNL     1      -7.753  15.318  67.177  1.00  0.00    -0.238 C  
BRANCH  14  15
HETATM   15  C   UNL     1      -8.035  13.877  67.516  1.00  0.00    -0.190 A  
HETATM   16  C   UNL     1      -9.290  13.358  67.179  1.00  0.00    -0.240 A  
HETATM   17  C   UNL     1      -9.694  12.122  67.677  1.00  0.00    -0.188 A  
HETATM   18  C   UNL     1      -8.862  11.394  68.530  1.00  0.00    -0.151 A  
HETATM   19  C   UNL     1      -7.139  13.063  68.227  1.00  0.00    -0.103 A  
HETATM   20  C   UNL     1      -7.558  11.837  68.749  1.00  0.00    -0.104 A  
BRANCH  18  21
HETATM   21  O   UNL     1      -9.240  10.264  69.212  1.00  0.00    -0.189 OA 
BRANCH  21  22
HETATM   22  C   UNL     1      -8.139   9.472  69.664  1.00  0.00    -0.128 C  
BRANCH  22  23
HETATM   23  C   UNL     1      -8.464   8.771  70.972  1.00  0.00    -0.219 C  
BRANCH  23  24
HETATM   24  C   UNL     1      -9.777   7.976  70.943  1.00  0.00    -0.183 C  
BRANCH  24  25
HETATM   25  C   UNL     1      -9.445   6.486  70.823  1.00  0.00    -0.180 C  
BRANCH  25  26
HETATM   26  C   UNL     1     -10.317   5.666  69.854  1.00  0.00    -0.347 C  
HETATM   27  C   UNL     1     -11.244   6.620  69.076  1.00  0.00    -0.289 C  
HETATM   28  C   UNL     1     -10.513   7.342  67.945  1.00  0.00    -0.205 C  
HETATM   29  N   UNL     1      -9.960   6.373  67.006  1.00  0.00    -0.151 NA 
HETATM   30  H   UNL     1      -9.572   6.829  66.180  1.00  0.00     0.000 HD 
HETATM   31  C   UNL     1      -8.974   5.511  67.658  1.00  0.00    -0.108 C  
HETATM   32  C   UNL     1      -9.551   4.770  68.866  1.00  0.00    -0.229 C  
ENDBRANCH  25  26
ENDBRANCH  24  25
ENDBRANCH  23  24
ENDBRANCH  22  23
ENDBRANCH  21  22
ENDBRANCH  18  21
ENDBRANCH  14  15
ENDBRANCH  10  14
ENDBRANCH   8  10
ENDBRANCH   5   8
ENDBRANCH   4   5
ENDBRANCH   3   4
ENDBRANCH   2   3
TORSDOF 13
ENDMDL
MODEL      313
REMARK 921   NORMALIZED FREE ENERGY PREDICTED BY IDOCK:   -2.04 KCAL/MOL
REMARK 922        TOTAL FREE ENERGY PREDICTED BY IDOCK:   -6.14 KCAL/MOL
REMARK 923 INTER-LIGAND FREE ENERGY PREDICTED BY IDOCK:   -6.56 KCAL/MOL
REMARK 924 INTRA-LIGAND FREE ENERGY PREDICTED BY IDOCK:    0.42 KCAL/MOL
REMARK 927      BINDING AFFINITY PREDICTED BY RF-SCORE:    0.00 PKD
ROOT
HETATM    1  C   UNL     1      -5.629   8.415  73.744  1.00  0.00    -0.087 C  
HETATM    2  C   UNL     1      -5.959   7.113  74.470  1.00  0.00    -0.082 C  
ENDROOT
BRANCH   2   3
HETATM    3  C   UNL     1      -5.968   5.982  73.457  1.00  0.00    -0.061 C  
BRANCH   3   4
HETATM    4  C   UNL     1      -7.205   5.079  73.445  1.00  0.00    -0.086 C  
BRANCH   4   5
HETATM    5  S   UNL     1      -8.200   5.657  72.052  1.00  0.00    -0.116 S  
HETATM    6  O   UNL     1      -7.405   6.569  71.265  1.00  0.00    -0.077 OA 
HETATM    7  O   UNL     1      -8.821   4.490  71.474  1.00  0.00    -0.115 OA 
BRANCH   5   8
HETATM    8  N   UNL     1      -9.436   6.617  72.721  1.00  0.00    -0.142 N  
HETATM    9  H   UNL     1      -9.504   6.871  73.707  1.00  0.00     0.000 HD 
BRANCH   8  10
HETATM   10  C   UNL     1     -10.443   7.051  71.630  1.00  0.00    -0.199 C  
HETATM   11  C   UNL     1     -11.820   6.471  71.955  1.00  0.00    -0.334 C  
HETATM   12  O   UNL     1     -12.878   6.949  71.577  1.00  0.00    -0.374 OA 
HETATM   13  O   UNL     1     -11.753   5.352  72.720  1.00  0.00    -0.295 OA 
BRANCH  10  14
HETATM   14  C   UNL     1     -10.054   6.678  70.187  1.00  0.00    -0.200 C  
BRANCH  14  15
HETATM   15  C   UNL     1     -10.396   7.729  69.161  1.00  0.00    -0.219 A  
HETATM   16  C   UNL     1     -10.337   7.369  67.810  1.00  0.00    -0.273 A  
HETATM   17  C   UNL     1     -10.403   8.346  66.822  1.00  0.00    -0.357 A  
HETATM   18  C   UNL     1     -10.513   9.696  67.163  1.00  0.00    -0.249 A  
HETATM   19  C   UNL     1     -10.683   9.062  69.490  1.00  0.00    -0.215 A  
HETATM   20  C   UNL     1     -10.720  10.044  68.497  1.00  0.00    -0.264 A  
BRANCH  18  21
HETATM   21  O   UNL     1     -10.402  10.738  66.276  1.00  0.00    -0.241 OA 
BRANCH  21  22
HETATM   22  C   UNL     1      -9.235  11.538  66.473  1.00  0.00    -0.194 C  
BRANCH  22  23
HETATM   23  C   UNL     1      -9.589  13.010  66.601  1.00  0.00    -0.259 C  
BRANCH  23  24
HETATM   24  C   UNL     1      -8.458  13.875  67.172  1.00  0.00    -0.196 C  
BRANCH  24  25
HETATM   25  C   UNL     1      -8.935  14.501  68.486  1.00  0.00    -0.188 C  
BRANCH  25  26
HETATM   26  C   UNL     1      -9.272  16.003  68.446  1.00  0.00    -0.196 C  
HETATM   27  C   UNL     1      -7.969  16.810  68.287  1.00  0.00    -0.200 C  
HETATM   28  C   UNL     1      -7.453  16.799  66.848  1.00  0.00    -0.222 C  
HETATM   29  N   UNL     1      -8.456  17.364  65.951  1.00  0.00    -0.541 NA 
HETATM   30  H   UNL     1      -8.091  17.479  65.005  1.00  0.00     0.000 HD 
HETATM   31  C   UNL     1      -9.681  16.566  65.963  1.00  0.00    -0.301 C  
HETATM   32  C   UNL     1     -10.279  16.430  67.365  1.00  0.00    -0.281 C  
ENDBRANCH  25  26
ENDBRANCH  24  25
ENDBRANCH  23  24
ENDBRANCH  22  23
ENDBRANCH  21  22
ENDBRANCH  18  21
ENDBRANCH  14  15
ENDBRANCH  10  14
ENDBRANCH   8  10
ENDBRANCH   5   8
ENDBRANCH   4   5
ENDBRANCH   3   4
ENDBRANCH   2   3
TORSDOF 13
ENDMDL
MODEL      314
REMARK 921   NORMALIZED FREE ENERGY PREDICTED BY IDOCK:   -2.02 KCAL/MOL
REMARK 922        TOTAL FREE ENERGY PREDICTED BY IDOCK:   -6.09 KCAL/MOL
REMARK 923 INTER-LIGAND FREE ENERGY PREDICTED BY IDOCK:   -6.00 KCAL/MOL
REMARK 924 INTRA-LIGAND FREE ENERGY PREDICTED BY IDOCK:   -0.09 KCAL/MOL
REMARK 927      BINDING AFFINITY PREDICTED BY RF-SCORE:    0.00 PKD
ROOT
HETATM    1  C   UNL     1     -12.925  11.355  70.784  1.00  0.00    -0.135 C  
HETATM    2  C   UNL     1     -12.157  12.539  70.200  1.00  0.00    -0.368 C  
ENDROOT
BRANCH   2   3
HETATM    3  C   UNL     1     -11.383  12.062  68.984  1.00  0.00    -0.331 C  
BRANCH   3   4
HETATM    4  C   UNL     1     -10.334  13.022  68.415  1.00  0.00    -0.252 C  
BRANCH   4   5
HETATM    5  S   UNL     1      -9.461  12.076  67.149  1.00  0.00    -0.192 S  
HETATM    6  O   UNL     1      -8.040  12.247  67.344  1.00  0.00    -0.156 OA 
HETATM    7  O   UNL     1     -10.074  10.770  67.111  1.00  0.00    -0.190 OA 
BRANCH   5   8
HETATM    8  N   UNL     1      -9.796  12.844  65.669  1.00  0.00    -0.409 N  
HETATM    9  H   UNL     1      -9.657  13.839  65.487  1.00  0.00     0.000 HD 
BRANCH   8  10
HETATM   10  C   UNL     1     -10.343  11.830  64.637  1.00  0.00    -0.290 C  
HETATM   11  C   UNL     1     -11.859  11.993  64.523  1.00  0.00    -0.285 C  
HETATM   12  O   UNL     1     -12.516  11.685  63.540  1.00  0.00    -0.442 OA 
HETATM   13  O   UNL     1     -12.417  12.526  65.639  1.00  0.00    -0.648 OA 
BRANCH  10  14
HETATM   14  C   UNL     1     -10.004  10.354  64.919  1.00  0.00    -0.409 C  
BRANCH  14  15
HETATM   15  C   UNL     1      -8.788   9.846  64.185  1.00  0.00    -0.251 A  
HETATM   16  C   UNL     1      -8.988   9.172  62.976  1.00  0.00    -0.020 A  
HETATM   17  C   UNL     1      -7.940   8.476  62.381  1.00  0.00    -0.148 A  
HETATM   18  C   UNL     1      -6.684   8.426  62.989  1.00  0.00    -0.090 A  
HETATM   19  C   UNL     1      -7.485   9.939  64.697  1.00  0.00    -0.140 A  
HETATM   20  C   UNL     1      -6.442   9.215  64.113  1.00  0.00    -0.084 A  
BRANCH  18  21
HETATM   21  O   UNL     1      -5.648   7.624  62.580  1.00  0.00    -0.049 OA 
BRANCH  21  22
HETATM   22  C   UNL     1      -5.864   6.234  62.834  1.00  0.00    -0.026 C  
BRANCH  22  23
HETATM   23  C   UNL     1      -5.178   5.794  64.116  1.00  0.00    -0.016 C  
BRANCH  23  24
HETATM   24  C   UNL     1      -5.996   4.795  64.947  1.00  0.00    -0.021 C  
BRANCH  24  25
HETATM   25  C   UNL     1      -6.969   5.578  65.834  1.00  0.00    -0.066 C  
BRANCH  25  26
HETATM   26  C   UNL     1      -8.469   5.335  65.583  1.00  0.00    -0.135 C  
HETATM   27  C   UNL     1      -8.688   3.855  65.213  1.00  0.00    -0.116 C  
HETATM   28  C   UNL     1      -8.656   2.942  66.437  1.00  0.00    -0.116 C  
HETATM   29  N   UNL     1      -9.693   3.336  67.385  1.00  0.00    -0.320 NA 
HETATM   30  H   UNL     1      -9.772   2.669  68.153  1.00  0.00     0.000 HD 
HETATM   31  C   UNL     1      -9.471   4.697  67.872  1.00  0.00    -0.152 C  
HETATM   32  C   UNL     1      -9.407   5.723  66.738  1.00  0.00    -0.140 C  
ENDBRANCH  25  26
ENDBRANCH  24  25
ENDBRANCH  23  24
ENDBRANCH  22  23
ENDBRANCH  21  22
ENDBRANCH  18  21
ENDBRANCH  14  15
ENDBRANCH  10  14
ENDBRANCH   8  10
ENDBRANCH   5   8
ENDBRANCH   4   5
ENDBRANCH   3   4
ENDBRANCH   2   3
TORSDOF 13
ENDMDL
MODEL      315
REMARK 921   NORMALIZED FREE ENERGY PREDICTED BY IDOCK:   -2.00 KCAL/MOL
REMARK 922        TOTAL FREE ENERGY PREDICTED BY IDOCK:   -6.07 KCAL/MOL
REMARK 923 INTER-LIGAND FREE ENERGY PREDICTED BY IDOCK:   -6.47 KCAL/MOL
REMARK 924 INTRA-LIGAND FREE ENERGY PREDICTED BY IDOCK:    0.41 KCAL/MOL
REMARK 927      BINDING AFFINITY PREDICTED BY RF-SCORE:    0.00 PKD
ROOT
HETATM    1  C   UNL     1     -12.359   6.272  72.043  1.00  0.00    -0.202 C  
HETATM    2  C   UNL     1     -11.736   7.144  70.955  1.00  0.00    -0.358 C  
ENDROOT
BRANCH   2   3
HETATM    3  C   UNL     1     -10.907   6.258  70.041  1.00  0.00    -0.387 C  
BRANCH   3   4
HETATM    4  C   UNL     1     -11.158   6.396  68.537  1.00  0.00    -0.300 C  
BRANCH   4   5
HETATM    5  S   UNL     1     -10.060   7.723  67.993  1.00  0.00    -0.194 S  
HETATM    6  O   UNL     1     -10.696   8.990  68.272  1.00  0.00    -0.191 OA 
HETATM    7  O   UNL     1      -8.744   7.403  68.490  1.00  0.00    -0.128 OA 
BRANCH   5   8
HETATM    8  N   UNL     1     -10.005   7.625  66.295  1.00  0.00    -0.464 N  
HETATM    9  H   UNL     1     -10.566   6.984  65.733  1.00  0.00     0.000 HD 
BRANCH   8  10
HETATM   10  C   UNL     1      -8.988   8.639  65.720  1.00  0.00    -0.197 C  
HETATM   11  C   UNL     1      -8.167   7.962  64.622  1.00  0.00    -0.091 C  
HETATM   12  O   UNL     1      -7.617   8.555  63.706  1.00  0.00    -0.115 OA 
HETATM   13  O   UNL     1      -8.107   6.614  64.764  1.00  0.00    -0.122 OA 
BRANCH  10  14
HETATM   14  C   UNL     1      -8.041   9.280  66.752  1.00  0.00    -0.112 C  
BRANCH  14  15
HETATM   15  C   UNL     1      -8.102  10.785  66.799  1.00  0.00    -0.137 A  
HETATM   16  C   UNL     1      -7.174  11.453  67.605  1.00  0.00    -0.097 A  
HETATM   17  C   UNL     1      -7.331  12.809  67.878  1.00  0.00    -0.120 A  
HETATM   18  C   UNL     1      -8.422  13.515  67.367  1.00  0.00    -0.200 A  
HETATM   19  C   UNL     1      -9.092  11.537  66.148  1.00  0.00    -0.217 A  
HETATM   20  C   UNL     1      -9.264  12.891  66.447  1.00  0.00    -0.144 A  
BRANCH  18  21
HETATM   21  O   UNL     1      -8.761  14.796  67.724  1.00  0.00    -0.162 OA 
BRANCH  21  22
HETATM   22  C   UNL     1      -8.018  15.297  68.838  1.00  0.00    -0.176 C  
BRANCH  22  23
HETATM   23  C   UNL     1      -7.064  16.400  68.413  1.00  0.00    -0.156 C  
BRANCH  23  24
HETATM   24  C   UNL     1      -7.608  17.296  67.292  1.00  0.00    -0.204 C  
BRANCH  24  25
HETATM   25  C   UNL     1      -7.097  18.723  67.514  1.00  0.00    -0.216 C  
BRANCH  25  26
HETATM   26  C   UNL     1      -8.098  19.859  67.234  1.00  0.00    -0.341 C  
HETATM   27  C   UNL     1      -9.055  19.425  66.107  1.00  0.00    -0.314 C  
HETATM   28  C   UNL     1     -10.142  18.473  66.606  1.00  0.00    -0.389 C  
HETATM   29  N   UNL     1     -10.928  19.115  67.654  1.00  0.00    -0.367 NA 
HETATM   30  H   UNL     1     -11.734  18.548  67.920  1.00  0.00     0.000 HD 
HETATM   31  C   UNL     1     -10.095  19.443  68.811  1.00  0.00    -0.422 C  
HETATM   32  C   UNL     1      -8.912  20.342  68.446  1.00  0.00     0.046 C  
ENDBRANCH  25  26
ENDBRANCH  24  25
ENDBRANCH  23  24
ENDBRANCH  22  23
ENDBRANCH  21  22
ENDBRANCH  18  21
ENDBRANCH  14  15
ENDBRANCH  10  14
ENDBRANCH   8  10
ENDBRANCH   5   8
ENDBRANCH   4   5
ENDBRANCH   3   4
ENDBRANCH   2   3
TORSDOF 13
ENDMDL
MODEL      316
REMARK 921   NORMALIZED FREE ENERGY PREDICTED BY IDOCK:   -2.00 KCAL/MOL
REMARK 922        TOTAL FREE ENERGY PREDICTED BY IDOCK:   -6.06 KCAL/MOL
REMARK 923 INTER-LIGAND FREE ENERGY PREDICTED BY IDOCK:   -4.88 KCAL/MOL
REMARK 924 INTRA-LIGAND FREE ENERGY PREDICTED BY IDOCK:   -1.18 KCAL/MOL
REMARK 927      BINDING AFFINITY PREDICTED BY RF-SCORE:    0.00 PKD
ROOT
HETATM    1  C   UNL     1     -13.224  14.825  70.771  1.00  0.00    -0.355 C  
HETATM    2  C   UNL     1     -12.056  15.805  70.684  1.00  0.00    -0.424 C  
ENDROOT
BRANCH   2   3
HETATM    3  C   UNL     1     -10.951  15.169  69.858  1.00  0.00    -0.291 C  
BRANCH   3   4
HETATM    4  C   UNL     1     -11.072  15.292  68.336  1.00  0.00    -0.287 C  
BRANCH   4   5
HETATM    5  S   UNL     1     -10.434  13.735  67.682  1.00  0.00    -0.243 S  
HETATM    6  O   UNL     1     -11.318  13.278  66.635  1.00  0.00    -0.301 OA 
HETATM    7  O   UNL     1      -9.021  13.926  67.459  1.00  0.00    -0.178 OA 
BRANCH   5   8
HETATM    8  N   UNL     1     -10.606  12.592  68.931  1.00  0.00    -0.385 N  
HETATM    9  H   UNL     1     -10.141  12.649  69.837  1.00  0.00     0.000 HD 
BRANCH   8  10
HETATM   10  C   UNL     1     -11.564  11.455  68.504  1.00  0.00    -0.318 C  
HETATM   11  C   UNL     1     -12.366  10.989  69.720  1.00  0.00    -0.262 C  
HETATM   12  O   UNL     1     -13.462  10.452  69.661  1.00  0.00     0.333 OA 
HETATM   13  O   UNL     1     -11.734  11.236  70.895  1.00  0.00    -0.207 OA 
BRANCH  10  14
HETATM   14  C   UNL     1     -10.892  10.242  67.835  1.00  0.00    -0.337 C  
BRANCH  14  15
HETATM   15  C   UNL     1      -9.664   9.740  68.553  1.00  0.00    -0.164 A  
HETATM   16  C   UNL     1      -9.827   8.718  69.494  1.00  0.00    -0.180 A  
HETATM   17  C   UNL     1      -8.785   8.384  70.353  1.00  0.00    -0.142 A  
HETATM   18  C   UNL     1      -7.571   9.073  70.299  1.00  0.00    -0.087 A  
HETATM   19  C   UNL     1      -8.390  10.304  68.386  1.00  0.00    -0.119 A  
HETATM   20  C   UNL     1      -7.355   9.987  69.269  1.00  0.00    -0.091 A  
BRANCH  18  21
HETATM   21  O   UNL     1      -6.557   8.943  71.215  1.00  0.00    -0.067 OA 
BRANCH  21  22
HETATM   22  C   UNL     1      -6.254   7.587  71.548  1.00  0.00    -0.036 C  
BRANCH  22  23
HETATM   23  C   UNL     1      -6.969   7.157  72.818  1.00  0.00    -0.068 C  
BRANCH  23  24
HETATM   24  C   UNL     1      -6.588   5.750  73.300  1.00  0.00    -0.073 C  
BRANCH  24  25
HETATM   25  C   UNL     1      -7.615   4.752  72.758  1.00  0.00    -0.091 C  
BRANCH  25  26
HETATM   26  C   UNL     1      -9.005   5.320  72.415  1.00  0.00    -0.137 C  
HETATM   27  C   UNL     1      -9.584   4.549  71.212  1.00  0.00    -0.240 C  
HETATM   28  C   UNL     1     -10.144   3.186  71.614  1.00  0.00    -0.007 C  
HETATM   29  N   UNL     1     -11.202   3.350  72.606  1.00  0.00     0.298 NA 
HETATM   30  H   UNL     1     -11.674   2.466  72.801  1.00  0.00     0.000 HD 
HETATM   31  C   UNL     1     -10.686   3.967  73.827  1.00  0.00    -0.239 C  
HETATM   32  C   UNL     1     -10.025   5.322  73.566  1.00  0.00    -0.185 C  
ENDBRANCH  25  26
ENDBRANCH  24  25
ENDBRANCH  23  24
ENDBRANCH  22  23
ENDBRANCH  21  22
ENDBRANCH  18  21
ENDBRANCH  14  15
ENDBRANCH  10  14
ENDBRANCH   8  10
ENDBRANCH   5   8
ENDBRANCH   4   5
ENDBRANCH   3   4
ENDBRANCH   2   3
TORSDOF 13
ENDMDL
MODEL      317
REMARK 921   NORMALIZED FREE ENERGY PREDICTED BY IDOCK:   -1.96 KCAL/MOL
REMARK 922        TOTAL FREE ENERGY PREDICTED BY IDOCK:   -6.00 KCAL/MOL
REMARK 923 INTER-LIGAND FREE ENERGY PREDICTED BY IDOCK:   -4.55 KCAL/MOL
REMARK 924 INTRA-LIGAND FREE ENERGY PREDICTED BY IDOCK:   -1.45 KCAL/MOL
REMARK 927      BINDING AFFINITY PREDICTED BY RF-SCORE:    0.00 PKD
ROOT
HETATM    1  C   UNL     1     -12.633  13.935  65.485  1.00  0.00    -0.560 C  
HETATM    2  C   UNL     1     -11.914  12.674  65.012  1.00  0.00    -0.467 C  
ENDROOT
BRANCH   2   3
HETATM    3  C   UNL     1     -10.885  12.282  66.058  1.00  0.00    -0.310 C  
BRANCH   3   4
HETATM    4  C   UNL     1     -11.317  11.239  67.093  1.00  0.00    -0.220 C  
BRANCH   4   5
HETATM    5  S   UNL     1     -10.652  11.826  68.666  1.00  0.00    -0.219 S  
HETATM    6  O   UNL     1     -11.669  12.602  69.335  1.00  0.00    -0.297 OA 
HETATM    7  O   UNL     1     -10.016  10.694  69.296  1.00  0.00    -0.218 OA 
BRANCH   5   8
HETATM    8  N   UNL     1      -9.433  12.946  68.274  1.00  0.00    -0.244 N  
HETATM    9  H   UNL     1      -9.598  13.925  68.040  1.00  0.00     0.000 HD 
BRANCH   8  10
HETATM   10  C   UNL     1      -8.039  12.277  68.321  1.00  0.00    -0.166 C  
HETATM   11  C   UNL     1      -7.171  12.993  69.358  1.00  0.00     0.265 C  
HETATM   12  O   UNL     1      -6.227  12.481  69.941  1.00  0.00    -0.135 OA 
HETATM   13  O   UNL     1      -7.559  14.275  69.575  1.00  0.00    -0.005 OA 
BRANCH  10  14
HETATM   14  C   UNL     1      -7.290  12.216  66.977  1.00  0.00    -0.072 C  
BRANCH  14  15
HETATM   15  C   UNL     1      -6.934  10.821  66.528  1.00  0.00    -0.130 A  
HETATM   16  C   UNL     1      -7.314   9.753  67.348  1.00  0.00    -0.090 A  
HETATM   17  C   UNL     1      -6.809   8.477  67.114  1.00  0.00    -0.067 A  
HETATM   18  C   UNL     1      -5.906   8.250  66.073  1.00  0.00    -0.044 A  
HETATM   19  C   UNL     1      -6.169  10.553  65.383  1.00  0.00    -0.110 A  
HETATM   20  C   UNL     1      -5.640   9.277  65.168  1.00  0.00    -0.053 A  
BRANCH  18  21
HETATM   21  O   UNL     1      -5.218   7.079  65.878  1.00  0.00    -0.022 OA 
BRANCH  21  22
HETATM   22  C   UNL     1      -5.487   6.458  64.619  1.00  0.00    -0.022 C  
BRANCH  22  23
HETATM   23  C   UNL     1      -6.507   5.341  64.761  1.00  0.00    -0.038 C  
BRANCH  23  24
HETATM   24  C   UNL     1      -6.519   4.683  66.148  1.00  0.00    -0.041 C  
BRANCH  24  25
HETATM   25  C   UNL     1      -7.714   5.226  66.937  1.00  0.00    -0.096 C  
BRANCH  25  26
HETATM   26  C   UNL     1      -8.826   4.217  67.276  1.00  0.00    -0.126 C  
HETATM   27  C   UNL     1     -10.158   4.710  66.676  1.00  0.00    -0.263 C  
HETATM   28  C   UNL     1     -10.251   4.441  65.175  1.00  0.00    -0.179 C  
HETATM   29  N   UNL     1     -10.132   3.011  64.912  1.00  0.00    -0.376 NA 
HETATM   30  H   UNL     1     -10.311   2.793  63.932  1.00  0.00     0.000 HD 
HETATM   31  C   UNL     1      -8.832   2.502  65.349  1.00  0.00    -0.126 C  
HETATM   32  C   UNL     1      -8.566   2.767  66.833  1.00  0.00    -0.116 C  
ENDBRANCH  25  26
ENDBRANCH  24  25
ENDBRANCH  23  24
ENDBRANCH  22  23
ENDBRANCH  21  22
ENDBRANCH  18  21
ENDBRANCH  14  15
ENDBRANCH  10  14
ENDBRANCH   8  10
ENDBRANCH   5   8
ENDBRANCH   4   5
ENDBRANCH   3   4
ENDBRANCH   2   3
TORSDOF 13
ENDMDL
MODEL      318
REMARK 921   NORMALIZED FREE ENERGY PREDICTED BY IDOCK:   -1.89 KCAL/MOL
REMARK 922        TOTAL FREE ENERGY PREDICTED BY IDOCK:   -5.88 KCAL/MOL
REMARK 923 INTER-LIGAND FREE ENERGY PREDICTED BY IDOCK:   -6.15 KCAL/MOL
REMARK 924 INTRA-LIGAND FREE ENERGY PREDICTED BY IDOCK:    0.28 KCAL/MOL
REMARK 927      BINDING AFFINITY PREDICTED BY RF-SCORE:    0.00 PKD
ROOT
HETATM    1  C   UNL     1     -13.333  12.032  72.065  1.00  0.00    -0.447 C  
HETATM    2  C   UNL     1     -13.405  13.303  71.223  1.00  0.00    -0.150 C  
ENDROOT
BRANCH   2   3
HETATM    3  C   UNL     1     -11.994  13.701  70.825  1.00  0.00    -0.286 C  
BRANCH   3   4
HETATM    4  C   UNL     1     -11.682  13.720  69.325  1.00  0.00    -0.327 C  
BRANCH   4   5
HETATM    5  S   UNL     1     -10.829  15.286  69.039  1.00  0.00    -0.259 S  
HETATM    6  O   UNL     1     -10.738  15.507  67.614  1.00  0.00    -0.287 OA 
HETATM    7  O   UNL     1     -11.430  16.254  69.925  1.00  0.00    -0.301 OA 
BRANCH   5   8
HETATM    8  N   UNL     1      -9.223  15.050  69.549  1.00  0.00    -0.432 N  
HETATM    9  H   UNL     1      -8.865  15.301  70.471  1.00  0.00     0.000 HD 
BRANCH   8  10
HETATM   10  C   UNL     1      -8.381  14.402  68.425  1.00  0.00    -0.155 C  
HETATM   11  C   UNL     1      -7.613  15.494  67.678  1.00  0.00    -0.161 C  
HETATM   12  O   UNL     1      -6.573  15.310  67.063  1.00  0.00    -0.253 OA 
HETATM   13  O   UNL     1      -8.206  16.711  67.767  1.00  0.00    -0.173 OA 
BRANCH  10  14
HETATM   14  C   UNL     1      -9.172  13.548  67.417  1.00  0.00    -0.223 C  
BRANCH  14  15
HETATM   15  C   UNL     1      -8.994  12.061  67.590  1.00  0.00    -0.172 A  
HETATM   16  C   UNL     1      -8.255  11.614  68.690  1.00  0.00    -0.110 A  
HETATM   17  C   UNL     1      -7.854  10.283  68.771  1.00  0.00    -0.106 A  
HETATM   18  C   UNL     1      -8.169   9.383  67.750  1.00  0.00    -0.114 A  
HETATM   19  C   UNL     1      -9.456  11.117  66.661  1.00  0.00    -0.204 A  
HETATM   20  C   UNL     1      -9.028   9.788  66.729  1.00  0.00    -0.156 A  
BRANCH  18  21
HETATM   21  O   UNL     1      -7.669   8.109  67.650  1.00  0.00    -0.099 OA 
BRANCH  21  22
HETATM   22  C   UNL     1      -6.496   7.890  68.437  1.00  0.00    -0.053 C  
BRANCH  22  23
HETATM   23  C   UNL     1      -6.746   6.859  69.525  1.00  0.00    -0.050 C  
BRANCH  23  24
HETATM   24  C   UNL     1      -8.084   6.119  69.386  1.00  0.00    -0.112 C  
BRANCH  24  25
HETATM   25  C   UNL     1      -8.770   6.087  70.754  1.00  0.00    -0.135 C  
BRANCH  25  26
HETATM   26  C   UNL     1      -8.370   7.194  71.747  1.00  0.00    -0.105 C  
HETATM   27  C   UNL     1      -9.515   8.220  71.850  1.00  0.00    -0.287 C  
HETATM   28  C   UNL     1     -10.659   7.723  72.732  1.00  0.00    -0.341 C  
HETATM   29  N   UNL     1     -10.170   7.444  74.078  1.00  0.00    -0.399 NA 
HETATM   30  H   UNL     1     -10.935   7.227  74.718  1.00  0.00     0.000 HD 
HETATM   31  C   UNL     1      -9.163   6.385  74.063  1.00  0.00    -0.151 C  
HETATM   32  C   UNL     1      -7.977   6.716  73.154  1.00  0.00    -0.106 C  
ENDBRANCH  25  26
ENDBRANCH  24  25
ENDBRANCH  23  24
ENDBRANCH  22  23
ENDBRANCH  21  22
ENDBRANCH  18  21
ENDBRANCH  14  15
ENDBRANCH  10  14
ENDBRANCH   8  10
ENDBRANCH   5   8
ENDBRANCH   4   5
ENDBRANCH   3   4
ENDBRANCH   2   3
TORSDOF 13
ENDMDL
MODEL      319
REMARK 921   NORMALIZED FREE ENERGY PREDICTED BY IDOCK:   -1.87 KCAL/MOL
REMARK 922        TOTAL FREE ENERGY PREDICTED BY IDOCK:   -5.84 KCAL/MOL
REMARK 923 INTER-LIGAND FREE ENERGY PREDICTED BY IDOCK:   -4.82 KCAL/MOL
REMARK 924 INTRA-LIGAND FREE ENERGY PREDICTED BY IDOCK:   -1.02 KCAL/MOL
REMARK 927      BINDING AFFINITY PREDICTED BY RF-SCORE:    0.00 PKD
ROOT
HETATM    1  C   UNL     1      -6.950   9.473  69.882  1.00  0.00    -0.078 C  
HETATM    2  C   UNL     1      -7.689   9.742  68.573  1.00  0.00    -0.081 C  
ENDROOT
BRANCH   2   3
HETATM    3  C   UNL     1      -9.110   9.225  68.704  1.00  0.00    -0.132 C  
BRANCH   3   4
HETATM    4  C   UNL     1     -10.217  10.277  68.826  1.00  0.00    -0.192 C  
BRANCH   4   5
HETATM    5  S   UNL     1     -10.961  10.376  67.183  1.00  0.00    -0.122 S  
HETATM    6  O   UNL     1     -10.931   9.062  66.584  1.00  0.00     0.052 OA 
HETATM    7  O   UNL     1     -12.188  11.122  67.327  1.00  0.00     0.029 OA 
BRANCH   5   8
HETATM    8  N   UNL     1      -9.899  11.312  66.240  1.00  0.00    -0.207 N  
HETATM    9  H   UNL     1      -9.162  11.909  66.616  1.00  0.00     0.000 HD 
BRANCH   8  10
HETATM   10  C   UNL     1     -10.204  11.135  64.734  1.00  0.00    -0.306 C  
HETATM   11  C   UNL     1      -9.020  10.442  64.058  1.00  0.00    -0.228 C  
HETATM   12  O   UNL     1      -9.098   9.784  63.031  1.00  0.00    -0.250 OA 
HETATM   13  O   UNL     1      -7.851  10.631  64.720  1.00  0.00    -0.071 OA 
BRANCH  10  14
HETATM   14  C   UNL     1     -10.546  12.430  63.973  1.00  0.00    -0.444 C  
BRANCH  14  15
HETATM   15  C   UNL     1     -10.769  13.629  64.859  1.00  0.00    -0.400 A  
HETATM   16  C   UNL     1      -9.801  13.917  65.827  1.00  0.00    -0.262 A  
HETATM   17  C   UNL     1     -10.063  14.853  66.824  1.00  0.00    -0.254 A  
HETATM   18  C   UNL     1     -11.297  15.504  66.879  1.00  0.00    -0.079 A  
HETATM   19  C   UNL     1     -11.932  14.412  64.817  1.00  0.00    -0.455 A  
HETATM   20  C   UNL     1     -12.204  15.330  65.835  1.00  0.00     0.550 A  
BRANCH  18  21
HETATM   21  O   UNL     1     -11.715  16.300  67.917  1.00  0.00    -0.057 OA 
BRANCH  21  22
HETATM   22  C   UNL     1     -10.678  16.622  68.846  1.00  0.00    -0.337 C  
BRANCH  22  23
HETATM   23  C   UNL     1     -10.095  17.997  68.568  1.00  0.00    -0.399 C  
BRANCH  23  24
HETATM   24  C   UNL     1      -8.598  17.981  68.228  1.00  0.00    -0.293 C  
BRANCH  24  25
HETATM   25  C   UNL     1      -8.000  16.658  68.715  1.00  0.00    -0.239 C  
BRANCH  25  26
HETATM   26  C   UNL     1      -6.501  16.441  68.434  1.00  0.00    -0.135 C  
HETATM   27  C   UNL     1      -5.810  15.955  69.722  1.00  0.00    -0.154 C  
HETATM   28  C   UNL     1      -6.063  14.472  69.990  1.00  0.00    -0.151 C  
HETATM   29  N   UNL     1      -5.572  13.669  68.875  1.00  0.00    -0.072 NA 
HETATM   30  H   UNL     1      -5.620  12.671  69.081  1.00  0.00     0.000 HD 
HETATM   31  C   UNL     1      -6.280  13.998  67.638  1.00  0.00    -0.093 C  
HETATM   32  C   UNL     1      -6.173  15.482  67.278  1.00  0.00     0.042 C  
ENDBRANCH  25  26
ENDBRANCH  24  25
ENDBRANCH  23  24
ENDBRANCH  22  23
ENDBRANCH  21  22
ENDBRANCH  18  21
ENDBRANCH  14  15
ENDBRANCH  10  14
ENDBRANCH   8  10
ENDBRANCH   5   8
ENDBRANCH   4   5
ENDBRANCH   3   4
ENDBRANCH   2   3
TORSDOF 13
ENDMDL
MODEL      320
REMARK 921   NORMALIZED FREE ENERGY PREDICTED BY IDOCK:   -1.84 KCAL/MOL
REMARK 922        TOTAL FREE ENERGY PREDICTED BY IDOCK:   -5.79 KCAL/MOL
REMARK 923 INTER-LIGAND FREE ENERGY PREDICTED BY IDOCK:   -6.84 KCAL/MOL
REMARK 924 INTRA-LIGAND FREE ENERGY PREDICTED BY IDOCK:    1.05 KCAL/MOL
REMARK 927      BINDING AFFINITY PREDICTED BY RF-SCORE:    0.00 PKD
ROOT
HETATM    1  C   UNL     1     -13.376  12.151  71.978  1.00  0.00    -0.470 C  
HETATM    2  C   UNL     1     -13.583  13.485  71.264  1.00  0.00    -0.064 C  
ENDROOT
BRANCH   2   3
HETATM    3  C   UNL     1     -12.223  14.064  70.916  1.00  0.00    -0.436 C  
BRANCH   3   4
HETATM    4  C   UNL     1     -12.069  14.668  69.517  1.00  0.00    -0.295 C  
BRANCH   4   5
HETATM    5  S   UNL     1     -11.164  16.211  69.763  1.00  0.00    -0.325 S  
HETATM    6  O   UNL     1     -11.397  17.068  68.624  1.00  0.00    -0.134 OA 
HETATM    7  O   UNL     1     -11.437  16.642  71.112  1.00  0.00    -0.238 OA 
BRANCH   5   8
HETATM    8  N   UNL     1      -9.513  15.808  69.678  1.00  0.00    -0.260 N  
HETATM    9  H   UNL     1      -8.892  15.733  70.484  1.00  0.00     0.000 HD 
BRANCH   8  10
HETATM   10  C   UNL     1      -9.082  15.571  68.211  1.00  0.00    -0.186 C  
HETATM   11  C   UNL     1      -8.176  16.718  67.760  1.00  0.00    -0.183 C  
HETATM   12  O   UNL     1      -7.345  16.634  66.868  1.00  0.00    -0.178 OA 
HETATM   13  O   UNL     1      -8.385  17.862  68.461  1.00  0.00    -0.295 OA 
BRANCH  10  14
HETATM   14  C   UNL     1     -10.235  15.400  67.204  1.00  0.00    -0.251 C  
BRANCH  14  15
HETATM   15  C   UNL     1     -10.471  13.976  66.769  1.00  0.00    -0.277 A  
HETATM   16  C   UNL     1      -9.550  13.005  67.178  1.00  0.00    -0.230 A  
HETATM   17  C   UNL     1      -9.578  11.732  66.615  1.00  0.00    -0.219 A  
HETATM   18  C   UNL     1     -10.510  11.413  65.625  1.00  0.00    -0.262 A  
HETATM   19  C   UNL     1     -11.511  13.596  65.908  1.00  0.00    -0.329 A  
HETATM   20  C   UNL     1     -11.518  12.327  65.323  1.00  0.00    -0.399 A  
BRANCH  18  21
HETATM   21  O   UNL     1     -10.500  10.256  64.887  1.00  0.00    -0.212 OA 
BRANCH  21  22
HETATM   22  C   UNL     1      -9.187   9.791  64.566  1.00  0.00    -0.253 C  
BRANCH  22  23
HETATM   23  C   UNL     1      -8.679   8.810  65.608  1.00  0.00    -0.215 C  
BRANCH  23  24
HETATM   24  C   UNL     1      -9.745   8.372  66.622  1.00  0.00    -0.320 C  
BRANCH  24  25
HETATM   25  C   UNL     1      -9.802   6.841  66.642  1.00  0.00    -0.214 C  
BRANCH  25  26
HETATM   26  C   UNL     1      -8.736   6.106  65.808  1.00  0.00    -0.151 C  
HETATM   27  C   UNL     1      -7.779   5.358  66.756  1.00  0.00    -0.100 C  
HETATM   28  C   UNL     1      -8.386   4.059  67.285  1.00  0.00    -0.099 C  
HETATM   29  N   UNL     1      -8.719   3.172  66.175  1.00  0.00    -0.124 NA 
HETATM   30  H   UNL     1      -9.014   2.253  66.504  1.00  0.00     0.000 HD 
HETATM   31  C   UNL     1      -9.722   3.778  65.300  1.00  0.00    -0.167 C  
HETATM   32  C   UNL     1      -9.277   5.134  64.747  1.00  0.00     0.051 C  
ENDBRANCH  25  26
ENDBRANCH  24  25
ENDBRANCH  23  24
ENDBRANCH  22  23
ENDBRANCH  21  22
ENDBRANCH  18  21
ENDBRANCH  14  15
ENDBRANCH  10  14
ENDBRANCH   8  10
ENDBRANCH   5   8
ENDBRANCH   4   5
ENDBRANCH   3   4
ENDBRANCH   2   3
TORSDOF 13
ENDMDL
MODEL      321
REMARK 921   NORMALIZED FREE ENERGY PREDICTED BY IDOCK:   -1.74 KCAL/MOL
REMARK 922        TOTAL FREE ENERGY PREDICTED BY IDOCK:   -5.60 KCAL/MOL
REMARK 923 INTER-LIGAND FREE ENERGY PREDICTED BY IDOCK:   -5.29 KCAL/MOL
REMARK 924 INTRA-LIGAND FREE ENERGY PREDICTED BY IDOCK:   -0.30 KCAL/MOL
REMARK 927      BINDING AFFINITY PREDICTED BY RF-SCORE:    0.00 PKD
ROOT
HETATM    1  C   UNL     1     -10.411   1.836  72.545  1.00  0.00    -0.226 C  
HETATM    2  C   UNL     1      -9.238   2.784  72.789  1.00  0.00    -0.122 C  
ENDROOT
BRANCH   2   3
HETATM    3  C   UNL     1      -9.786   4.125  73.244  1.00  0.00    -0.151 C  
BRANCH   3   4
HETATM    4  C   UNL     1     -10.794   4.808  72.314  1.00  0.00    -0.061 C  
BRANCH   4   5
HETATM    5  S   UNL     1      -9.801   5.542  70.996  1.00  0.00    -0.191 S  
HETATM    6  O   UNL     1      -8.464   5.002  71.071  1.00  0.00    -0.113 OA 
HETATM    7  O   UNL     1     -10.590   5.464  69.790  1.00  0.00    -0.309 OA 
BRANCH   5   8
HETATM    8  N   UNL     1      -9.633   7.188  71.392  1.00  0.00    -0.162 N  
HETATM    9  H   UNL     1     -10.411   7.827  71.559  1.00  0.00     0.000 HD 
BRANCH   8  10
HETATM   10  C   UNL     1      -8.139   7.583  71.466  1.00  0.00    -0.099 C  
HETATM   11  C   UNL     1      -7.751   7.815  72.927  1.00  0.00    -0.108 C  
HETATM   12  O   UNL     1      -6.615   7.708  73.366  1.00  0.00    -0.064 OA 
HETATM   13  O   UNL     1      -8.808   8.155  73.706  1.00  0.00    -0.263 OA 
BRANCH  10  14
HETATM   14  C   UNL     1      -7.739   8.810  70.626  1.00  0.00    -0.096 C  
BRANCH  14  15
HETATM   15  C   UNL     1      -8.773   9.232  69.612  1.00  0.00    -0.155 A  
HETATM   16  C   UNL     1      -8.369   9.359  68.279  1.00  0.00    -0.119 A  
HETATM   17  C   UNL     1      -9.204   9.971  67.349  1.00  0.00    -0.153 A  
HETATM   18  C   UNL     1     -10.446  10.479  67.736  1.00  0.00    -0.224 A  
HETATM   19  C   UNL     1     -10.087   9.583  69.954  1.00  0.00    -0.262 A  
HETATM   20  C   UNL     1     -10.912  10.224  69.025  1.00  0.00    -0.274 A  
BRANCH  18  21
HETATM   21  O   UNL     1     -11.255  11.254  66.943  1.00  0.00    -0.298 OA 
BRANCH  21  22
HETATM   22  C   UNL     1     -11.221  12.644  67.273  1.00  0.00    -0.298 C  
BRANCH  22  23
HETATM   23  C   UNL     1     -10.546  13.455  66.180  1.00  0.00    -0.294 C  
BRANCH  23  24
HETATM   24  C   UNL     1      -9.013  13.381  66.207  1.00  0.00     0.109 C  
BRANCH  24  25
HETATM   25  C   UNL     1      -8.460  14.779  66.498  1.00  0.00     0.024 C  
BRANCH  25  26
HETATM   26  C   UNL     1      -9.493  15.860  66.867  1.00  0.00    -0.242 C  
HETATM   27  C   UNL     1      -9.338  16.221  68.357  1.00  0.00    -0.210 C  
HETATM   28  C   UNL     1      -8.149  17.148  68.606  1.00  0.00    -0.264 C  
HETATM   29  N   UNL     1      -8.309  18.385  67.848  1.00  0.00    -0.256 NA 
HETATM   30  H   UNL     1      -7.592  19.069  68.090  1.00  0.00     0.000 HD 
HETATM   31  C   UNL     1      -8.340  18.121  66.410  1.00  0.00    -0.245 C  
HETATM   32  C   UNL     1      -9.447  17.141  66.017  1.00  0.00    -0.167 C  
ENDBRANCH  25  26
ENDBRANCH  24  25
ENDBRANCH  23  24
ENDBRANCH  22  23
ENDBRANCH  21  22
ENDBRANCH  18  21
ENDBRANCH  14  15
ENDBRANCH  10  14
ENDBRANCH   8  10
ENDBRANCH   5   8
ENDBRANCH   4   5
ENDBRANCH   3   4
ENDBRANCH   2   3
TORSDOF 13
ENDMDL
MODEL      322
REMARK 921   NORMALIZED FREE ENERGY PREDICTED BY IDOCK:   -1.70 KCAL/MOL
REMARK 922        TOTAL FREE ENERGY PREDICTED BY IDOCK:   -5.54 KCAL/MOL
REMARK 923 INTER-LIGAND FREE ENERGY PREDICTED BY IDOCK:   -4.35 KCAL/MOL
REMARK 924 INTRA-LIGAND FREE ENERGY PREDICTED BY IDOCK:   -1.18 KCAL/MOL
REMARK 927      BINDING AFFINITY PREDICTED BY RF-SCORE:    0.00 PKD
ROOT
HETATM    1  C   UNL     1      -8.782   7.264  71.685  1.00  0.00    -0.122 C  
HETATM    2  C   UNL     1      -8.742   7.165  70.162  1.00  0.00    -0.141 C  
ENDROOT
BRANCH   2   3
HETATM    3  C   UNL     1      -9.792   6.163  69.715  1.00  0.00    -0.199 C  
BRANCH   3   4
HETATM    4  C   UNL     1      -9.878   4.855  70.508  1.00  0.00    -0.227 C  
BRANCH   4   5
HETATM    5  S   UNL     1      -8.661   3.758  69.749  1.00  0.00    -0.084 S  
HETATM    6  O   UNL     1      -7.387   3.964  70.397  1.00  0.00    -0.041 OA 
HETATM    7  O   UNL     1      -9.274   2.454  69.665  1.00  0.00    -0.109 OA 
BRANCH   5   8
HETATM    8  N   UNL     1      -8.441   4.325  68.159  1.00  0.00    -0.093 N  
HETATM    9  H   UNL     1      -7.736   5.007  67.880  1.00  0.00     0.000 HD 
BRANCH   8  10
HETATM   10  C   UNL     1      -9.457   3.665  67.197  1.00  0.00    -0.194 C  
HETATM   11  C   UNL     1      -8.748   2.583  66.381  1.00  0.00    -0.123 C  
HETATM   12  O   UNL     1      -9.305   1.619  65.879  1.00  0.00    -0.029 OA 
HETATM   13  O   UNL     1      -7.413   2.799  66.266  1.00  0.00    -0.072 OA 
BRANCH  10  14
HETATM   14  C   UNL     1     -10.190   4.630  66.247  1.00  0.00    -0.306 C  
BRANCH  14  15
HETATM   15  C   UNL     1      -9.605   6.019  66.203  1.00  0.00    -0.091 A  
HETATM   16  C   UNL     1      -8.225   6.143  66.016  1.00  0.00    -0.127 A  
HETATM   17  C   UNL     1      -7.599   7.372  66.207  1.00  0.00    -0.088 A  
HETATM   18  C   UNL     1      -8.337   8.490  66.603  1.00  0.00    -0.112 A  
HETATM   19  C   UNL     1     -10.361   7.180  66.426  1.00  0.00     0.061 A  
HETATM   20  C   UNL     1      -9.728   8.406  66.646  1.00  0.00    -0.320 A  
BRANCH  18  21
HETATM   21  O   UNL     1      -7.791   9.689  66.990  1.00  0.00    -0.098 OA 
BRANCH  21  22
HETATM   22  C   UNL     1      -7.721  10.654  65.939  1.00  0.00    -0.146 C  
BRANCH  22  23
HETATM   23  C   UNL     1      -8.423  11.944  66.326  1.00  0.00     0.031 C  
BRANCH  23  24
HETATM   24  C   UNL     1      -8.501  12.180  67.841  1.00  0.00    -0.163 C  
BRANCH  24  25
HETATM   25  C   UNL     1      -8.863  13.647  68.090  1.00  0.00    -0.189 C  
BRANCH  25  26
HETATM   26  C   UNL     1      -8.542  14.634  66.953  1.00  0.00    -0.233 C  
HETATM   27  C   UNL     1      -9.765  15.537  66.705  1.00  0.00    -0.264 C  
HETATM   28  C   UNL     1      -9.887  16.646  67.749  1.00  0.00    -0.252 C  
HETATM   29  N   UNL     1      -8.690  17.481  67.737  1.00  0.00    -0.227 NA 
HETATM   30  H   UNL     1      -8.796  18.298  68.339  1.00  0.00     0.000 HD 
HETATM   31  C   UNL     1      -7.502  16.703  68.088  1.00  0.00    -0.168 C  
HETATM   32  C   UNL     1      -7.291  15.504  67.161  1.00  0.00    -0.226 C  
ENDBRANCH  25  26
ENDBRANCH  24  25
ENDBRANCH  23  24
ENDBRANCH  22  23
ENDBRANCH  21  22
ENDBRANCH  18  21
ENDBRANCH  14  15
ENDBRANCH  10  14
ENDBRANCH   8  10
ENDBRANCH   5   8
ENDBRANCH   4   5
ENDBRANCH   3   4
ENDBRANCH   2   3
TORSDOF 13
ENDMDL
MODEL      323
REMARK 921   NORMALIZED FREE ENERGY PREDICTED BY IDOCK:   -1.41 KCAL/MOL
REMARK 922        TOTAL FREE ENERGY PREDICTED BY IDOCK:   -5.03 KCAL/MOL
REMARK 923 INTER-LIGAND FREE ENERGY PREDICTED BY IDOCK:   -6.46 KCAL/MOL
REMARK 924 INTRA-LIGAND FREE ENERGY PREDICTED BY IDOCK:    1.44 KCAL/MOL
REMARK 927      BINDING AFFINITY PREDICTED BY RF-SCORE:    0.00 PKD
ROOT
HETATM    1  C   UNL     1      -5.750   8.982  73.866  1.00  0.00    -0.098 C  
HETATM    2  C   UNL     1      -5.281   7.684  74.519  1.00  0.00    -0.065 C  
ENDROOT
BRANCH   2   3
HETATM    3  C   UNL     1      -5.659   6.523  73.615  1.00  0.00    -0.046 C  
BRANCH   3   4
HETATM    4  C   UNL     1      -6.355   5.332  74.280  1.00  0.00    -0.068 C  
BRANCH   4   5
HETATM    5  S   UNL     1      -8.058   5.381  73.679  1.00  0.00    -0.113 S  
HETATM    6  O   UNL     1      -8.036   5.565  72.247  1.00  0.00    -0.105 OA 
HETATM    7  O   UNL     1      -8.748   4.275  74.297  1.00  0.00    -0.096 OA 
BRANCH   5   8
HETATM    8  N   UNL     1      -8.734   6.816  74.296  1.00  0.00    -0.150 N  
HETATM    9  H   UNL     1      -8.693   7.103  75.274  1.00  0.00     0.000 HD 
BRANCH   8  10
HETATM   10  C   UNL     1      -9.420   7.625  73.170  1.00  0.00    -0.243 C  
HETATM   11  C   UNL     1     -10.896   7.231  73.093  1.00  0.00    -0.357 C  
HETATM   12  O   UNL     1     -11.780   7.948  72.649  1.00  0.00    -0.370 OA 
HETATM   13  O   UNL     1     -11.134   5.986  73.576  1.00  0.00    -0.187 OA 
BRANCH  10  14
HETATM   14  C   UNL     1      -8.778   7.492  71.776  1.00  0.00    -0.128 C  
BRANCH  14  15
HETATM   15  C   UNL     1      -9.564   8.144  70.667  1.00  0.00    -0.179 A  
HETATM   16  C   UNL     1     -10.133   7.316  69.693  1.00  0.00    -0.195 A  
HETATM   17  C   UNL     1     -10.657   7.864  68.526  1.00  0.00    -0.146 A  
HETATM   18  C   UNL     1     -10.606   9.242  68.304  1.00  0.00    -0.189 A  
HETATM   19  C   UNL     1      -9.676   9.534  70.517  1.00  0.00    -0.325 A  
HETATM   20  C   UNL     1     -10.176  10.080  69.332  1.00  0.00    -0.239 A  
BRANCH  18  21
HETATM   21  O   UNL     1     -10.927   9.854  67.118  1.00  0.00    -0.218 OA 
BRANCH  21  22
HETATM   22  C   UNL     1     -10.138   9.412  66.012  1.00  0.00    -0.231 C  
BRANCH  22  23
HETATM   23  C   UNL     1      -9.289  10.540  65.452  1.00  0.00    -0.255 C  
BRANCH  23  24
HETATM   24  C   UNL     1      -9.855  11.940  65.727  1.00  0.00    -0.262 C  
BRANCH  24  25
HETATM   25  C   UNL     1      -8.963  12.634  66.761  1.00  0.00    -0.197 C  
BRANCH  25  26
HETATM   26  C   UNL     1      -9.514  13.934  67.376  1.00  0.00    -0.226 C  
HETATM   27  C   UNL     1     -10.354  14.678  66.321  1.00  0.00    -0.301 C  
HETATM   28  C   UNL     1     -11.745  14.066  66.153  1.00  0.00    -0.384 C  
HETATM   29  N   UNL     1     -12.465  14.102  67.422  1.00  0.00    -0.510 NA 
HETATM   30  H   UNL     1     -13.437  13.811  67.310  1.00  0.00     0.000 HD 
HETATM   31  C   UNL     1     -11.778  13.307  68.439  1.00  0.00    -0.354 C  
HETATM   32  C   UNL     1     -10.335  13.764  68.665  1.00  0.00    -0.225 C  
ENDBRANCH  25  26
ENDBRANCH  24  25
ENDBRANCH  23  24
ENDBRANCH  22  23
ENDBRANCH  21  22
ENDBRANCH  18  21
ENDBRANCH  14  15
ENDBRANCH  10  14
ENDBRANCH   8  10
ENDBRANCH   5   8
ENDBRANCH   4   5
ENDBRANCH   3   4
ENDBRANCH   2   3
TORSDOF 13
ENDMDL
MODEL      324
REMARK 921   NORMALIZED FREE ENERGY PREDICTED BY IDOCK:   -1.18 KCAL/MOL
REMARK 922        TOTAL FREE ENERGY PREDICTED BY IDOCK:   -4.62 KCAL/MOL
REMARK 923 INTER-LIGAND FREE ENERGY PREDICTED BY IDOCK:   -4.78 KCAL/MOL
REMARK 924 INTRA-LIGAND FREE ENERGY PREDICTED BY IDOCK:    0.16 KCAL/MOL
REMARK 927      BINDING AFFINITY PREDICTED BY RF-SCORE:    0.00 PKD
ROOT
HETATM    1  C   UNL     1     -10.384   1.747  72.565  1.00  0.00    -0.226 C  
HETATM    2  C   UNL     1      -9.205   2.670  72.860  1.00  0.00    -0.116 C  
ENDROOT
BRANCH   2   3
HETATM    3  C   UNL     1      -9.744   4.017  73.309  1.00  0.00    -0.151 C  
BRANCH   3   4
HETATM    4  C   UNL     1     -10.709   4.725  72.353  1.00  0.00    -0.149 C  
BRANCH   4   5
HETATM    5  S   UNL     1      -9.717   5.146  70.904  1.00  0.00    -0.201 S  
HETATM    6  O   UNL     1      -8.478   4.406  70.963  1.00  0.00    -0.086 OA 
HETATM    7  O   UNL     1     -10.598   5.071  69.763  1.00  0.00    -0.222 OA 
BRANCH   5   8
HETATM    8  N   UNL     1      -9.265   6.774  71.097  1.00  0.00    -0.159 N  
HETATM    9  H   UNL     1      -9.913   7.536  71.299  1.00  0.00     0.000 HD 
BRANCH   8  10
HETATM   10  C   UNL     1      -7.736   6.942  70.926  1.00  0.00    -0.092 C  
HETATM   11  C   UNL     1      -7.114   7.299  72.277  1.00  0.00    -0.067 C  
HETATM   12  O   UNL     1      -5.952   7.077  72.583  1.00  0.00    -0.041 OA 
HETATM   13  O   UNL     1      -7.993   7.895  73.121  1.00  0.00    -0.124 OA 
BRANCH  10  14
HETATM   14  C   UNL     1      -7.300   7.974  69.869  1.00  0.00    -0.066 C  
BRANCH  14  15
HETATM   15  C   UNL     1      -8.356   8.292  68.840  1.00  0.00    -0.127 A  
HETATM   16  C   UNL     1      -7.940   8.514  67.523  1.00  0.00    -0.106 A  
HETATM   17  C   UNL     1      -8.826   9.044  66.589  1.00  0.00    -0.152 A  
HETATM   18  C   UNL     1     -10.132   9.375  66.957  1.00  0.00    -0.240 A  
HETATM   19  C   UNL     1      -9.712   8.460  69.155  1.00  0.00    -0.171 A  
HETATM   20  C   UNL     1     -10.591   9.019  68.224  1.00  0.00    -0.213 A  
BRANCH  18  21
HETATM   21  O   UNL     1     -11.015  10.065  66.165  1.00  0.00     0.134 OA 
BRANCH  21  22
HETATM   22  C   UNL     1     -11.271  11.396  66.615  1.00  0.00    -0.231 C  
BRANCH  22  23
HETATM   23  C   UNL     1     -10.616  12.423  65.707  1.00  0.00    -0.288 C  
BRANCH  23  24
HETATM   24  C   UNL     1      -9.373  13.088  66.315  1.00  0.00    -0.149 C  
BRANCH  24  25
HETATM   25  C   UNL     1      -9.714  14.541  66.657  1.00  0.00    -0.285 C  
BRANCH  25  26
HETATM   26  C   UNL     1      -9.580  14.945  68.137  1.00  0.00    -0.210 C  
HETATM   27  C   UNL     1     -10.388  16.233  68.385  1.00  0.00    -0.271 C  
HETATM   28  C   UNL     1     -11.887  15.962  68.504  1.00  0.00    -0.188 C  
HETATM   29  N   UNL     1     -12.145  15.039  69.605  1.00  0.00    -0.414 NA 
HETATM   30  H   UNL     1     -13.144  14.935  69.783  1.00  0.00     0.000 HD 
HETATM   31  C   UNL     1     -11.502  13.747  69.370  1.00  0.00    -0.286 C  
HETATM   32  C   UNL     1      -9.992  13.872  69.159  1.00  0.00     0.111 C  
ENDBRANCH  25  26
ENDBRANCH  24  25
ENDBRANCH  23  24
ENDBRANCH  22  23
ENDBRANCH  21  22
ENDBRANCH  18  21
ENDBRANCH  14  15
ENDBRANCH  10  14
ENDBRANCH   8  10
ENDBRANCH   5   8
ENDBRANCH   4   5
ENDBRANCH   3   4
ENDBRANCH   2   3
TORSDOF 13
ENDMDL
MODEL      325
REMARK 921   NORMALIZED FREE ENERGY PREDICTED BY IDOCK:   -1.10 KCAL/MOL
REMARK 922        TOTAL FREE ENERGY PREDICTED BY IDOCK:   -4.49 KCAL/MOL
REMARK 923 INTER-LIGAND FREE ENERGY PREDICTED BY IDOCK:   -4.11 KCAL/MOL
REMARK 924 INTRA-LIGAND FREE ENERGY PREDICTED BY IDOCK:   -0.38 KCAL/MOL
REMARK 927      BINDING AFFINITY PREDICTED BY RF-SCORE:    0.00 PKD
ROOT
HETATM    1  C   UNL     1     -12.310  11.553  69.692  1.00  0.00    -0.207 C  
HETATM    2  C   UNL     1     -12.569  10.440  70.705  1.00  0.00    -0.435 C  
ENDROOT
BRANCH   2   3
HETATM    3  C   UNL     1     -11.234   9.952  71.240  1.00  0.00    -0.356 C  
BRANCH   3   4
HETATM    4  C   UNL     1     -10.805   8.539  70.833  1.00  0.00    -0.232 C  
BRANCH   4   5
HETATM    5  S   UNL     1      -9.764   8.761  69.374  1.00  0.00    -0.176 S  
HETATM    6  O   UNL     1     -10.418   8.142  68.244  1.00  0.00    -0.204 OA 
HETATM    7  O   UNL     1      -9.361  10.146  69.359  1.00  0.00    -0.201 OA 
BRANCH   5   8
HETATM    8  N   UNL     1      -8.370   7.824  69.641  1.00  0.00    -0.127 N  
HETATM    9  H   UNL     1      -8.365   6.904  70.082  1.00  0.00     0.000 HD 
BRANCH   8  10
HETATM   10  C   UNL     1      -7.110   8.557  69.122  1.00  0.00    -0.064 C  
HETATM   11  C   UNL     1      -6.333   9.126  70.310  1.00  0.00    -0.047 C  
HETATM   12  O   UNL     1      -5.134   9.361  70.304  1.00  0.00    -0.027 OA 
HETATM   13  O   UNL     1      -7.117   9.347  71.396  1.00  0.00    -0.307 OA 
BRANCH  10  14
HETATM   14  C   UNL     1      -7.373   9.675  68.096  1.00  0.00    -0.081 C  
BRANCH  14  15
HETATM   15  C   UNL     1      -7.128   9.271  66.664  1.00  0.00    -0.082 A  
HETATM   16  C   UNL     1      -8.217   9.277  65.786  1.00  0.00    -0.117 A  
HETATM   17  C   UNL     1      -8.107   8.689  64.529  1.00  0.00    -0.162 A  
HETATM   18  C   UNL     1      -6.917   8.074  64.134  1.00  0.00    -0.070 A  
HETATM   19  C   UNL     1      -5.888   8.811  66.195  1.00  0.00    -0.047 A  
HETATM   20  C   UNL     1      -5.789   8.196  64.944  1.00  0.00    -0.045 A  
BRANCH  18  21
HETATM   21  O   UNL     1      -6.769   7.316  63.000  1.00  0.00    -0.052 OA 
BRANCH  21  22
HETATM   22  C   UNL     1      -7.984   6.716  62.547  1.00  0.00    -0.102 C  
BRANCH  22  23
HETATM   23  C   UNL     1      -8.040   5.241  62.909  1.00  0.00    -0.102 C  
BRANCH  23  24
HETATM   24  C   UNL     1      -7.250   4.881  64.175  1.00  0.00    -0.051 C  
BRANCH  24  25
HETATM   25  C   UNL     1      -7.668   3.480  64.630  1.00  0.00    -0.077 C  
BRANCH  25  26
HETATM   26  C   UNL     1      -7.764   3.255  66.150  1.00  0.00    -0.078 C  
HETATM   27  C   UNL     1      -6.957   4.349  66.876  1.00  0.00    -0.063 C  
HETATM   28  C   UNL     1      -7.709   5.678  66.937  1.00  0.00    -0.100 C  
HETATM   29  N   UNL     1      -8.979   5.505  67.635  1.00  0.00    -0.109 NA 
HETATM   30  H   UNL     1      -9.444   6.399  67.796  1.00  0.00     0.000 HD 
HETATM   31  C   UNL     1      -9.846   4.565  66.925  1.00  0.00    -0.213 C  
HETATM   32  C   UNL     1      -9.189   3.197  66.725  1.00  0.00    -0.175 C  
ENDBRANCH  25  26
ENDBRANCH  24  25
ENDBRANCH  23  24
ENDBRANCH  22  23
ENDBRANCH  21  22
ENDBRANCH  18  21
ENDBRANCH  14  15
ENDBRANCH  10  14
ENDBRANCH   8  10
ENDBRANCH   5   8
ENDBRANCH   4   5
ENDBRANCH   3   4
ENDBRANCH   2   3
TORSDOF 13
ENDMDL
MODEL      326
REMARK 921   NORMALIZED FREE ENERGY PREDICTED BY IDOCK:   -1.02 KCAL/MOL
REMARK 922        TOTAL FREE ENERGY PREDICTED BY IDOCK:   -4.34 KCAL/MOL
REMARK 923 INTER-LIGAND FREE ENERGY PREDICTED BY IDOCK:   -4.30 KCAL/MOL
REMARK 924 INTRA-LIGAND FREE ENERGY PREDICTED BY IDOCK:   -0.04 KCAL/MOL
REMARK 927      BINDING AFFINITY PREDICTED BY RF-SCORE:    0.00 PKD
ROOT
HETATM    1  C   UNL     1      -7.531  19.676  69.304  1.00  0.00    -0.250 C  
HETATM    2  C   UNL     1      -6.788  18.968  68.174  1.00  0.00    -0.268 C  
ENDROOT
BRANCH   2   3
HETATM    3  C   UNL     1      -7.605  17.766  67.735  1.00  0.00    -0.213 C  
BRANCH   3   4
HETATM    4  C   UNL     1      -6.953  16.390  67.909  1.00  0.00    -0.139 C  
BRANCH   4   5
HETATM    5  S   UNL     1      -8.195  15.379  68.743  1.00  0.00    -0.188 S  
HETATM    6  O   UNL     1      -7.628  14.874  69.972  1.00  0.00    -0.064 OA 
HETATM    7  O   UNL     1      -9.426  16.132  68.722  1.00  0.00    -0.210 OA 
BRANCH   5   8
HETATM    8  N   UNL     1      -8.418  14.004  67.766  1.00  0.00    -0.171 N  
HETATM    9  H   UNL     1      -8.071  13.908  66.811  1.00  0.00     0.000 HD 
BRANCH   8  10
HETATM   10  C   UNL     1      -9.219  12.918  68.523  1.00  0.00    -0.062 C  
HETATM   11  C   UNL     1      -8.314  11.714  68.784  1.00  0.00    -0.039 C  
HETATM   12  O   UNL     1      -8.474  10.912  69.691  1.00  0.00     0.084 OA 
HETATM   13  O   UNL     1      -7.293  11.619  67.894  1.00  0.00    -0.086 OA 
BRANCH  10  14
HETATM   14  C   UNL     1     -10.513  12.450  67.832  1.00  0.00    -0.227 C  
BRANCH  14  15
HETATM   15  C   UNL     1     -10.366  11.176  67.039  1.00  0.00    -0.263 A  
HETATM   16  C   UNL     1     -11.063  10.046  67.481  1.00  0.00    -0.190 A  
HETATM   17  C   UNL     1     -10.781   8.794  66.941  1.00  0.00    -0.151 A  
HETATM   18  C   UNL     1      -9.792   8.648  65.966  1.00  0.00    -0.113 A  
HETATM   19  C   UNL     1      -9.504  11.048  65.940  1.00  0.00    -0.244 A  
HETATM   20  C   UNL     1      -9.202   9.787  65.420  1.00  0.00    -0.282 A  
BRANCH  18  21
HETATM   21  O   UNL     1      -9.319   7.443  65.509  1.00  0.00     0.188 OA 
BRANCH  21  22
HETATM   22  C   UNL     1      -8.425   6.795  66.417  1.00  0.00    -0.126 C  
BRANCH  22  23
HETATM   23  C   UNL     1      -8.252   7.602  67.692  1.00  0.00    -0.121 C  
BRANCH  23  24
HETATM   24  C   UNL     1      -7.964   6.749  68.934  1.00  0.00    -0.116 C  
BRANCH  24  25
HETATM   25  C   UNL     1      -9.292   6.429  69.627  1.00  0.00    -0.148 C  
BRANCH  25  26
HETATM   26  C   UNL     1      -9.563   7.158  70.956  1.00  0.00    -0.158 C  
HETATM   27  C   UNL     1     -10.513   6.304  71.818  1.00  0.00    -0.249 C  
HETATM   28  C   UNL     1      -9.788   5.146  72.502  1.00  0.00    -0.160 C  
HETATM   29  N   UNL     1      -8.723   5.656  73.360  1.00  0.00    -0.118 NA 
HETATM   30  H   UNL     1      -8.303   4.913  73.919  1.00  0.00     0.000 HD 
HETATM   31  C   UNL     1      -7.718   6.376  72.579  1.00  0.00    -0.101 C  
HETATM   32  C   UNL     1      -8.317   7.533  71.775  1.00  0.00    -0.116 C  
ENDBRANCH  25  26
ENDBRANCH  24  25
ENDBRANCH  23  24
ENDBRANCH  22  23
ENDBRANCH  21  22
ENDBRANCH  18  21
ENDBRANCH  14  15
ENDBRANCH  10  14
ENDBRANCH   8  10
ENDBRANCH   5   8
ENDBRANCH   4   5
ENDBRANCH   3   4
ENDBRANCH   2   3
TORSDOF 13
ENDMDL
MODEL      327
REMARK 921   NORMALIZED FREE ENERGY PREDICTED BY IDOCK:   -0.11 KCAL/MOL
REMARK 922        TOTAL FREE ENERGY PREDICTED BY IDOCK:   -2.74 KCAL/MOL
REMARK 923 INTER-LIGAND FREE ENERGY PREDICTED BY IDOCK:   -3.68 KCAL/MOL
REMARK 924 INTRA-LIGAND FREE ENERGY PREDICTED BY IDOCK:    0.95 KCAL/MOL
REMARK 927      BINDING AFFINITY PREDICTED BY RF-SCORE:    0.00 PKD
ROOT
HETATM    1  C   UNL     1     -12.970  11.348  70.795  1.00  0.00    -0.135 C  
HETATM    2  C   UNL     1     -11.991  12.418  70.317  1.00  0.00    -0.371 C  
ENDROOT
BRANCH   2   3
HETATM    3  C   UNL     1     -11.044  11.791  69.308  1.00  0.00    -0.278 C  
BRANCH   3   4
HETATM    4  C   UNL     1      -9.778  12.583  68.967  1.00  0.00     0.334 C  
BRANCH   4   5
HETATM    5  S   UNL     1      -8.801  11.486  67.917  1.00  0.00    -0.158 S  
HETATM    6  O   UNL     1      -7.477  11.367  68.482  1.00  0.00    -0.098 OA 
HETATM    7  O   UNL     1      -9.622  10.331  67.646  1.00  0.00    -0.150 OA 
BRANCH   5   8
HETATM    8  N   UNL     1      -8.577  12.314  66.448  1.00  0.00    -0.403 N  
HETATM    9  H   UNL     1      -8.025  13.166  66.340  1.00  0.00     0.000 HD 
BRANCH   8  10
HETATM   10  C   UNL     1      -9.326  11.600  65.298  1.00  0.00    -0.096 C  
HETATM   11  C   UNL     1     -10.644  12.326  65.027  1.00  0.00    -0.287 C  
HETATM   12  O   UNL     1     -11.238  12.306  63.959  1.00  0.00    -0.330 OA 
HETATM   13  O   UNL     1     -11.101  13.009  66.107  1.00  0.00    -0.280 OA 
BRANCH  10  14
HETATM   14  C   UNL     1      -9.599  10.100  65.520  1.00  0.00    -0.310 C  
BRANCH  14  15
HETATM   15  C   UNL     1      -8.532   9.188  64.971  1.00  0.00    -0.187 A  
HETATM   16  C   UNL     1      -8.516   8.954  63.591  1.00  0.00    -0.145 A  
HETATM   17  C   UNL     1      -7.719   7.944  63.061  1.00  0.00    -0.132 A  
HETATM   18  C   UNL     1      -6.939   7.142  63.897  1.00  0.00    -0.057 A  
HETATM   19  C   UNL     1      -7.616   8.499  65.780  1.00  0.00    -0.085 A  
HETATM   20  C   UNL     1      -6.839   7.467  65.249  1.00  0.00    -0.048 A  
BRANCH  18  21
HETATM   21  O   UNL     1      -6.267   6.015  63.495  1.00  0.00    -0.024 OA 
BRANCH  21  22
HETATM   22  C   UNL     1      -7.020   4.810  63.653  1.00  0.00    -0.048 C  
BRANCH  22  23
HETATM   23  C   UNL     1      -6.125   3.647  64.044  1.00  0.00    -0.018 C  
BRANCH  23  24
HETATM   24  C   UNL     1      -6.692   2.779  65.176  1.00  0.00    -0.040 C  
BRANCH  24  25
HETATM   25  C   UNL     1      -6.558   3.545  66.495  1.00  0.00    -0.041 C  
BRANCH  25  26
HETATM   26  C   UNL     1      -7.707   3.375  67.506  1.00  0.00    -0.077 C  
HETATM   27  C   UNL     1      -7.686   1.937  68.060  1.00  0.00    -0.054 C  
HETATM   28  C   UNL     1      -6.606   1.743  69.124  1.00  0.00    -0.029 C  
HETATM   29  N   UNL     1      -6.828   2.661  70.237  1.00  0.00    -0.033 NA 
HETATM   30  H   UNL     1      -6.194   2.469  71.013  1.00  0.00     0.000 HD 
HETATM   31  C   UNL     1      -6.737   4.052  69.797  1.00  0.00    -0.034 C  
HETATM   32  C   UNL     1      -7.722   4.377  68.671  1.00  0.00    -0.071 C  
ENDBRANCH  25  26
ENDBRANCH  24  25
ENDBRANCH  23  24
ENDBRANCH  22  23
ENDBRANCH  21  22
ENDBRANCH  18  21
ENDBRANCH  14  15
ENDBRANCH  10  14
ENDBRANCH   8  10
ENDBRANCH   5   8
ENDBRANCH   4   5
ENDBRANCH   3   4
ENDBRANCH   2   3
TORSDOF 13
ENDMDL
MODEL      328
REMARK 921   NORMALIZED FREE ENERGY PREDICTED BY IDOCK:    0.08 KCAL/MOL
REMARK 922        TOTAL FREE ENERGY PREDICTED BY IDOCK:   -2.41 KCAL/MOL
REMARK 923 INTER-LIGAND FREE ENERGY PREDICTED BY IDOCK:   -4.83 KCAL/MOL
REMARK 924 INTRA-LIGAND FREE ENERGY PREDICTED BY IDOCK:    2.42 KCAL/MOL
REMARK 927      BINDING AFFINITY PREDICTED BY RF-SCORE:    0.00 PKD
ROOT
HETATM    1  C   UNL     1      -9.622  15.577  70.863  1.00  0.00     1.559 C  
HETATM    2  C   UNL     1      -8.924  15.659  69.508  1.00  0.00    -0.231 C  
ENDROOT
BRANCH   2   3
HETATM    3  C   UNL     1      -9.499  14.585  68.601  1.00  0.00    -0.205 C  
BRANCH   3   4
HETATM    4  C   UNL     1     -10.576  15.028  67.606  1.00  0.00    -0.267 C  
BRANCH   4   5
HETATM    5  S   UNL     1      -9.673  15.760  66.224  1.00  0.00    -0.330 S  
HETATM    6  O   UNL     1     -10.107  17.128  66.063  1.00  0.00    -0.395 OA 
HETATM    7  O   UNL     1      -8.283  15.417  66.408  1.00  0.00    -0.172 OA 
BRANCH   5   8
HETATM    8  N   UNL     1     -10.218  14.959  64.826  1.00  0.00    -0.440 N  
HETATM    9  H   UNL     1     -10.378  15.409  63.924  1.00  0.00     0.000 HD 
BRANCH   8  10
HETATM   10  C   UNL     1     -10.438  13.454  65.108  1.00  0.00    -0.347 C  
HETATM   11  C   UNL     1     -11.922  13.204  65.382  1.00  0.00    -0.406 C  
HETATM   12  O   UNL     1     -12.487  12.134  65.210  1.00  0.00    -0.520 OA 
HETATM   13  O   UNL     1     -12.566  14.307  65.840  1.00  0.00    -0.450 OA 
BRANCH  10  14
HETATM   14  C   UNL     1      -9.597  12.868  66.257  1.00  0.00    -0.245 C  
BRANCH  14  15
HETATM   15  C   UNL     1      -9.958  11.452  66.631  1.00  0.00    -0.239 A  
HETATM   16  C   UNL     1     -10.353  11.203  67.949  1.00  0.00    -0.211 A  
HETATM   17  C   UNL     1     -10.462   9.895  68.412  1.00  0.00    -0.239 A  
HETATM   18  C   UNL     1     -10.164   8.818  67.575  1.00  0.00    -0.246 A  
HETATM   19  C   UNL     1      -9.832  10.368  65.749  1.00  0.00    -0.300 A  
HETATM   20  C   UNL     1      -9.914   9.056  66.224  1.00  0.00    -0.352 A  
BRANCH  18  21
HETATM   21  O   UNL     1     -10.066   7.512  67.987  1.00  0.00    -0.168 OA 
BRANCH  21  22
HETATM   22  C   UNL     1      -8.779   6.933  67.758  1.00  0.00    -0.120 C  
BRANCH  22  23
HETATM   23  C   UNL     1      -8.765   5.458  68.121  1.00  0.00    -0.105 C  
BRANCH  23  24
HETATM   24  C   UNL     1      -7.408   4.776  67.897  1.00  0.00    -0.070 C  
BRANCH  24  25
HETATM   25  C   UNL     1      -7.232   4.516  66.399  1.00  0.00    -0.076 C  
BRANCH  25  26
HETATM   26  C   UNL     1      -6.171   5.367  65.677  1.00  0.00    -0.034 C  
HETATM   27  C   UNL     1      -5.594   4.563  64.495  1.00  0.00    -0.014 C  
HETATM   28  C   UNL     1      -6.532   4.553  63.289  1.00  0.00    -0.026 C  
HETATM   29  N   UNL     1      -6.783   5.917  62.837  1.00  0.00    -0.038 NA 
HETATM   30  H   UNL     1      -7.308   5.932  61.962  1.00  0.00     0.000 HD 
HETATM   31  C   UNL     1      -7.447   6.703  63.877  1.00  0.00    -0.094 C  
HETATM   32  C   UNL     1      -6.648   6.743  65.181  1.00  0.00    -0.050 C  
ENDBRANCH  25  26
ENDBRANCH  24  25
ENDBRANCH  23  24
ENDBRANCH  22  23
ENDBRANCH  21  22
ENDBRANCH  18  21
ENDBRANCH  14  15
ENDBRANCH  10  14
ENDBRANCH   8  10
ENDBRANCH   5   8
ENDBRANCH   4   5
ENDBRANCH   3   4
ENDBRANCH   2   3
TORSDOF 13
ENDMDL
MODEL      329
REMARK 921   NORMALIZED FREE ENERGY PREDICTED BY IDOCK:    1.04 KCAL/MOL
REMARK 922        TOTAL FREE ENERGY PREDICTED BY IDOCK:   -0.71 KCAL/MOL
REMARK 923 INTER-LIGAND FREE ENERGY PREDICTED BY IDOCK:   -4.46 KCAL/MOL
REMARK 924 INTRA-LIGAND FREE ENERGY PREDICTED BY IDOCK:    3.75 KCAL/MOL
REMARK 927      BINDING AFFINITY PREDICTED BY RF-SCORE:    0.00 PKD
ROOT
HETATM    1  C   UNL     1      -9.086   9.997  64.063  1.00  0.00    -0.296 C  
HETATM    2  C   UNL     1      -8.798   8.583  64.562  1.00  0.00     0.119 C  
ENDROOT
BRANCH   2   3
HETATM    3  C   UNL     1      -7.293   8.397  64.646  1.00  0.00    -0.093 C  
BRANCH   3   4
HETATM    4  C   UNL     1      -6.507   9.475  65.399  1.00  0.00    -0.073 C  
BRANCH   4   5
HETATM    5  S   UNL     1      -7.607  10.027  66.721  1.00  0.00    -0.104 S  
HETATM    6  O   UNL     1      -8.420  11.110  66.221  1.00  0.00    -0.166 OA 
HETATM    7  O   UNL     1      -8.188   8.839  67.300  1.00  0.00    -0.104 OA 
BRANCH   5   8
HETATM    8  N   UNL     1      -6.607  10.737  67.901  1.00  0.00    -0.063 N  
HETATM    9  H   UNL     1      -5.646  11.039  67.741  1.00  0.00     0.000 HD 
BRANCH   8  10
HETATM   10  C   UNL     1      -7.356  10.860  69.250  1.00  0.00    -0.125 C  
HETATM   11  C   UNL     1      -6.764   9.863  70.247  1.00  0.00    -0.126 C  
HETATM   12  O   UNL     1      -6.808   9.991  71.461  1.00  0.00    -0.148 OA 
HETATM   13  O   UNL     1      -6.172   8.802  69.643  1.00  0.00    -0.035 OA 
BRANCH  10  14
HETATM   14  C   UNL     1      -8.882  10.672  69.177  1.00  0.00    -0.133 C  
BRANCH  14  15
HETATM   15  C   UNL     1      -9.640  11.908  68.761  1.00  0.00    -0.024 A  
HETATM   16  C   UNL     1     -10.665  11.762  67.821  1.00  0.00    -0.244 A  
HETATM   17  C   UNL     1     -11.232  12.884  67.223  1.00  0.00    -0.329 A  
HETATM   18  C   UNL     1     -10.775  14.165  67.541  1.00  0.00    -0.269 A  
HETATM   19  C   UNL     1      -9.311  13.198  69.204  1.00  0.00     0.608 A  
HETATM   20  C   UNL     1      -9.861  14.322  68.581  1.00  0.00    -0.228 A  
BRANCH  18  21
HETATM   21  O   UNL     1     -11.140  15.311  66.878  1.00  0.00    -0.321 OA 
BRANCH  21  22
HETATM   22  C   UNL     1     -10.769  15.318  65.498  1.00  0.00    -0.371 C  
BRANCH  22  23
HETATM   23  C   UNL     1     -10.981  16.688  64.877  1.00  0.00    -0.162 C  
BRANCH  23  24
HETATM   24  C   UNL     1     -10.746  17.854  65.847  1.00  0.00    -0.116 C  
BRANCH  24  25
HETATM   25  C   UNL     1      -9.665  17.445  66.851  1.00  0.00    -0.286 C  
BRANCH  25  26
HETATM   26  C   UNL     1      -8.679  18.547  67.282  1.00  0.00    -0.272 C  
HETATM   27  C   UNL     1      -7.643  17.949  68.253  1.00  0.00    -0.266 C  
HETATM   28  C   UNL     1      -6.564  17.147  67.526  1.00  0.00    -0.139 C  
HETATM   29  N   UNL     1      -5.861  18.001  66.574  1.00  0.00    -0.150 NA 
HETATM   30  H   UNL     1      -5.059  17.523  66.163  1.00  0.00     0.000 HD 
HETATM   31  C   UNL     1      -6.772  18.505  65.547  1.00  0.00    -0.235 C  
HETATM   32  C   UNL     1      -7.954  19.276  66.138  1.00  0.00    -0.306 C  
ENDBRANCH  25  26
ENDBRANCH  24  25
ENDBRANCH  23  24
ENDBRANCH  22  23
ENDBRANCH  21  22
ENDBRANCH  18  21
ENDBRANCH  14  15
ENDBRANCH  10  14
ENDBRANCH   8  10
ENDBRANCH   5   8
ENDBRANCH   4   5
ENDBRANCH   3   4
ENDBRANCH   2   3
TORSDOF 13
ENDMDL
MODEL      330
REMARK 921   NORMALIZED FREE ENERGY PREDICTED BY IDOCK:    2.11 KCAL/MOL
REMARK 922        TOTAL FREE ENERGY PREDICTED BY IDOCK:    1.16 KCAL/MOL
REMARK 923 INTER-LIGAND FREE ENERGY PREDICTED BY IDOCK:   -3.09 KCAL/MOL
REMARK 924 INTRA-LIGAND FREE ENERGY PREDICTED BY IDOCK:    4.26 KCAL/MOL
REMARK 927      BINDING AFFINITY PREDICTED BY RF-SCORE:    0.00 PKD
ROOT
HETATM    1  C   UNL     1      -8.911   9.519  63.232  1.00  0.00    -0.233 C  
HETATM    2  C   UNL     1      -8.735   8.003  63.264  1.00  0.00     0.435 C  
ENDROOT
BRANCH   2   3
HETATM    3  C   UNL     1      -7.281   7.678  62.971  1.00  0.00    -0.087 C  
BRANCH   3   4
HETATM    4  C   UNL     1      -6.227   8.480  63.741  1.00  0.00    -0.072 C  
BRANCH   4   5
HETATM    5  S   UNL     1      -6.980   8.833  65.345  1.00  0.00    -0.076 S  
HETATM    6  O   UNL     1      -7.732  10.062  65.240  1.00  0.00    -0.127 OA 
HETATM    7  O   UNL     1      -7.584   7.604  65.799  1.00  0.00    -0.082 OA 
BRANCH   5   8
HETATM    8  N   UNL     1      -5.695   9.194  66.400  1.00  0.00    -0.052 N  
HETATM    9  H   UNL     1      -4.798   9.585  66.110  1.00  0.00     0.000 HD 
BRANCH   8  10
HETATM   10  C   UNL     1      -6.071   8.846  67.860  1.00  0.00    -0.051 C  
HETATM   11  C   UNL     1      -5.462   7.493  68.229  1.00  0.00    -0.027 C  
HETATM   12  O   UNL     1      -5.197   7.142  69.369  1.00  0.00    -0.014 OA 
HETATM   13  O   UNL     1      -5.236   6.704  67.149  1.00  0.00    -0.008 OA 
BRANCH  10  14
HETATM   14  C   UNL     1      -7.580   8.832  68.167  1.00  0.00    -0.097 C  
BRANCH  14  15
HETATM   15  C   UNL     1      -8.163  10.188  68.477  1.00  0.00    -0.111 A  
HETATM   16  C   UNL     1      -9.429  10.490  67.965  1.00  0.00    -0.157 A  
HETATM   17  C   UNL     1      -9.910  11.795  68.011  1.00  0.00    -0.184 A  
HETATM   18  C   UNL     1      -9.132  12.821  68.553  1.00  0.00    -0.049 A  
HETATM   19  C   UNL     1      -7.464  11.184  69.176  1.00  0.00    -0.109 A  
HETATM   20  C   UNL     1      -7.937  12.499  69.195  1.00  0.00     0.425 A  
BRANCH  18  21
HETATM   21  O   UNL     1      -9.438  14.156  68.479  1.00  0.00    -0.210 OA 
BRANCH  21  22
HETATM   22  C   UNL     1     -10.086  14.530  67.261  1.00  0.00    -0.247 C  
BRANCH  22  23
HETATM   23  C   UNL     1     -10.771  15.880  67.392  1.00  0.00    -0.313 C  
BRANCH  23  24
HETATM   24  C   UNL     1     -10.048  16.857  68.330  1.00  0.00    -0.302 C  
BRANCH  24  25
HETATM   25  C   UNL     1      -8.637  16.325  68.596  1.00  0.00    -0.222 C  
BRANCH  25  26
HETATM   26  C   UNL     1      -7.490  17.347  68.490  1.00  0.00    -0.251 C  
HETATM   27  C   UNL     1      -6.154  16.645  68.804  1.00  0.00    -0.144 C  
HETATM   28  C   UNL     1      -5.644  15.819  67.625  1.00  0.00    -0.115 C  
HETATM   29  N   UNL     1      -5.449  16.675  66.459  1.00  0.00    -0.320 NA 
HETATM   30  H   UNL     1      -4.995  16.172  65.696  1.00  0.00     0.000 HD 
HETATM   31  C   UNL     1      -6.711  17.278  66.032  1.00  0.00    -0.079 C  
HETATM   32  C   UNL     1      -7.380  18.087  67.146  1.00  0.00    -0.214 C  
ENDBRANCH  25  26
ENDBRANCH  24  25
ENDBRANCH  23  24
ENDBRANCH  22  23
ENDBRANCH  21  22
ENDBRANCH  18  21
ENDBRANCH  14  15
ENDBRANCH  10  14
ENDBRANCH   8  10
ENDBRANCH   5   8
ENDBRANCH   4   5
ENDBRANCH   3   4
ENDBRANCH   2   3
TORSDOF 13
ENDMDL
MODEL      331
REMARK 921   NORMALIZED FREE ENERGY PREDICTED BY IDOCK:    2.26 KCAL/MOL
REMARK 922        TOTAL FREE ENERGY PREDICTED BY IDOCK:    1.44 KCAL/MOL
REMARK 923 INTER-LIGAND FREE ENERGY PREDICTED BY IDOCK:   -4.05 KCAL/MOL
REMARK 924 INTRA-LIGAND FREE ENERGY PREDICTED BY IDOCK:    5.49 KCAL/MOL
REMARK 927      BINDING AFFINITY PREDICTED BY RF-SCORE:    0.00 PKD
ROOT
HETATM    1  C   UNL     1     -10.194   2.685  71.766  1.00  0.00     0.007 C  
HETATM    2  C   UNL     1      -9.019   3.031  72.678  1.00  0.00    -0.112 C  
ENDROOT
BRANCH   2   3
HETATM    3  C   UNL     1      -9.211   4.444  73.199  1.00  0.00    -0.129 C  
BRANCH   3   4
HETATM    4  C   UNL     1     -10.145   5.354  72.394  1.00  0.00    -0.182 C  
BRANCH   4   5
HETATM    5  S   UNL     1      -9.723   5.054  70.664  1.00  0.00    -0.214 S  
HETATM    6  O   UNL     1      -9.248   3.697  70.534  1.00  0.00    -0.110 OA 
HETATM    7  O   UNL     1     -10.822   5.558  69.876  1.00  0.00    -0.326 OA 
BRANCH   5   8
HETATM    8  N   UNL     1      -8.366   6.027  70.334  1.00  0.00    -0.122 N  
HETATM    9  H   UNL     1      -8.320   7.033  70.499  1.00  0.00     0.000 HD 
BRANCH   8  10
HETATM   10  C   UNL     1      -7.214   5.178  69.747  1.00  0.00    -0.060 C  
HETATM   11  C   UNL     1      -6.307   4.705  70.885  1.00  0.00    -0.019 C  
HETATM   12  O   UNL     1      -5.602   3.708  70.838  1.00  0.00    -0.011 OA 
HETATM   13  O   UNL     1      -6.362   5.513  71.973  1.00  0.00    -0.043 OA 
BRANCH  10  14
HETATM   14  C   UNL     1      -6.365   5.873  68.667  1.00  0.00    -0.037 C  
BRANCH  14  15
HETATM   15  C   UNL     1      -7.059   7.020  67.976  1.00  0.00    -0.086 A  
HETATM   16  C   UNL     1      -6.459   7.554  66.831  1.00  0.00    -0.056 A  
HETATM   17  C   UNL     1      -6.917   8.754  66.295  1.00  0.00    -0.081 A  
HETATM   18  C   UNL     1      -7.968   9.447  66.900  1.00  0.00    -0.109 A  
HETATM   19  C   UNL     1      -8.222   7.627  68.472  1.00  0.00    -0.125 A  
HETATM   20  C   UNL     1      -8.662   8.846  67.949  1.00  0.00    -0.129 A  
BRANCH  18  21
HETATM   21  O   UNL     1      -8.367  10.715  66.558  1.00  0.00    -0.133 OA 
BRANCH  21  22
HETATM   22  C   UNL     1      -8.423  11.617  67.665  1.00  0.00    -0.142 C  
BRANCH  22  23
HETATM   23  C   UNL     1      -7.847  12.975  67.300  1.00  0.00    -0.132 C  
BRANCH  23  24
HETATM   24  C   UNL     1      -7.582  13.884  68.508  1.00  0.00    -0.134 C  
BRANCH  24  25
HETATM   25  C   UNL     1      -8.299  15.218  68.284  1.00  0.00    -0.148 C  
BRANCH  25  26
HETATM   26  C   UNL     1      -9.492  15.518  69.209  1.00  0.00    -0.263 C  
HETATM   27  C   UNL     1     -10.275  16.723  68.653  1.00  0.00    -0.298 C  
HETATM   28  C   UNL     1     -11.172  16.338  67.478  1.00  0.00    -0.054 C  
HETATM   29  N   UNL     1     -12.132  15.319  67.891  1.00  0.00    -0.397 NA 
HETATM   30  H   UNL     1     -12.819  15.132  67.161  1.00  0.00     0.000 HD 
HETATM   31  C   UNL     1     -11.450  14.097  68.317  1.00  0.00    -0.304 C  
HETATM   32  C   UNL     1     -10.456  14.345  69.453  1.00  0.00    -0.097 C  
ENDBRANCH  25  26
ENDBRANCH  24  25
ENDBRANCH  23  24
ENDBRANCH  22  23
ENDBRANCH  21  22
ENDBRANCH  18  21
ENDBRANCH  14  15
ENDBRANCH  10  14
ENDBRANCH   8  10
ENDBRANCH   5   8
ENDBRANCH   4   5
ENDBRANCH   3   4
ENDBRANCH   2   3
TORSDOF 13
ENDMDL
MODEL      332
REMARK 921   NORMALIZED FREE ENERGY PREDICTED BY IDOCK:    3.00 KCAL/MOL
REMARK 922        TOTAL FREE ENERGY PREDICTED BY IDOCK:    2.74 KCAL/MOL
REMARK 923 INTER-LIGAND FREE ENERGY PREDICTED BY IDOCK:   -4.36 KCAL/MOL
REMARK 924 INTRA-LIGAND FREE ENERGY PREDICTED BY IDOCK:    7.10 KCAL/MOL
REMARK 927      BINDING AFFINITY PREDICTED BY RF-SCORE:    0.00 PKD
ROOT
HETATM    1  C   UNL     1      -9.420   2.156  71.869  1.00  0.00    -0.183 C  
HETATM    2  C   UNL     1      -8.243   2.477  72.788  1.00  0.00    -0.059 C  
ENDROOT
BRANCH   2   3
HETATM    3  C   UNL     1      -8.394   3.903  73.287  1.00  0.00    -0.088 C  
BRANCH   3   4
HETATM    4  C   UNL     1      -9.304   4.826  72.471  1.00  0.00    -0.131 C  
BRANCH   4   5
HETATM    5  S   UNL     1      -9.033   4.357  70.748  1.00  0.00    -0.110 S  
HETATM    6  O   UNL     1      -8.740   2.943  70.696  1.00  0.00    -0.064 OA 
HETATM    7  O   UNL     1     -10.107   4.943  69.984  1.00  0.00    -0.244 OA 
BRANCH   5   8
HETATM    8  N   UNL     1      -7.589   5.121  70.272  1.00  0.00    -0.069 N  
HETATM    9  H   UNL     1      -7.406   6.121  70.359  1.00  0.00     0.000 HD 
BRANCH   8  10
HETATM   10  C   UNL     1      -6.591   4.092  69.689  1.00  0.00    -0.033 C  
HETATM   11  C   UNL     1      -5.710   3.551  70.816  1.00  0.00    -0.013 C  
HETATM   12  O   UNL     1      -5.153   2.464  70.795  1.00  0.00    -0.003 OA 
HETATM   13  O   UNL     1      -5.606   4.408  71.862  1.00  0.00    -0.010 OA 
BRANCH  10  14
HETATM   14  C   UNL     1      -5.702   4.611  68.544  1.00  0.00    -0.017 C  
BRANCH  14  15
HETATM   15  C   UNL     1      -6.244   5.830  67.841  1.00  0.00    -0.029 A  
HETATM   16  C   UNL     1      -5.642   6.215  66.639  1.00  0.00    -0.013 A  
HETATM   17  C   UNL     1      -5.933   7.454  66.075  1.00  0.00    -0.037 A  
HETATM   18  C   UNL     1      -6.814   8.333  66.707  1.00  0.00    -0.069 A  
HETATM   19  C   UNL     1      -7.258   6.639  68.375  1.00  0.00    -0.085 A  
HETATM   20  C   UNL     1      -7.526   7.895  67.823  1.00  0.00    -0.097 A  
BRANCH  18  21
HETATM   21  O   UNL     1      -7.023   9.636  66.330  1.00  0.00    -0.085 OA 
BRANCH  21  22
HETATM   22  C   UNL     1      -8.189  10.223  66.912  1.00  0.00    -0.123 C  
BRANCH  22  23
HETATM   23  C   UNL     1      -7.921  11.646  67.370  1.00  0.00    -0.147 C  
BRANCH  23  24
HETATM   24  C   UNL     1      -9.003  12.215  68.299  1.00  0.00    -0.186 C  
BRANCH  24  25
HETATM   25  C   UNL     1      -9.516  13.530  67.705  1.00  0.00    -0.216 C  
BRANCH  25  26
HETATM   26  C   UNL     1     -10.919  13.493  67.072  1.00  0.00    -0.297 C  
HETATM   27  C   UNL     1     -11.140  14.782  66.255  1.00  0.00    -0.341 C  
HETATM   28  C   UNL     1     -10.433  14.737  64.902  1.00  0.00    -0.369 C  
HETATM   29  N   UNL     1     -10.921  13.607  64.117  1.00  0.00    -0.572 NA 
HETATM   30  H   UNL     1     -10.554  13.624  63.165  1.00  0.00     0.000 HD 
HETATM   31  C   UNL     1     -10.629  12.339  64.784  1.00  0.00    -0.297 C  
HETATM   32  C   UNL     1     -11.220  12.267  66.194  1.00  0.00    -0.372 C  
ENDBRANCH  25  26
ENDBRANCH  24  25
ENDBRANCH  23  24
ENDBRANCH  22  23
ENDBRANCH  21  22
ENDBRANCH  18  21
ENDBRANCH  14  15
ENDBRANCH  10  14
ENDBRANCH   8  10
ENDBRANCH   5   8
ENDBRANCH   4   5
ENDBRANCH   3   4
ENDBRANCH   2   3
TORSDOF 13
ENDMDL
MODEL      333
REMARK 921   NORMALIZED FREE ENERGY PREDICTED BY IDOCK:    4.37 KCAL/MOL
REMARK 922        TOTAL FREE ENERGY PREDICTED BY IDOCK:    5.14 KCAL/MOL
REMARK 923 INTER-LIGAND FREE ENERGY PREDICTED BY IDOCK:    2.93 KCAL/MOL
REMARK 924 INTRA-LIGAND FREE ENERGY PREDICTED BY IDOCK:    2.21 KCAL/MOL
REMARK 927      BINDING AFFINITY PREDICTED BY RF-SCORE:    0.00 PKD
ROOT
HETATM    1  C   UNL     1     -10.979  11.922  71.061  1.00  0.00     3.012 C  
HETATM    2  C   UNL     1     -11.073  12.139  69.553  1.00  0.00    -0.117 C  
ENDROOT
BRANCH   2   3
HETATM    3  C   UNL     1     -10.246  11.072  68.857  1.00  0.00    -0.218 C  
BRANCH   3   4
HETATM    4  C   UNL     1      -9.394  10.168  69.754  1.00  0.00    -0.150 C  
BRANCH   4   5
HETATM    5  S   UNL     1      -7.711  10.805  69.608  1.00  0.00     0.096 S  
HETATM    6  O   UNL     1      -7.138  10.901  70.930  1.00  0.00     0.397 OA 
HETATM    7  O   UNL     1      -7.074  10.055  68.552  1.00  0.00    -0.069 OA 
BRANCH   5   8
HETATM    8  N   UNL     1      -7.859  12.415  69.077  1.00  0.00    -0.332 N  
HETATM    9  H   UNL     1      -7.860  13.230  69.690  1.00  0.00     0.000 HD 
BRANCH   8  10
HETATM   10  C   UNL     1      -7.994  12.472  67.537  1.00  0.00    -0.175 C  
HETATM   11  C   UNL     1      -7.848  13.922  67.072  1.00  0.00     0.127 C  
HETATM   12  O   UNL     1      -7.476  14.257  65.957  1.00  0.00     2.185 OA 
HETATM   13  O   UNL     1      -8.175  14.820  68.036  1.00  0.00    -0.130 OA 
BRANCH  10  14
HETATM   14  C   UNL     1      -9.294  11.877  66.965  1.00  0.00    -0.188 C  
BRANCH  14  15
HETATM   15  C   UNL     1      -9.105  11.070  65.705  1.00  0.00    -0.219 A  
HETATM   16  C   UNL     1      -8.772   9.717  65.838  1.00  0.00    -0.156 A  
HETATM   17  C   UNL     1      -8.351   8.987  64.731  1.00  0.00    -0.181 A  
HETATM   18  C   UNL     1      -8.239   9.597  63.479  1.00  0.00    -0.158 A  
HETATM   19  C   UNL     1      -9.160  11.626  64.419  1.00  0.00     0.264 A  
HETATM   20  C   UNL     1      -8.709  10.899  63.314  1.00  0.00    -0.103 A  
BRANCH  18  21
HETATM   21  O   UNL     1      -7.665   9.017  62.376  1.00  0.00    -0.113 OA 
BRANCH  21  22
HETATM   22  C   UNL     1      -7.792   7.593  62.344  1.00  0.00    -0.129 C  
BRANCH  22  23
HETATM   23  C   UNL     1      -6.655   6.921  63.094  1.00  0.00    -0.043 C  
BRANCH  23  24
HETATM   24  C   UNL     1      -7.054   5.608  63.782  1.00  0.00    -0.051 C  
BRANCH  24  25
HETATM   25  C   UNL     1      -8.415   5.803  64.457  1.00  0.00    -0.040 C  
BRANCH  25  26
HETATM   26  C   UNL     1      -8.452   5.620  65.986  1.00  0.00    -0.132 C  
HETATM   27  C   UNL     1      -9.721   4.835  66.371  1.00  0.00    -0.206 C  
HETATM   28  C   UNL     1      -9.577   3.337  66.108  1.00  0.00    -0.003 C  
HETATM   29  N   UNL     1      -8.455   2.799  66.871  1.00  0.00    -0.095 NA 
HETATM   30  H   UNL     1      -8.411   1.781  66.808  1.00  0.00     0.000 HD 
HETATM   31  C   UNL     1      -7.195   3.419  66.463  1.00  0.00    -0.063 C  
HETATM   32  C   UNL     1      -7.218   4.943  66.605  1.00  0.00    -0.080 C  
ENDBRANCH  25  26
ENDBRANCH  24  25
ENDBRANCH  23  24
ENDBRANCH  22  23
ENDBRANCH  21  22
ENDBRANCH  18  21
ENDBRANCH  14  15
ENDBRANCH  10  14
ENDBRANCH   8  10
ENDBRANCH   5   8
ENDBRANCH   4   5
ENDBRANCH   3   4
ENDBRANCH   2   3
TORSDOF 13
ENDMDL
MODEL      334
REMARK 921   NORMALIZED FREE ENERGY PREDICTED BY IDOCK:    8.87 KCAL/MOL
REMARK 922        TOTAL FREE ENERGY PREDICTED BY IDOCK:   13.08 KCAL/MOL
REMARK 923 INTER-LIGAND FREE ENERGY PREDICTED BY IDOCK:    3.10 KCAL/MOL
REMARK 924 INTRA-LIGAND FREE ENERGY PREDICTED BY IDOCK:    9.98 KCAL/MOL
REMARK 927      BINDING AFFINITY PREDICTED BY RF-SCORE:    0.00 PKD
ROOT
HETATM    1  C   UNL     1      -8.476   7.329  66.404  1.00  0.00    -0.129 C  
HETATM    2  C   UNL     1      -9.171   6.567  65.278  1.00  0.00     0.431 C  
ENDROOT
BRANCH   2   3
HETATM    3  C   UNL     1      -8.861   7.260  63.962  1.00  0.00     0.894 C  
BRANCH   3   4
HETATM    4  C   UNL     1      -9.486   8.642  63.749  1.00  0.00     1.738 C  
BRANCH   4   5
HETATM    5  S   UNL     1      -9.270   9.507  65.319  1.00  0.00    -0.245 S  
HETATM    6  O   UNL     1     -10.406   9.219  66.164  1.00  0.00    -0.229 OA 
HETATM    7  O   UNL     1      -7.915   9.256  65.749  1.00  0.00    -0.106 OA 
BRANCH   5   8
HETATM    8  N   UNL     1      -9.396  11.167  64.965  1.00  0.00    -0.250 N  
HETATM    9  H   UNL     1      -8.715  11.697  64.420  1.00  0.00     0.000 HD 
BRANCH   8  10
HETATM   10  C   UNL     1     -10.684  11.762  65.582  1.00  0.00    -0.280 C  
HETATM   11  C   UNL     1     -10.960  13.128  64.953  1.00  0.00    -0.318 C  
HETATM   12  O   UNL     1     -12.064  13.646  64.881  1.00  0.00    -0.362 OA 
HETATM   13  O   UNL     1      -9.840  13.722  64.469  1.00  0.00    -0.160 OA 
BRANCH  10  14
HETATM   14  C   UNL     1     -10.681  11.892  67.116  1.00  0.00    -0.280 C  
BRANCH  14  15
HETATM   15  C   UNL     1     -11.352  13.140  67.634  1.00  0.00    -0.335 A  
HETATM   16  C   UNL     1     -11.755  14.101  66.701  1.00  0.00    -0.422 A  
HETATM   17  C   UNL     1     -12.154  15.366  67.125  1.00  0.00     0.508 A  
HETATM   18  C   UNL     1     -12.141  15.696  68.482  1.00  0.00     0.011 A  
HETATM   19  C   UNL     1     -11.510  13.419  68.999  1.00  0.00    -0.348 A  
HETATM   20  C   UNL     1     -11.883  14.698  69.422  1.00  0.00    -0.368 A  
BRANCH  18  21
HETATM   21  O   UNL     1     -12.339  16.959  68.981  1.00  0.00     0.943 OA 
BRANCH  21  22
HETATM   22  C   UNL     1     -11.759  17.990  68.178  1.00  0.00     1.844 C  
BRANCH  22  23
HETATM   23  C   UNL     1     -11.324  19.172  69.028  1.00  0.00     2.575 C  
BRANCH  23  24
HETATM   24  C   UNL     1     -10.007  19.815  68.571  1.00  0.00    -0.538 C  
BRANCH  24  25
HETATM   25  C   UNL     1      -8.930  18.729  68.502  1.00  0.00    -0.375 C  
BRANCH  25  26
HETATM   26  C   UNL     1      -7.495  19.205  68.212  1.00  0.00    -0.334 C  
HETATM   27  C   UNL     1      -6.745  19.398  69.545  1.00  0.00    -0.327 C  
HETATM   28  C   UNL     1      -6.277  18.071  70.141  1.00  0.00     0.065 C  
HETATM   29  N   UNL     1      -5.386  17.388  69.209  1.00  0.00    -0.166 NA 
HETATM   30  H   UNL     1      -4.965  16.560  69.631  1.00  0.00     0.000 HD 
HETATM   31  C   UNL     1      -6.079  17.065  67.962  1.00  0.00    -0.133 C  
HETATM   32  C   UNL     1      -6.669  18.302  67.281  1.00  0.00    -0.207 C  
ENDBRANCH  25  26
ENDBRANCH  24  25
ENDBRANCH  23  24
ENDBRANCH  22  23
ENDBRANCH  21  22
ENDBRANCH  18  21
ENDBRANCH  14  15
ENDBRANCH  10  14
ENDBRANCH   8  10
ENDBRANCH   5   8
ENDBRANCH   4   5
ENDBRANCH   3   4
ENDBRANCH   2   3
TORSDOF 13
ENDMDL
