MODEL        1
REMARK 921   NORMALIZED FREE ENERGY PREDICTED BY IDOCK:   -6.03 KCAL/MOL
REMARK 922        TOTAL FREE ENERGY PREDICTED BY IDOCK:   -7.07 KCAL/MOL
REMARK 923 INTER-LIGAND FREE ENERGY PREDICTED BY IDOCK:   -6.73 KCAL/MOL
REMARK 924 INTRA-LIGAND FREE ENERGY PREDICTED BY IDOCK:   -0.34 KCAL/MOL
REMARK 927      BINDING AFFINITY PREDICTED BY RF-SCORE:    0.00 PKD
ROOT
HETATM    1 CL   UNL     1     -10.810  10.081  69.263  1.00  0.00    -0.241 Cl 
HETATM    2  C   UNL     1     -11.877  11.226  70.026  1.00  0.00    -0.367 A  
HETATM    3  C   UNL     1     -11.927  12.593  69.635  1.00  0.00    -0.286 A  
HETATM    4  C   UNL     1     -12.610  13.419  70.589  1.00  0.00    -0.253 A  
HETATM    5  C   UNL     1     -12.558  10.693  71.160  1.00  0.00    -0.526 A  
HETATM    6  N   UNL     1     -12.718  14.759  70.511  1.00  0.00    -0.351 NA 
HETATM    7  C   UNL     1     -13.286  11.468  72.071  1.00  0.00    -0.443 A  
HETATM    8  C   UNL     1     -13.283  12.852  71.812  1.00  0.00    -0.384 A  
HETATM    9  S   UNL     1     -13.550  15.248  71.863  1.00  0.00    -0.522 SA 
HETATM   10  N   UNL     1     -13.847  13.788  72.589  1.00  0.00    -0.740 NA 
ENDROOT
BRANCH   3  11
HETATM   11  N   UNL     1     -11.358  13.196  68.502  1.00  0.00    -0.265 NA 
HETATM   12  H   UNL     1     -10.528  13.767  68.664  1.00  0.00     0.000 HD 
BRANCH  11  13
HETATM   13  C   UNL     1     -11.782  13.109  67.212  1.00  0.00    -0.374 C  
HETATM   14  C   UNL     1     -12.499  14.099  65.289  1.00  0.00    -0.461 C  
HETATM   15  N   UNL     1     -12.052  14.328  66.650  1.00  0.00    -0.436 NA 
HETATM   16  C   UNL     1     -12.223  12.608  65.112  1.00  0.00    -0.481 C  
HETATM   17  N   UNL     1     -12.006  12.064  66.471  1.00  0.00    -0.601 NA 
ENDBRANCH  11  13
ENDBRANCH   3  11
TORSDOF 2
ENDMDL
MODEL        2
REMARK 921   NORMALIZED FREE ENERGY PREDICTED BY IDOCK:   -5.53 KCAL/MOL
REMARK 922        TOTAL FREE ENERGY PREDICTED BY IDOCK:   -6.52 KCAL/MOL
REMARK 923 INTER-LIGAND FREE ENERGY PREDICTED BY IDOCK:   -6.38 KCAL/MOL
REMARK 924 INTRA-LIGAND FREE ENERGY PREDICTED BY IDOCK:   -0.13 KCAL/MOL
REMARK 927      BINDING AFFINITY PREDICTED BY RF-SCORE:    0.00 PKD
ROOT
HETATM    1 CL   UNL     1     -10.624  16.855  68.056  1.00  0.00    -0.355 Cl 
HETATM    2  C   UNL     1     -11.242  15.229  68.111  1.00  0.00    -0.324 A  
HETATM    3  C   UNL     1     -11.308  14.481  69.319  1.00  0.00    -0.285 A  
HETATM    4  C   UNL     1     -11.528  13.082  69.097  1.00  0.00    -0.299 A  
HETATM    5  C   UNL     1     -11.517  14.687  66.820  1.00  0.00    -0.371 A  
HETATM    6  N   UNL     1     -11.538  12.140  70.059  1.00  0.00    -0.229 NA 
HETATM    7  C   UNL     1     -11.801  13.336  66.582  1.00  0.00    -0.447 A  
HETATM    8  C   UNL     1     -11.768  12.511  67.723  1.00  0.00    -0.359 A  
HETATM    9  S   UNL     1     -11.786  10.685  69.298  1.00  0.00    -0.233 SA 
HETATM   10  N   UNL     1     -11.933  11.180  67.723  1.00  0.00    -0.603 NA 
ENDROOT
BRANCH   3  11
HETATM   11  N   UNL     1     -11.129  14.938  70.635  1.00  0.00    -0.481 NA 
HETATM   12  H   UNL     1     -10.166  14.985  70.969  1.00  0.00     0.000 HD 
BRANCH  11  13
HETATM   13  C   UNL     1     -12.089  15.326  71.519  1.00  0.00    -0.359 C  
HETATM   14  C   UNL     1     -14.264  15.358  72.196  1.00  0.00    -0.565 C  
HETATM   15  N   UNL     1     -13.339  14.873  71.190  1.00  0.00    -0.401 NA 
HETATM   16  C   UNL     1     -13.317  15.947  73.239  1.00  0.00    -0.564 C  
HETATM   17  N   UNL     1     -12.003  16.081  72.574  1.00  0.00    -0.507 NA 
ENDBRANCH  11  13
ENDBRANCH   3  11
TORSDOF 2
ENDMDL
MODEL        3
REMARK 921   NORMALIZED FREE ENERGY PREDICTED BY IDOCK:   -5.50 KCAL/MOL
REMARK 922        TOTAL FREE ENERGY PREDICTED BY IDOCK:   -6.49 KCAL/MOL
REMARK 923 INTER-LIGAND FREE ENERGY PREDICTED BY IDOCK:   -6.14 KCAL/MOL
REMARK 924 INTRA-LIGAND FREE ENERGY PREDICTED BY IDOCK:   -0.34 KCAL/MOL
REMARK 927      BINDING AFFINITY PREDICTED BY RF-SCORE:    0.00 PKD
ROOT
HETATM    1 CL   UNL     1     -10.554  12.213  67.865  1.00  0.00    -0.218 Cl 
HETATM    2  C   UNL     1     -11.660  12.717  69.110  1.00  0.00    -0.320 A  
HETATM    3  C   UNL     1     -12.148  14.051  69.198  1.00  0.00    -0.337 A  
HETATM    4  C   UNL     1     -12.768  14.334  70.460  1.00  0.00    -0.328 A  
HETATM    5  C   UNL     1     -11.892  11.714  70.099  1.00  0.00    -0.428 A  
HETATM    6  N   UNL     1     -13.227  15.542  70.839  1.00  0.00    -0.502 NA 
HETATM    7  C   UNL     1     -12.552  11.949  71.311  1.00  0.00    -0.383 A  
HETATM    8  C   UNL     1     -12.962  13.280  71.518  1.00  0.00    -0.337 A  
HETATM    9  S   UNL     1     -13.807  15.366  72.386  1.00  0.00    -0.568 SA 
HETATM   10  N   UNL     1     -13.542  13.748  72.633  1.00  0.00    -0.689 NA 
ENDROOT
BRANCH   3  11
HETATM   11  N   UNL     1     -12.038  15.081  68.250  1.00  0.00    -0.567 NA 
HETATM   12  H   UNL     1     -12.851  15.230  67.652  1.00  0.00     0.000 HD 
BRANCH  11  13
HETATM   13  C   UNL     1     -10.976  15.904  68.034  1.00  0.00    -0.336 C  
HETATM   14  C   UNL     1      -9.135  16.490  66.826  1.00  0.00    -0.237 C  
HETATM   15  N   UNL     1     -10.233  15.548  66.940  1.00  0.00    -0.273 NA 
HETATM   16  C   UNL     1      -9.509  17.539  67.872  1.00  0.00    -0.277 C  
HETATM   17  N   UNL     1     -10.549  16.921  68.722  1.00  0.00    -0.343 NA 
ENDBRANCH  11  13
ENDBRANCH   3  11
TORSDOF 2
ENDMDL
MODEL        4
REMARK 921   NORMALIZED FREE ENERGY PREDICTED BY IDOCK:   -5.48 KCAL/MOL
REMARK 922        TOTAL FREE ENERGY PREDICTED BY IDOCK:   -6.46 KCAL/MOL
REMARK 923 INTER-LIGAND FREE ENERGY PREDICTED BY IDOCK:   -6.33 KCAL/MOL
REMARK 924 INTRA-LIGAND FREE ENERGY PREDICTED BY IDOCK:   -0.14 KCAL/MOL
REMARK 927      BINDING AFFINITY PREDICTED BY RF-SCORE:    0.00 PKD
ROOT
HETATM    1 CL   UNL     1     -12.606  11.905  71.306  1.00  0.00    -0.437 Cl 
HETATM    2  C   UNL     1     -11.978  12.218  69.714  1.00  0.00    -0.295 A  
HETATM    3  C   UNL     1     -12.157  13.469  69.059  1.00  0.00    -0.291 A  
HETATM    4  C   UNL     1     -11.861  13.410  67.658  1.00  0.00    -0.354 A  
HETATM    5  C   UNL     1     -11.419  11.063  69.091  1.00  0.00    -0.370 A  
HETATM    6  N   UNL     1     -12.037  14.425  66.789  1.00  0.00    -0.412 NA 
HETATM    7  C   UNL     1     -11.060  10.999  67.739  1.00  0.00    -0.356 A  
HETATM    8  C   UNL     1     -11.318  12.169  66.999  1.00  0.00    -0.337 A  
HETATM    9  S   UNL     1     -11.598  13.852  65.293  1.00  0.00    -0.342 SA 
HETATM   10  N   UNL     1     -11.128  12.309  65.679  1.00  0.00    -0.305 NA 
ENDROOT
BRANCH   3  11
HETATM   11  N   UNL     1     -12.624  14.676  69.604  1.00  0.00    -0.576 NA 
HETATM   12  H   UNL     1     -13.059  15.327  68.949  1.00  0.00     0.000 HD 
BRANCH  11  13
HETATM   13  C   UNL     1     -12.565  15.082  70.901  1.00  0.00    -0.356 C  
HETATM   14  C   UNL     1     -13.599  15.652  72.850  1.00  0.00    -0.572 C  
HETATM   15  N   UNL     1     -13.798  15.209  71.483  1.00  0.00    -0.469 NA 
HETATM   16  C   UNL     1     -12.085  15.535  73.003  1.00  0.00    -0.464 C  
HETATM   17  N   UNL     1     -11.541  15.404  71.634  1.00  0.00    -0.389 NA 
ENDBRANCH  11  13
ENDBRANCH   3  11
TORSDOF 2
ENDMDL
MODEL        5
REMARK 921   NORMALIZED FREE ENERGY PREDICTED BY IDOCK:   -5.48 KCAL/MOL
REMARK 922        TOTAL FREE ENERGY PREDICTED BY IDOCK:   -6.46 KCAL/MOL
REMARK 923 INTER-LIGAND FREE ENERGY PREDICTED BY IDOCK:   -6.35 KCAL/MOL
REMARK 924 INTRA-LIGAND FREE ENERGY PREDICTED BY IDOCK:   -0.11 KCAL/MOL
REMARK 927      BINDING AFFINITY PREDICTED BY RF-SCORE:    0.00 PKD
ROOT
HETATM    1 CL   UNL     1     -10.940  15.632  64.871  1.00  0.00    -0.454 Cl 
HETATM    2  C   UNL     1     -10.932  15.551  66.609  1.00  0.00    -0.248 A  
HETATM    3  C   UNL     1     -11.573  14.500  67.324  1.00  0.00    -0.385 A  
HETATM    4  C   UNL     1     -11.732  14.793  68.718  1.00  0.00    -0.323 A  
HETATM    5  C   UNL     1     -10.365  16.706  67.225  1.00  0.00    -0.298 A  
HETATM    6  N   UNL     1     -12.387  14.014  69.600  1.00  0.00    -0.316 NA 
HETATM    7  C   UNL     1     -10.449  16.984  68.595  1.00  0.00    -0.363 A  
HETATM    8  C   UNL     1     -11.174  16.041  69.350  1.00  0.00    -0.349 A  
HETATM    9  S   UNL     1     -12.334  14.800  71.062  1.00  0.00    -0.360 SA 
HETATM   10  N   UNL     1     -11.446  16.141  70.659  1.00  0.00    -0.390 NA 
ENDROOT
BRANCH   3  11
HETATM   11  N   UNL     1     -12.091  13.296  66.820  1.00  0.00    -0.373 NA 
HETATM   12  H   UNL     1     -12.782  12.825  67.403  1.00  0.00     0.000 HD 
BRANCH  11  13
HETATM   13  C   UNL     1     -11.779  12.683  65.646  1.00  0.00    -0.412 C  
HETATM   14  C   UNL     1     -12.369  11.970  63.563  1.00  0.00    -0.551 C  
HETATM   15  N   UNL     1     -12.824  12.652  64.760  1.00  0.00    -0.830 NA 
HETATM   16  C   UNL     1     -10.872  11.831  63.828  1.00  0.00    -0.424 C  
HETATM   17  N   UNL     1     -10.681  12.096  65.270  1.00  0.00    -0.278 NA 
ENDBRANCH  11  13
ENDBRANCH   3  11
TORSDOF 2
ENDMDL
MODEL        6
REMARK 921   NORMALIZED FREE ENERGY PREDICTED BY IDOCK:   -5.46 KCAL/MOL
REMARK 922        TOTAL FREE ENERGY PREDICTED BY IDOCK:   -6.44 KCAL/MOL
REMARK 923 INTER-LIGAND FREE ENERGY PREDICTED BY IDOCK:   -6.22 KCAL/MOL
REMARK 924 INTRA-LIGAND FREE ENERGY PREDICTED BY IDOCK:   -0.22 KCAL/MOL
REMARK 927      BINDING AFFINITY PREDICTED BY RF-SCORE:    0.00 PKD
ROOT
HETATM    1 CL   UNL     1      -9.996  13.038  67.350  1.00  0.00    -0.225 Cl 
HETATM    2  C   UNL     1     -10.411  14.728  67.343  1.00  0.00    -0.256 A  
HETATM    3  C   UNL     1     -10.507  15.482  66.140  1.00  0.00    -0.313 A  
HETATM    4  C   UNL     1     -10.530  16.897  66.370  1.00  0.00    -0.252 A  
HETATM    5  C   UNL     1     -10.484  15.296  68.650  1.00  0.00    -0.235 A  
HETATM    6  N   UNL     1     -10.522  17.836  65.404  1.00  0.00    -0.602 NA 
HETATM    7  C   UNL     1     -10.573  16.671  68.902  1.00  0.00    -0.337 A  
HETATM    8  C   UNL     1     -10.556  17.489  67.755  1.00  0.00    -0.375 A  
HETATM    9  S   UNL     1     -10.509  19.308  66.173  1.00  0.00    -0.471 SA 
HETATM   10  N   UNL     1     -10.554  18.830  67.759  1.00  0.00    -0.411 NA 
ENDROOT
BRANCH   3  11
HETATM   11  N   UNL     1     -10.522  15.010  64.817  1.00  0.00    -0.532 NA 
HETATM   12  H   UNL     1      -9.984  15.550  64.140  1.00  0.00     0.000 HD 
BRANCH  11  13
HETATM   13  C   UNL     1     -11.170  13.916  64.331  1.00  0.00    -0.329 C  
HETATM   14  C   UNL     1     -11.129  11.860  63.351  1.00  0.00    -0.383 C  
HETATM   15  N   UNL     1     -10.321  12.959  63.843  1.00  0.00    -0.359 NA 
HETATM   16  C   UNL     1     -12.522  12.248  63.839  1.00  0.00    -0.485 C  
HETATM   17  N   UNL     1     -12.443  13.675  64.221  1.00  0.00    -0.655 NA 
ENDBRANCH  11  13
ENDBRANCH   3  11
TORSDOF 2
ENDMDL
MODEL        7
REMARK 921   NORMALIZED FREE ENERGY PREDICTED BY IDOCK:   -5.45 KCAL/MOL
REMARK 922        TOTAL FREE ENERGY PREDICTED BY IDOCK:   -6.42 KCAL/MOL
REMARK 923 INTER-LIGAND FREE ENERGY PREDICTED BY IDOCK:   -6.17 KCAL/MOL
REMARK 924 INTRA-LIGAND FREE ENERGY PREDICTED BY IDOCK:   -0.26 KCAL/MOL
REMARK 927      BINDING AFFINITY PREDICTED BY RF-SCORE:    0.00 PKD
ROOT
HETATM    1 CL   UNL     1     -11.748  12.718  69.100  1.00  0.00    -0.358 Cl 
HETATM    2  C   UNL     1     -11.089  14.074  68.232  1.00  0.00    -0.254 A  
HETATM    3  C   UNL     1     -10.916  15.351  68.836  1.00  0.00    -0.261 A  
HETATM    4  C   UNL     1     -10.679  16.392  67.879  1.00  0.00    -0.332 A  
HETATM    5  C   UNL     1     -10.897  13.815  66.842  1.00  0.00    -0.286 A  
HETATM    6  N   UNL     1     -10.576  17.702  68.174  1.00  0.00    -0.377 NA 
HETATM    7  C   UNL     1     -10.600  14.804  65.896  1.00  0.00    -0.322 A  
HETATM    8  C   UNL     1     -10.528  16.114  66.406  1.00  0.00    -0.301 A  
HETATM    9  S   UNL     1     -10.350  18.497  66.733  1.00  0.00    -0.408 SA 
HETATM   10  N   UNL     1     -10.333  17.221  65.675  1.00  0.00    -0.619 NA 
ENDROOT
BRANCH   3  11
HETATM   11  N   UNL     1     -11.007  15.689  70.196  1.00  0.00    -0.310 NA 
HETATM   12  H   UNL     1     -10.171  16.097  70.616  1.00  0.00     0.000 HD 
BRANCH  11  13
HETATM   13  C   UNL     1     -12.078  15.537  71.022  1.00  0.00    -0.387 C  
HETATM   14  C   UNL     1     -12.947  15.209  73.103  1.00  0.00    -0.518 C  
HETATM   15  N   UNL     1     -11.727  15.368  72.335  1.00  0.00    -0.446 NA 
HETATM   16  C   UNL     1     -14.018  15.538  72.065  1.00  0.00    -0.501 C  
HETATM   17  N   UNL     1     -13.348  15.483  70.748  1.00  0.00    -0.485 NA 
ENDBRANCH  11  13
ENDBRANCH   3  11
TORSDOF 2
ENDMDL
MODEL        8
REMARK 921   NORMALIZED FREE ENERGY PREDICTED BY IDOCK:   -5.43 KCAL/MOL
REMARK 922        TOTAL FREE ENERGY PREDICTED BY IDOCK:   -6.40 KCAL/MOL
REMARK 923 INTER-LIGAND FREE ENERGY PREDICTED BY IDOCK:   -6.10 KCAL/MOL
REMARK 924 INTRA-LIGAND FREE ENERGY PREDICTED BY IDOCK:   -0.30 KCAL/MOL
REMARK 927      BINDING AFFINITY PREDICTED BY RF-SCORE:    0.00 PKD
ROOT
HETATM    1 CL   UNL     1     -10.116  15.511  69.871  1.00  0.00    -0.299 Cl 
HETATM    2  C   UNL     1     -10.536  14.579  68.462  1.00  0.00    -0.250 A  
HETATM    3  C   UNL     1     -10.335  15.068  67.141  1.00  0.00    -0.257 A  
HETATM    4  C   UNL     1     -11.039  14.304  66.153  1.00  0.00    -0.324 A  
HETATM    5  C   UNL     1     -11.231  13.373  68.771  1.00  0.00    -0.315 A  
HETATM    6  N   UNL     1     -11.097  14.606  64.842  1.00  0.00    -0.387 NA 
HETATM    7  C   UNL     1     -11.872  12.573  67.817  1.00  0.00    -0.375 A  
HETATM    8  C   UNL     1     -11.814  13.058  66.497  1.00  0.00    -0.403 A  
HETATM    9  S   UNL     1     -12.061  13.456  64.131  1.00  0.00    -0.423 SA 
HETATM   10  N   UNL     1     -12.418  12.500  65.437  1.00  0.00    -0.647 NA 
ENDROOT
BRANCH   3  11
HETATM   11  N   UNL     1      -9.605  16.196  66.733  1.00  0.00    -0.231 NA 
HETATM   12  H   UNL     1      -8.623  16.038  66.504  1.00  0.00     0.000 HD 
BRANCH  11  13
HETATM   13  C   UNL     1     -10.051  17.475  66.606  1.00  0.00    -0.328 C  
HETATM   14  C   UNL     1     -10.513  19.514  67.514  1.00  0.00    -0.472 C  
HETATM   15  N   UNL     1     -10.006  18.180  67.780  1.00  0.00    -0.312 NA 
HETATM   16  C   UNL     1     -10.630  19.510  65.992  1.00  0.00    -0.491 C  
HETATM   17  N   UNL     1     -10.545  18.094  65.575  1.00  0.00    -0.590 NA 
ENDBRANCH  11  13
ENDBRANCH   3  11
TORSDOF 2
ENDMDL
MODEL        9
REMARK 921   NORMALIZED FREE ENERGY PREDICTED BY IDOCK:   -5.38 KCAL/MOL
REMARK 922        TOTAL FREE ENERGY PREDICTED BY IDOCK:   -6.35 KCAL/MOL
REMARK 923 INTER-LIGAND FREE ENERGY PREDICTED BY IDOCK:   -6.05 KCAL/MOL
REMARK 924 INTRA-LIGAND FREE ENERGY PREDICTED BY IDOCK:   -0.30 KCAL/MOL
REMARK 927      BINDING AFFINITY PREDICTED BY RF-SCORE:    0.00 PKD
ROOT
HETATM    1 CL   UNL     1     -12.285  15.909  69.663  1.00  0.00    -0.243 Cl 
HETATM    2  C   UNL     1     -12.309  14.337  70.409  1.00  0.00    -0.352 A  
HETATM    3  C   UNL     1     -11.836  13.173  69.740  1.00  0.00    -0.316 A  
HETATM    4  C   UNL     1     -12.243  11.958  70.384  1.00  0.00    -0.314 A  
HETATM    5  C   UNL     1     -12.983  14.319  71.665  1.00  0.00    -0.420 A  
HETATM    6  N   UNL     1     -12.012  10.719  69.910  1.00  0.00    -0.321 NA 
HETATM    7  C   UNL     1     -13.335  13.147  72.348  1.00  0.00    -0.591 A  
HETATM    8  C   UNL     1     -13.000  11.950  71.687  1.00  0.00    -0.342 A  
HETATM    9  S   UNL     1     -12.714   9.661  70.981  1.00  0.00    -0.232 SA 
HETATM   10  N   UNL     1     -13.307  10.716  72.114  1.00  0.00    -0.365 NA 
ENDROOT
BRANCH   3  11
HETATM   11  N   UNL     1     -11.100  13.094  68.547  1.00  0.00    -0.252 NA 
HETATM   12  H   UNL     1     -10.085  13.114  68.642  1.00  0.00     0.000 HD 
BRANCH  11  13
HETATM   13  C   UNL     1     -11.581  12.994  67.278  1.00  0.00    -0.356 C  
HETATM   14  C   UNL     1     -12.419  13.961  65.392  1.00  0.00    -0.501 C  
HETATM   15  N   UNL     1     -11.915  14.204  66.731  1.00  0.00    -0.431 NA 
HETATM   16  C   UNL     1     -12.104  12.479  65.201  1.00  0.00    -0.446 C  
HETATM   17  N   UNL     1     -11.807  11.943  66.546  1.00  0.00    -0.570 NA 
ENDBRANCH  11  13
ENDBRANCH   3  11
TORSDOF 2
ENDMDL
MODEL       10
REMARK 921   NORMALIZED FREE ENERGY PREDICTED BY IDOCK:   -5.23 KCAL/MOL
REMARK 922        TOTAL FREE ENERGY PREDICTED BY IDOCK:   -6.18 KCAL/MOL
REMARK 923 INTER-LIGAND FREE ENERGY PREDICTED BY IDOCK:   -5.89 KCAL/MOL
REMARK 924 INTRA-LIGAND FREE ENERGY PREDICTED BY IDOCK:   -0.29 KCAL/MOL
REMARK 927      BINDING AFFINITY PREDICTED BY RF-SCORE:    0.00 PKD
ROOT
HETATM    1 CL   UNL     1     -11.358  15.913  68.033  1.00  0.00    -0.322 Cl 
HETATM    2  C   UNL     1     -11.646  14.728  69.274  1.00  0.00    -0.303 A  
HETATM    3  C   UNL     1     -11.384  13.343  69.077  1.00  0.00    -0.287 A  
HETATM    4  C   UNL     1     -11.990  12.515  70.078  1.00  0.00    -0.299 A  
HETATM    5  C   UNL     1     -12.305  15.261  70.421  1.00  0.00    -0.422 A  
HETATM    6  N   UNL     1     -11.978  11.168  70.076  1.00  0.00    -0.335 NA 
HETATM    7  C   UNL     1     -12.848  14.477  71.447  1.00  0.00    -0.406 A  
HETATM    8  C   UNL     1     -12.728  13.087  71.261  1.00  0.00    -0.293 A  
HETATM    9  S   UNL     1     -12.843  10.682  71.408  1.00  0.00    -0.469 SA 
HETATM   10  N   UNL     1     -13.238  12.149  72.072  1.00  0.00    -0.471 NA 
ENDROOT
BRANCH   3  11
HETATM   11  N   UNL     1     -10.681  12.732  68.026  1.00  0.00    -0.224 NA 
HETATM   12  H   UNL     1      -9.901  12.132  68.295  1.00  0.00     0.000 HD 
BRANCH  11  13
HETATM   13  C   UNL     1     -10.916  12.846  66.690  1.00  0.00    -0.276 C  
HETATM   14  C   UNL     1     -12.280  12.568  64.886  1.00  0.00    -0.470 C  
HETATM   15  N   UNL     1     -12.159  12.403  66.322  1.00  0.00    -0.630 NA 
HETATM   16  C   UNL     1     -11.023  13.367  64.552  1.00  0.00    -0.390 C  
HETATM   17  N   UNL     1     -10.139  13.257  65.733  1.00  0.00    -0.292 NA 
ENDBRANCH  11  13
ENDBRANCH   3  11
TORSDOF 2
ENDMDL
MODEL       11
REMARK 921   NORMALIZED FREE ENERGY PREDICTED BY IDOCK:   -5.21 KCAL/MOL
REMARK 922        TOTAL FREE ENERGY PREDICTED BY IDOCK:   -6.16 KCAL/MOL
REMARK 923 INTER-LIGAND FREE ENERGY PREDICTED BY IDOCK:   -6.18 KCAL/MOL
REMARK 924 INTRA-LIGAND FREE ENERGY PREDICTED BY IDOCK:    0.02 KCAL/MOL
REMARK 927      BINDING AFFINITY PREDICTED BY RF-SCORE:    0.00 PKD
ROOT
HETATM    1 CL   UNL     1     -11.495  10.573  68.889  1.00  0.00    -0.305 Cl 
HETATM    2  C   UNL     1     -11.798  12.024  69.800  1.00  0.00    -0.331 A  
HETATM    3  C   UNL     1     -12.592  12.027  70.981  1.00  0.00    -0.273 A  
HETATM    4  C   UNL     1     -12.986  13.346  71.383  1.00  0.00    -0.328 A  
HETATM    5  C   UNL     1     -11.310  13.203  69.162  1.00  0.00    -0.335 A  
HETATM    6  N   UNL     1     -13.814  13.625  72.407  1.00  0.00    -0.651 NA 
HETATM    7  C   UNL     1     -11.627  14.503  69.573  1.00  0.00    -0.350 A  
HETATM    8  C   UNL     1     -12.506  14.584  70.671  1.00  0.00    -0.343 A  
HETATM    9  S   UNL     1     -13.994  15.275  72.438  1.00  0.00    -0.536 SA 
HETATM   10  N   UNL     1     -13.003  15.718  71.185  1.00  0.00    -0.480 NA 
ENDROOT
BRANCH   3  11
HETATM   11  N   UNL     1     -13.053  10.926  71.722  1.00  0.00    -0.480 NA 
HETATM   12  H   UNL     1     -13.846  11.100  72.339  1.00  0.00     0.000 HD 
BRANCH  11  13
HETATM   13  C   UNL     1     -12.568   9.655  71.713  1.00  0.00    -0.409 C  
HETATM   14  C   UNL     1     -12.899   7.407  71.537  1.00  0.00    -0.375 C  
HETATM   15  N   UNL     1     -13.539   8.709  71.516  1.00  0.00    -0.344 NA 
HETATM   16  C   UNL     1     -11.419   7.782  71.548  1.00  0.00    -0.264 C  
HETATM   17  N   UNL     1     -11.360   9.216  71.906  1.00  0.00    -0.375 NA 
ENDBRANCH  11  13
ENDBRANCH   3  11
TORSDOF 2
ENDMDL
MODEL       12
REMARK 921   NORMALIZED FREE ENERGY PREDICTED BY IDOCK:   -5.20 KCAL/MOL
REMARK 922        TOTAL FREE ENERGY PREDICTED BY IDOCK:   -6.15 KCAL/MOL
REMARK 923 INTER-LIGAND FREE ENERGY PREDICTED BY IDOCK:   -5.88 KCAL/MOL
REMARK 924 INTRA-LIGAND FREE ENERGY PREDICTED BY IDOCK:   -0.27 KCAL/MOL
REMARK 927      BINDING AFFINITY PREDICTED BY RF-SCORE:    0.00 PKD
ROOT
HETATM    1 CL   UNL     1     -12.640  11.656  70.830  1.00  0.00    -0.441 Cl 
HETATM    2  C   UNL     1     -11.692  12.378  69.562  1.00  0.00    -0.322 A  
HETATM    3  C   UNL     1     -11.956  13.685  69.066  1.00  0.00    -0.353 A  
HETATM    4  C   UNL     1     -11.291  13.954  67.824  1.00  0.00    -0.308 A  
HETATM    5  C   UNL     1     -10.750  11.478  68.980  1.00  0.00    -0.233 A  
HETATM    6  N   UNL     1     -11.444  15.076  67.095  1.00  0.00    -0.332 NA 
HETATM    7  C   UNL     1     -10.039  11.742  67.803  1.00  0.00    -0.199 A  
HETATM    8  C   UNL     1     -10.337  12.975  67.191  1.00  0.00    -0.243 A  
HETATM    9  S   UNL     1     -10.508  14.890  65.735  1.00  0.00    -0.356 SA 
HETATM   10  N   UNL     1      -9.835  13.403  66.023  1.00  0.00    -0.284 NA 
ENDROOT
BRANCH   3  11
HETATM   11  N   UNL     1     -12.801  14.667  69.609  1.00  0.00    -0.520 NA 
HETATM   12  H   UNL     1     -13.425  15.136  68.952  1.00  0.00     0.000 HD 
BRANCH  11  13
HETATM   13  C   UNL     1     -12.887  15.066  70.907  1.00  0.00    -0.391 C  
HETATM   14  C   UNL     1     -11.944  15.988  72.764  1.00  0.00    -0.518 C  
HETATM   15  N   UNL     1     -11.725  15.615  71.379  1.00  0.00    -0.385 NA 
HETATM   16  C   UNL     1     -13.448  15.774  72.916  1.00  0.00    -0.580 C  
HETATM   17  N   UNL     1     -13.868  14.962  71.753  1.00  0.00    -0.415 NA 
ENDBRANCH  11  13
ENDBRANCH   3  11
TORSDOF 2
ENDMDL
MODEL       13
REMARK 921   NORMALIZED FREE ENERGY PREDICTED BY IDOCK:   -5.20 KCAL/MOL
REMARK 922        TOTAL FREE ENERGY PREDICTED BY IDOCK:   -6.15 KCAL/MOL
REMARK 923 INTER-LIGAND FREE ENERGY PREDICTED BY IDOCK:   -5.87 KCAL/MOL
REMARK 924 INTRA-LIGAND FREE ENERGY PREDICTED BY IDOCK:   -0.27 KCAL/MOL
REMARK 927      BINDING AFFINITY PREDICTED BY RF-SCORE:    0.00 PKD
ROOT
HETATM    1 CL   UNL     1     -11.400  16.757  68.350  1.00  0.00    -0.192 Cl 
HETATM    2  C   UNL     1     -10.342  17.936  67.629  1.00  0.00    -0.381 A  
HETATM    3  C   UNL     1      -9.454  17.610  66.567  1.00  0.00    -0.283 A  
HETATM    4  C   UNL     1      -8.456  18.616  66.348  1.00  0.00    -0.272 A  
HETATM    5  C   UNL     1     -10.349  19.189  68.310  1.00  0.00    -0.448 A  
HETATM    6  N   UNL     1      -7.439  18.515  65.471  1.00  0.00    -0.490 NA 
HETATM    7  C   UNL     1      -9.425  20.215  68.070  1.00  0.00    -0.389 A  
HETATM    8  C   UNL     1      -8.441  19.916  67.108  1.00  0.00    -0.324 A  
HETATM    9  S   UNL     1      -6.541  19.904  65.623  1.00  0.00    -0.272 SA 
HETATM   10  N   UNL     1      -7.416  20.714  66.774  1.00  0.00    -0.251 NA 
ENDROOT
BRANCH   3  11
HETATM   11  N   UNL     1      -9.420  16.441  65.790  1.00  0.00    -0.499 NA 
HETATM   12  H   UNL     1      -8.514  15.977  65.713  1.00  0.00     0.000 HD 
BRANCH  11  13
HETATM   13  C   UNL     1     -10.451  15.852  65.125  1.00  0.00    -0.335 C  
HETATM   14  C   UNL     1     -11.635  13.992  64.549  1.00  0.00    -0.391 C  
HETATM   15  N   UNL     1     -10.508  14.496  65.311  1.00  0.00    -0.363 NA 
HETATM   16  C   UNL     1     -12.319  15.283  64.106  1.00  0.00    -0.044 C  
HETATM   17  N   UNL     1     -11.338  16.367  64.326  1.00  0.00    -0.942 NA 
ENDBRANCH  11  13
ENDBRANCH   3  11
TORSDOF 2
ENDMDL
MODEL       14
REMARK 921   NORMALIZED FREE ENERGY PREDICTED BY IDOCK:   -5.20 KCAL/MOL
REMARK 922        TOTAL FREE ENERGY PREDICTED BY IDOCK:   -6.14 KCAL/MOL
REMARK 923 INTER-LIGAND FREE ENERGY PREDICTED BY IDOCK:   -5.79 KCAL/MOL
REMARK 924 INTRA-LIGAND FREE ENERGY PREDICTED BY IDOCK:   -0.35 KCAL/MOL
REMARK 927      BINDING AFFINITY PREDICTED BY RF-SCORE:    0.00 PKD
ROOT
HETATM    1 CL   UNL     1     -11.834  16.011  71.142  1.00  0.00    -0.463 Cl 
HETATM    2  C   UNL     1     -11.610  14.928  69.799  1.00  0.00    -0.303 A  
HETATM    3  C   UNL     1     -11.417  15.396  68.469  1.00  0.00    -0.350 A  
HETATM    4  C   UNL     1     -11.584  14.365  67.487  1.00  0.00    -0.373 A  
HETATM    5  C   UNL     1     -11.796  13.556  70.144  1.00  0.00    -0.348 A  
HETATM    6  N   UNL     1     -11.549  14.556  66.154  1.00  0.00    -0.368 NA 
HETATM    7  C   UNL     1     -11.897  12.520  69.207  1.00  0.00    -0.360 A  
HETATM    8  C   UNL     1     -11.831  12.926  67.860  1.00  0.00    -0.339 A  
HETATM    9  S   UNL     1     -11.838  13.079  65.453  1.00  0.00    -0.414 SA 
HETATM   10  N   UNL     1     -11.980  12.121  66.799  1.00  0.00    -0.615 NA 
ENDROOT
BRANCH   3  11
HETATM   11  N   UNL     1     -11.152  16.706  68.039  1.00  0.00    -0.312 NA 
HETATM   12  H   UNL     1     -11.879  17.152  67.479  1.00  0.00     0.000 HD 
BRANCH  11  13
HETATM   13  C   UNL     1     -10.040  17.452  68.279  1.00  0.00    -0.339 C  
HETATM   14  C   UNL     1      -7.774  17.696  68.267  1.00  0.00    -0.253 C  
HETATM   15  N   UNL     1      -8.877  16.805  67.957  1.00  0.00    -0.212 NA 
HETATM   16  C   UNL     1      -8.502  18.999  68.591  1.00  0.00    -0.359 C  
HETATM   17  N   UNL     1      -9.921  18.637  68.800  1.00  0.00    -0.387 NA 
ENDBRANCH  11  13
ENDBRANCH   3  11
TORSDOF 2
ENDMDL
MODEL       15
REMARK 921   NORMALIZED FREE ENERGY PREDICTED BY IDOCK:   -5.16 KCAL/MOL
REMARK 922        TOTAL FREE ENERGY PREDICTED BY IDOCK:   -6.10 KCAL/MOL
REMARK 923 INTER-LIGAND FREE ENERGY PREDICTED BY IDOCK:   -5.74 KCAL/MOL
REMARK 924 INTRA-LIGAND FREE ENERGY PREDICTED BY IDOCK:   -0.36 KCAL/MOL
REMARK 927      BINDING AFFINITY PREDICTED BY RF-SCORE:    0.00 PKD
ROOT
HETATM    1 CL   UNL     1     -13.235  11.795  71.809  1.00  0.00    -0.523 Cl 
HETATM    2  C   UNL     1     -12.485  10.261  71.472  1.00  0.00    -0.422 A  
HETATM    3  C   UNL     1     -11.513  10.100  70.444  1.00  0.00    -0.322 A  
HETATM    4  C   UNL     1     -11.274   8.726  70.116  1.00  0.00    -0.152 A  
HETATM    5  C   UNL     1     -13.053   9.181  72.211  1.00  0.00    -0.509 A  
HETATM    6  N   UNL     1     -10.476   8.299  69.119  1.00  0.00    -0.220 NA 
HETATM    7  C   UNL     1     -12.785   7.831  71.953  1.00  0.00    -0.328 A  
HETATM    8  C   UNL     1     -11.918   7.592  70.870  1.00  0.00    -0.251 A  
HETATM    9  S   UNL     1     -10.565   6.640  69.115  1.00  0.00    -0.267 SA 
HETATM   10  N   UNL     1     -11.584   6.382  70.397  1.00  0.00    -0.399 NA 
ENDROOT
BRANCH   3  11
HETATM   11  N   UNL     1     -10.844  11.098  69.717  1.00  0.00    -0.459 NA 
HETATM   12  H   UNL     1      -9.883  11.292  69.998  1.00  0.00     0.000 HD 
BRANCH  11  13
HETATM   13  C   UNL     1     -11.325  11.837  68.681  1.00  0.00    -0.270 C  
HETATM   14  C   UNL     1     -12.031  13.827  67.824  1.00  0.00    -0.356 C  
HETATM   15  N   UNL     1     -11.511  13.156  69.000  1.00  0.00    -0.278 NA 
HETATM   16  C   UNL     1     -11.892  12.745  66.756  1.00  0.00    -0.382 C  
HETATM   17  N   UNL     1     -11.669  11.476  67.480  1.00  0.00    -0.604 NA 
ENDBRANCH  11  13
ENDBRANCH   3  11
TORSDOF 2
ENDMDL
MODEL       16
REMARK 921   NORMALIZED FREE ENERGY PREDICTED BY IDOCK:   -5.14 KCAL/MOL
REMARK 922        TOTAL FREE ENERGY PREDICTED BY IDOCK:   -6.08 KCAL/MOL
REMARK 923 INTER-LIGAND FREE ENERGY PREDICTED BY IDOCK:   -5.92 KCAL/MOL
REMARK 924 INTRA-LIGAND FREE ENERGY PREDICTED BY IDOCK:   -0.16 KCAL/MOL
REMARK 927      BINDING AFFINITY PREDICTED BY RF-SCORE:    0.00 PKD
ROOT
HETATM    1 CL   UNL     1     -12.067  11.677  69.796  1.00  0.00    -0.368 Cl 
HETATM    2  C   UNL     1     -11.903  13.282  69.145  1.00  0.00    -0.329 A  
HETATM    3  C   UNL     1     -11.300  13.531  67.879  1.00  0.00    -0.289 A  
HETATM    4  C   UNL     1     -10.968  14.911  67.684  1.00  0.00    -0.300 A  
HETATM    5  C   UNL     1     -12.281  14.305  70.064  1.00  0.00    -0.417 A  
HETATM    6  N   UNL     1     -10.306  15.402  66.618  1.00  0.00    -0.273 NA 
HETATM    7  C   UNL     1     -12.027  15.668  69.867  1.00  0.00    -0.376 A  
HETATM    8  C   UNL     1     -11.327  15.978  68.685  1.00  0.00    -0.383 A  
HETATM    9  S   UNL     1     -10.127  17.032  66.878  1.00  0.00    -0.307 SA 
HETATM   10  N   UNL     1     -10.911  17.202  68.329  1.00  0.00    -0.357 NA 
ENDROOT
BRANCH   3  11
HETATM   11  N   UNL     1     -10.963  12.604  66.880  1.00  0.00    -0.254 NA 
HETATM   12  H   UNL     1     -10.253  11.914  67.127  1.00  0.00     0.000 HD 
BRANCH  11  13
HETATM   13  C   UNL     1     -11.471  12.516  65.620  1.00  0.00    -0.359 C  
HETATM   14  C   UNL     1     -11.189  12.141  63.390  1.00  0.00    -0.414 C  
HETATM   15  N   UNL     1     -10.528  12.194  64.681  1.00  0.00    -0.286 NA 
HETATM   16  C   UNL     1     -12.660  12.257  63.784  1.00  0.00    -0.470 C  
HETATM   17  N   UNL     1     -12.676  12.733  65.184  1.00  0.00    -0.740 NA 
ENDBRANCH  11  13
ENDBRANCH   3  11
TORSDOF 2
ENDMDL
MODEL       17
REMARK 921   NORMALIZED FREE ENERGY PREDICTED BY IDOCK:   -5.10 KCAL/MOL
REMARK 922        TOTAL FREE ENERGY PREDICTED BY IDOCK:   -6.04 KCAL/MOL
REMARK 923 INTER-LIGAND FREE ENERGY PREDICTED BY IDOCK:   -5.79 KCAL/MOL
REMARK 924 INTRA-LIGAND FREE ENERGY PREDICTED BY IDOCK:   -0.25 KCAL/MOL
REMARK 927      BINDING AFFINITY PREDICTED BY RF-SCORE:    0.00 PKD
ROOT
HETATM    1 CL   UNL     1      -9.609  16.679  68.152  1.00  0.00    -0.224 Cl 
HETATM    2  C   UNL     1     -10.638  15.925  66.968  1.00  0.00    -0.306 A  
HETATM    3  C   UNL     1     -11.290  14.684  67.210  1.00  0.00    -0.353 A  
HETATM    4  C   UNL     1     -11.809  14.086  66.014  1.00  0.00    -0.388 A  
HETATM    5  C   UNL     1     -10.628  16.590  65.706  1.00  0.00    -0.307 A  
HETATM    6  N   UNL     1     -12.386  12.871  65.946  1.00  0.00    -0.540 NA 
HETATM    7  C   UNL     1     -11.184  16.058  64.536  1.00  0.00    -0.309 A  
HETATM    8  C   UNL     1     -11.747  14.775  64.675  1.00  0.00    -0.422 A  
HETATM    9  S   UNL     1     -12.772  12.616  64.352  1.00  0.00    -0.248 SA 
HETATM   10  N   UNL     1     -12.266  14.044  63.678  1.00  0.00    -0.660 NA 
ENDROOT
BRANCH   3  11
HETATM   11  N   UNL     1     -11.421  13.992  68.425  1.00  0.00    -0.287 NA 
HETATM   12  H   UNL     1     -10.988  13.069  68.466  1.00  0.00     0.000 HD 
BRANCH  11  13
HETATM   13  C   UNL     1     -12.056  14.407  69.555  1.00  0.00    -0.322 C  
HETATM   14  C   UNL     1     -12.994  13.955  71.582  1.00  0.00    -0.352 C  
HETATM   15  N   UNL     1     -12.312  13.388  70.434  1.00  0.00    -0.333 NA 
HETATM   16  C   UNL     1     -12.875  15.453  71.311  1.00  0.00    -0.452 C  
HETATM   17  N   UNL     1     -12.485  15.586  69.891  1.00  0.00    -0.290 NA 
ENDBRANCH  11  13
ENDBRANCH   3  11
TORSDOF 2
ENDMDL
MODEL       18
REMARK 921   NORMALIZED FREE ENERGY PREDICTED BY IDOCK:   -5.09 KCAL/MOL
REMARK 922        TOTAL FREE ENERGY PREDICTED BY IDOCK:   -6.02 KCAL/MOL
REMARK 923 INTER-LIGAND FREE ENERGY PREDICTED BY IDOCK:   -5.71 KCAL/MOL
REMARK 924 INTRA-LIGAND FREE ENERGY PREDICTED BY IDOCK:   -0.31 KCAL/MOL
REMARK 927      BINDING AFFINITY PREDICTED BY RF-SCORE:    0.00 PKD
ROOT
HETATM    1 CL   UNL     1     -11.173  10.583  67.680  1.00  0.00    -0.387 Cl 
HETATM    2  C   UNL     1     -11.495  11.760  68.921  1.00  0.00    -0.297 A  
HETATM    3  C   UNL     1     -12.157  11.422  70.134  1.00  0.00    -0.357 A  
HETATM    4  C   UNL     1     -12.613  12.573  70.858  1.00  0.00    -0.241 A  
HETATM    5  C   UNL     1     -11.175  13.094  68.530  1.00  0.00    -0.307 A  
HETATM    6  N   UNL     1     -13.348  12.533  71.985  1.00  0.00    -0.492 NA 
HETATM    7  C   UNL     1     -11.551  14.233  69.252  1.00  0.00    -0.350 A  
HETATM    8  C   UNL     1     -12.313  13.979  70.409  1.00  0.00    -0.359 A  
HETATM    9  S   UNL     1     -13.657  14.110  72.407  1.00  0.00    -0.563 SA 
HETATM   10  N   UNL     1     -12.844  14.916  71.209  1.00  0.00    -0.322 NA 
ENDROOT
BRANCH   3  11
HETATM   11  N   UNL     1     -12.447  10.144  70.640  1.00  0.00    -0.424 NA 
HETATM   12  H   UNL     1     -13.389   9.793  70.463  1.00  0.00     0.000 HD 
BRANCH  11  13
HETATM   13  C   UNL     1     -11.621   9.318  71.338  1.00  0.00    -0.367 C  
HETATM   14  C   UNL     1     -11.310   7.589  72.789  1.00  0.00    -0.336 C  
HETATM   15  N   UNL     1     -12.295   8.395  72.092  1.00  0.00    -0.349 NA 
HETATM   16  C   UNL     1     -10.007   8.052  72.140  1.00  0.00    -0.225 C  
HETATM   17  N   UNL     1     -10.325   9.309  71.428  1.00  0.00    -0.335 NA 
ENDBRANCH  11  13
ENDBRANCH   3  11
TORSDOF 2
ENDMDL
MODEL       19
REMARK 921   NORMALIZED FREE ENERGY PREDICTED BY IDOCK:   -5.02 KCAL/MOL
REMARK 922        TOTAL FREE ENERGY PREDICTED BY IDOCK:   -5.94 KCAL/MOL
REMARK 923 INTER-LIGAND FREE ENERGY PREDICTED BY IDOCK:   -5.59 KCAL/MOL
REMARK 924 INTRA-LIGAND FREE ENERGY PREDICTED BY IDOCK:   -0.36 KCAL/MOL
REMARK 927      BINDING AFFINITY PREDICTED BY RF-SCORE:    0.00 PKD
ROOT
HETATM    1 CL   UNL     1     -11.416  16.108  70.529  1.00  0.00    -0.387 Cl 
HETATM    2  C   UNL     1     -11.300  15.092  69.121  1.00  0.00    -0.298 A  
HETATM    3  C   UNL     1     -11.074  15.621  67.819  1.00  0.00    -0.311 A  
HETATM    4  C   UNL     1     -11.340  14.671  66.779  1.00  0.00    -0.356 A  
HETATM    5  C   UNL     1     -11.607  13.725  69.386  1.00  0.00    -0.365 A  
HETATM    6  N   UNL     1     -11.298  14.939  65.460  1.00  0.00    -0.350 NA 
HETATM    7  C   UNL     1     -11.808  12.761  68.390  1.00  0.00    -0.353 A  
HETATM    8  C   UNL     1     -11.714  13.241  67.069  1.00  0.00    -0.389 A  
HETATM    9  S   UNL     1     -11.724  13.539  64.676  1.00  0.00    -0.401 SA 
HETATM   10  N   UNL     1     -11.943  12.518  65.963  1.00  0.00    -0.561 NA 
ENDROOT
BRANCH   3  11
HETATM   11  N   UNL     1     -10.695  16.926  67.465  1.00  0.00    -0.308 NA 
HETATM   12  H   UNL     1     -11.449  17.554  67.185  1.00  0.00     0.000 HD 
BRANCH  11  13
HETATM   13  C   UNL     1      -9.440  17.453  67.451  1.00  0.00    -0.246 C  
HETATM   14  C   UNL     1      -7.624  18.218  66.308  1.00  0.00    -0.256 C  
HETATM   15  N   UNL     1      -8.961  17.668  66.186  1.00  0.00    -0.492 NA 
HETATM   16  C   UNL     1      -7.526  18.483  67.808  1.00  0.00    -0.230 C  
HETATM   17  N   UNL     1      -8.635  17.730  68.433  1.00  0.00    -0.286 NA 
ENDBRANCH  11  13
ENDBRANCH   3  11
TORSDOF 2
ENDMDL
MODEL       20
REMARK 921   NORMALIZED FREE ENERGY PREDICTED BY IDOCK:   -5.00 KCAL/MOL
REMARK 922        TOTAL FREE ENERGY PREDICTED BY IDOCK:   -5.92 KCAL/MOL
REMARK 923 INTER-LIGAND FREE ENERGY PREDICTED BY IDOCK:   -5.58 KCAL/MOL
REMARK 924 INTRA-LIGAND FREE ENERGY PREDICTED BY IDOCK:   -0.35 KCAL/MOL
REMARK 927      BINDING AFFINITY PREDICTED BY RF-SCORE:    0.00 PKD
ROOT
HETATM    1 CL   UNL     1     -13.344  15.423  71.257  1.00  0.00    -0.562 Cl 
HETATM    2  C   UNL     1     -12.558  14.131  70.396  1.00  0.00    -0.332 A  
HETATM    3  C   UNL     1     -12.113  14.274  69.052  1.00  0.00    -0.285 A  
HETATM    4  C   UNL     1     -11.802  13.019  68.433  1.00  0.00    -0.334 A  
HETATM    5  C   UNL     1     -12.554  12.897  71.112  1.00  0.00    -0.373 A  
HETATM    6  N   UNL     1     -11.451  12.862  67.142  1.00  0.00    -0.316 NA 
HETATM    7  C   UNL     1     -12.192  11.667  70.549  1.00  0.00    -0.451 A  
HETATM    8  C   UNL     1     -11.850  11.714  69.184  1.00  0.00    -0.326 A  
HETATM    9  S   UNL     1     -11.242  11.233  66.901  1.00  0.00    -0.147 SA 
HETATM   10  N   UNL     1     -11.546  10.653  68.423  1.00  0.00    -0.399 NA 
ENDROOT
BRANCH   3  11
HETATM   11  N   UNL     1     -12.008  15.450  68.292  1.00  0.00    -0.501 NA 
HETATM   12  H   UNL     1     -12.795  15.662  67.678  1.00  0.00     0.000 HD 
BRANCH  11  13
HETATM   13  C   UNL     1     -10.980  16.342  68.276  1.00  0.00    -0.355 C  
HETATM   14  C   UNL     1      -9.338  17.456  67.154  1.00  0.00    -0.245 C  
HETATM   15  N   UNL     1     -10.419  16.495  67.036  1.00  0.00    -0.304 NA 
HETATM   16  C   UNL     1      -9.531  17.974  68.578  1.00  0.00    -0.319 C  
HETATM   17  N   UNL     1     -10.437  17.015  69.246  1.00  0.00    -0.326 NA 
ENDBRANCH  11  13
ENDBRANCH   3  11
TORSDOF 2
ENDMDL
MODEL       21
REMARK 921   NORMALIZED FREE ENERGY PREDICTED BY IDOCK:   -4.99 KCAL/MOL
REMARK 922        TOTAL FREE ENERGY PREDICTED BY IDOCK:   -5.92 KCAL/MOL
REMARK 923 INTER-LIGAND FREE ENERGY PREDICTED BY IDOCK:   -5.66 KCAL/MOL
REMARK 924 INTRA-LIGAND FREE ENERGY PREDICTED BY IDOCK:   -0.26 KCAL/MOL
REMARK 927      BINDING AFFINITY PREDICTED BY RF-SCORE:    0.00 PKD
ROOT
HETATM    1 CL   UNL     1      -8.818  10.923  68.331  1.00  0.00    -0.141 Cl 
HETATM    2  C   UNL     1      -9.915  10.107  69.407  1.00  0.00    -0.228 A  
HETATM    3  C   UNL     1     -11.316  10.355  69.395  1.00  0.00    -0.250 A  
HETATM    4  C   UNL     1     -11.982   9.843  70.557  1.00  0.00    -0.239 A  
HETATM    5  C   UNL     1      -9.254   9.305  70.384  1.00  0.00    -0.291 A  
HETATM    6  N   UNL     1     -13.287  10.023  70.840  1.00  0.00    -0.325 NA 
HETATM    7  C   UNL     1      -9.894   8.738  71.494  1.00  0.00    -0.371 A  
HETATM    8  C   UNL     1     -11.265   9.039  71.610  1.00  0.00    -0.361 A  
HETATM    9  S   UNL     1     -13.562   9.284  72.302  1.00  0.00    -0.453 SA 
HETATM   10  N   UNL     1     -12.057   8.669  72.626  1.00  0.00    -0.300 NA 
ENDROOT
BRANCH   3  11
HETATM   11  N   UNL     1     -12.065  11.063  68.441  1.00  0.00    -0.786 NA 
HETATM   12  H   UNL     1     -12.839  10.557  68.011  1.00  0.00     0.000 HD 
BRANCH  11  13
HETATM   13  C   UNL     1     -11.881  12.345  68.023  1.00  0.00    -0.316 C  
HETATM   14  C   UNL     1     -11.671  13.872  66.345  1.00  0.00    -0.383 C  
HETATM   15  N   UNL     1     -11.884  12.472  66.659  1.00  0.00    -0.520 NA 
HETATM   16  C   UNL     1     -11.775  14.525  67.721  1.00  0.00    -0.374 C  
HETATM   17  N   UNL     1     -11.662  13.428  68.707  1.00  0.00    -0.318 NA 
ENDBRANCH  11  13
ENDBRANCH   3  11
TORSDOF 2
ENDMDL
MODEL       22
REMARK 921   NORMALIZED FREE ENERGY PREDICTED BY IDOCK:   -4.99 KCAL/MOL
REMARK 922        TOTAL FREE ENERGY PREDICTED BY IDOCK:   -5.91 KCAL/MOL
REMARK 923 INTER-LIGAND FREE ENERGY PREDICTED BY IDOCK:   -5.76 KCAL/MOL
REMARK 924 INTRA-LIGAND FREE ENERGY PREDICTED BY IDOCK:   -0.15 KCAL/MOL
REMARK 927      BINDING AFFINITY PREDICTED BY RF-SCORE:    0.00 PKD
ROOT
HETATM    1 CL   UNL     1      -9.776  14.207  67.863  1.00  0.00    -0.218 Cl 
HETATM    2  C   UNL     1     -10.899  14.450  69.170  1.00  0.00    -0.257 A  
HETATM    3  C   UNL     1     -10.894  15.630  69.966  1.00  0.00    -0.330 A  
HETATM    4  C   UNL     1     -11.657  15.490  71.172  1.00  0.00    -0.397 A  
HETATM    5  C   UNL     1     -11.695  13.300  69.450  1.00  0.00    -0.383 A  
HETATM    6  N   UNL     1     -11.741  16.419  72.143  1.00  0.00    -0.475 NA 
HETATM    7  C   UNL     1     -12.501  13.164  70.588  1.00  0.00    -0.363 A  
HETATM    8  C   UNL     1     -12.455  14.250  71.483  1.00  0.00    -0.356 A  
HETATM    9  S   UNL     1     -12.697  15.773  73.338  1.00  0.00    -0.612 SA 
HETATM   10  N   UNL     1     -13.082  14.307  72.667  1.00  0.00    -0.463 NA 
ENDROOT
BRANCH   3  11
HETATM   11  N   UNL     1     -10.208  16.833  69.734  1.00  0.00    -0.082 NA 
HETATM   12  H   UNL     1      -9.545  17.119  70.454  1.00  0.00     0.000 HD 
BRANCH  11  13
HETATM   13  C   UNL     1     -10.323  17.662  68.661  1.00  0.00    -0.359 C  
HETATM   14  C   UNL     1     -10.406  19.761  67.778  1.00  0.00    -0.437 C  
HETATM   15  N   UNL     1     -10.264  18.989  68.997  1.00  0.00    -0.278 NA 
HETATM   16  C   UNL     1     -10.326  18.677  66.706  1.00  0.00    -0.407 C  
HETATM   17  N   UNL     1     -10.522  17.389  67.406  1.00  0.00    -0.345 NA 
ENDBRANCH  11  13
ENDBRANCH   3  11
TORSDOF 2
ENDMDL
MODEL       23
REMARK 921   NORMALIZED FREE ENERGY PREDICTED BY IDOCK:   -4.99 KCAL/MOL
REMARK 922        TOTAL FREE ENERGY PREDICTED BY IDOCK:   -5.91 KCAL/MOL
REMARK 923 INTER-LIGAND FREE ENERGY PREDICTED BY IDOCK:   -5.61 KCAL/MOL
REMARK 924 INTRA-LIGAND FREE ENERGY PREDICTED BY IDOCK:   -0.30 KCAL/MOL
REMARK 927      BINDING AFFINITY PREDICTED BY RF-SCORE:    0.00 PKD
ROOT
HETATM    1 CL   UNL     1     -11.064  16.080  64.707  1.00  0.00    -0.450 Cl 
HETATM    2  C   UNL     1     -11.506  14.725  65.706  1.00  0.00    -0.322 A  
HETATM    3  C   UNL     1     -11.461  14.782  67.127  1.00  0.00    -0.364 A  
HETATM    4  C   UNL     1     -11.539  13.488  67.739  1.00  0.00    -0.339 A  
HETATM    5  C   UNL     1     -11.757  13.534  64.962  1.00  0.00    -0.354 A  
HETATM    6  N   UNL     1     -11.424  13.250  69.059  1.00  0.00    -0.283 NA 
HETATM    7  C   UNL     1     -11.902  12.266  65.539  1.00  0.00    -0.420 A  
HETATM    8  C   UNL     1     -11.753  12.229  66.939  1.00  0.00    -0.334 A  
HETATM    9  S   UNL     1     -11.537  11.605  69.259  1.00  0.00    -0.348 SA 
HETATM   10  N   UNL     1     -11.777  11.119  67.692  1.00  0.00    -0.598 NA 
ENDROOT
BRANCH   3  11
HETATM   11  N   UNL     1     -11.297  15.910  67.947  1.00  0.00    -0.300 NA 
HETATM   12  H   UNL     1     -12.076  16.133  68.568  1.00  0.00     0.000 HD 
BRANCH  11  13
HETATM   13  C   UNL     1     -10.223  16.743  68.013  1.00  0.00    -0.300 C  
HETATM   14  C   UNL     1      -9.334  18.841  67.962  1.00  0.00    -0.306 C  
HETATM   15  N   UNL     1     -10.557  18.065  67.885  1.00  0.00    -0.394 NA 
HETATM   16  C   UNL     1      -8.313  17.781  68.372  1.00  0.00    -0.295 C  
HETATM   17  N   UNL     1      -8.957  16.472  68.127  1.00  0.00    -0.202 NA 
ENDBRANCH  11  13
ENDBRANCH   3  11
TORSDOF 2
ENDMDL
MODEL       24
REMARK 921   NORMALIZED FREE ENERGY PREDICTED BY IDOCK:   -4.98 KCAL/MOL
REMARK 922        TOTAL FREE ENERGY PREDICTED BY IDOCK:   -5.90 KCAL/MOL
REMARK 923 INTER-LIGAND FREE ENERGY PREDICTED BY IDOCK:   -5.58 KCAL/MOL
REMARK 924 INTRA-LIGAND FREE ENERGY PREDICTED BY IDOCK:   -0.32 KCAL/MOL
REMARK 927      BINDING AFFINITY PREDICTED BY RF-SCORE:    0.00 PKD
ROOT
HETATM    1 CL   UNL     1     -12.186  13.860  70.295  1.00  0.00    -0.407 Cl 
HETATM    2  C   UNL     1     -11.917  13.611  68.594  1.00  0.00    -0.360 A  
HETATM    3  C   UNL     1     -11.835  12.311  68.021  1.00  0.00    -0.305 A  
HETATM    4  C   UNL     1     -11.289  12.321  66.695  1.00  0.00    -0.343 A  
HETATM    5  C   UNL     1     -11.636  14.816  67.885  1.00  0.00    -0.373 A  
HETATM    6  N   UNL     1     -11.016  11.223  65.965  1.00  0.00    -0.223 NA 
HETATM    7  C   UNL     1     -11.163  14.856  66.567  1.00  0.00    -0.335 A  
HETATM    8  C   UNL     1     -10.947  13.598  65.973  1.00  0.00    -0.286 A  
HETATM    9  S   UNL     1     -10.361  11.753  64.534  1.00  0.00    -0.314 SA 
HETATM   10  N   UNL     1     -10.428  13.395  64.753  1.00  0.00    -0.390 NA 
ENDROOT
BRANCH   3  11
HETATM   11  N   UNL     1     -12.162  11.079  68.610  1.00  0.00    -0.771 NA 
HETATM   12  H   UNL     1     -12.985  10.606  68.237  1.00  0.00     0.000 HD 
BRANCH  11  13
HETATM   13  C   UNL     1     -11.511  10.440  69.620  1.00  0.00    -0.262 C  
HETATM   14  C   UNL     1     -11.539   9.351  71.621  1.00  0.00    -0.396 C  
HETATM   15  N   UNL     1     -12.350  10.000  70.609  1.00  0.00    -0.275 NA 
HETATM   16  C   UNL     1     -10.171   9.298  70.945  1.00  0.00    -0.301 C  
HETATM   17  N   UNL     1     -10.240  10.234  69.801  1.00  0.00    -0.238 NA 
ENDBRANCH  11  13
ENDBRANCH   3  11
TORSDOF 2
ENDMDL
MODEL       25
REMARK 921   NORMALIZED FREE ENERGY PREDICTED BY IDOCK:   -4.93 KCAL/MOL
REMARK 922        TOTAL FREE ENERGY PREDICTED BY IDOCK:   -5.84 KCAL/MOL
REMARK 923 INTER-LIGAND FREE ENERGY PREDICTED BY IDOCK:   -5.52 KCAL/MOL
REMARK 924 INTRA-LIGAND FREE ENERGY PREDICTED BY IDOCK:   -0.32 KCAL/MOL
REMARK 927      BINDING AFFINITY PREDICTED BY RF-SCORE:    0.00 PKD
ROOT
HETATM    1 CL   UNL     1     -11.460  12.710  66.762  1.00  0.00    -0.382 Cl 
HETATM    2  C   UNL     1     -11.671  13.470  68.313  1.00  0.00    -0.359 A  
HETATM    3  C   UNL     1     -12.087  12.744  69.464  1.00  0.00    -0.205 A  
HETATM    4  C   UNL     1     -12.514  13.597  70.535  1.00  0.00    -0.324 A  
HETATM    5  C   UNL     1     -11.541  14.890  68.267  1.00  0.00    -0.356 A  
HETATM    6  N   UNL     1     -13.043  13.170  71.698  1.00  0.00    -0.383 NA 
HETATM    7  C   UNL     1     -11.890  15.742  69.323  1.00  0.00    -0.358 A  
HETATM    8  C   UNL     1     -12.420  15.099  70.457  1.00  0.00    -0.379 A  
HETATM    9  S   UNL     1     -13.415  14.527  72.579  1.00  0.00    -0.510 SA 
HETATM   10  N   UNL     1     -12.890  15.717  71.551  1.00  0.00    -0.471 NA 
ENDROOT
BRANCH   3  11
HETATM   11  N   UNL     1     -12.173  11.353  69.631  1.00  0.00    -0.280 NA 
HETATM   12  H   UNL     1     -13.052  10.919  69.349  1.00  0.00     0.000 HD 
BRANCH  11  13
HETATM   13  C   UNL     1     -11.222  10.513  70.124  1.00  0.00    -0.315 C  
HETATM   14  C   UNL     1     -10.508   9.037  71.707  1.00  0.00    -0.348 C  
HETATM   15  N   UNL     1     -11.603   9.889  71.283  1.00  0.00    -0.380 NA 
HETATM   16  C   UNL     1      -9.568   9.109  70.506  1.00  0.00    -0.243 C  
HETATM   17  N   UNL     1     -10.022  10.260  69.695  1.00  0.00    -0.227 NA 
ENDBRANCH  11  13
ENDBRANCH   3  11
TORSDOF 2
ENDMDL
MODEL       26
REMARK 921   NORMALIZED FREE ENERGY PREDICTED BY IDOCK:   -4.90 KCAL/MOL
REMARK 922        TOTAL FREE ENERGY PREDICTED BY IDOCK:   -5.82 KCAL/MOL
REMARK 923 INTER-LIGAND FREE ENERGY PREDICTED BY IDOCK:   -5.52 KCAL/MOL
REMARK 924 INTRA-LIGAND FREE ENERGY PREDICTED BY IDOCK:   -0.30 KCAL/MOL
REMARK 927      BINDING AFFINITY PREDICTED BY RF-SCORE:    0.00 PKD
ROOT
HETATM    1 CL   UNL     1     -12.393  12.793  70.714  1.00  0.00    -0.438 Cl 
HETATM    2  C   UNL     1     -12.181  11.099  71.051  1.00  0.00    -0.333 A  
HETATM    3  C   UNL     1     -11.224  10.302  70.363  1.00  0.00    -0.332 A  
HETATM    4  C   UNL     1     -11.436   8.896  70.547  1.00  0.00    -0.200 A  
HETATM    5  C   UNL     1     -13.155  10.577  71.953  1.00  0.00    -0.567 A  
HETATM    6  N   UNL     1     -10.734   7.923  69.934  1.00  0.00    -0.247 NA 
HETATM    7  C   UNL     1     -13.340   9.211  72.201  1.00  0.00    -0.525 A  
HETATM    8  C   UNL     1     -12.501   8.353  71.464  1.00  0.00    -0.312 A  
HETATM    9  S   UNL     1     -11.382   6.480  70.437  1.00  0.00    -0.405 SA 
HETATM   10  N   UNL     1     -12.553   7.013  71.483  1.00  0.00    -0.377 NA 
ENDROOT
BRANCH   3  11
HETATM   11  N   UNL     1     -10.184  10.726  69.520  1.00  0.00    -0.402 NA 
HETATM   12  H   UNL     1      -9.237  10.500  69.824  1.00  0.00     0.000 HD 
BRANCH  11  13
HETATM   13  C   UNL     1     -10.290  11.404  68.345  1.00  0.00    -0.195 C  
HETATM   14  C   UNL     1     -11.331  11.765  66.350  1.00  0.00    -0.297 C  
HETATM   15  N   UNL     1     -11.333  10.976  67.568  1.00  0.00    -0.452 NA 
HETATM   16  C   UNL     1     -10.284  12.830  66.665  1.00  0.00    -0.238 C  
HETATM   17  N   UNL     1      -9.538  12.339  67.844  1.00  0.00    -0.197 NA 
ENDBRANCH  11  13
ENDBRANCH   3  11
TORSDOF 2
ENDMDL
MODEL       27
REMARK 921   NORMALIZED FREE ENERGY PREDICTED BY IDOCK:   -4.89 KCAL/MOL
REMARK 922        TOTAL FREE ENERGY PREDICTED BY IDOCK:   -5.81 KCAL/MOL
REMARK 923 INTER-LIGAND FREE ENERGY PREDICTED BY IDOCK:   -5.45 KCAL/MOL
REMARK 924 INTRA-LIGAND FREE ENERGY PREDICTED BY IDOCK:   -0.36 KCAL/MOL
REMARK 927      BINDING AFFINITY PREDICTED BY RF-SCORE:    0.00 PKD
ROOT
HETATM    1 CL   UNL     1     -12.399  15.332  64.062  1.00  0.00    -0.193 Cl 
HETATM    2  C   UNL     1     -11.551  14.542  65.361  1.00  0.00    -0.355 A  
HETATM    3  C   UNL     1     -10.322  15.039  65.878  1.00  0.00    -0.313 A  
HETATM    4  C   UNL     1      -9.636  14.082  66.695  1.00  0.00    -0.289 A  
HETATM    5  C   UNL     1     -12.126  13.290  65.730  1.00  0.00    -0.491 A  
HETATM    6  N   UNL     1      -8.412  14.259  67.229  1.00  0.00    -0.202 NA 
HETATM    7  C   UNL     1     -11.507  12.365  66.579  1.00  0.00    -0.427 A  
HETATM    8  C   UNL     1     -10.230  12.740  67.039  1.00  0.00    -0.241 A  
HETATM    9  S   UNL     1      -8.041  12.861  68.045  1.00  0.00    -0.171 SA 
HETATM   10  N   UNL     1      -9.424  11.982  67.796  1.00  0.00    -0.184 NA 
ENDROOT
BRANCH   3  11
HETATM   11  N   UNL     1      -9.716  16.282  65.635  1.00  0.00    -0.500 NA 
HETATM   12  H   UNL     1      -8.882  16.269  65.047  1.00  0.00     0.000 HD 
BRANCH  11  13
HETATM   13  C   UNL     1     -10.108  17.502  66.092  1.00  0.00    -0.310 C  
HETATM   14  C   UNL     1     -10.385  18.986  67.799  1.00  0.00    -0.417 C  
HETATM   15  N   UNL     1      -9.923  17.658  67.440  1.00  0.00    -0.309 NA 
HETATM   16  C   UNL     1     -10.638  19.614  66.431  1.00  0.00    -0.486 C  
HETATM   17  N   UNL     1     -10.661  18.496  65.462  1.00  0.00    -0.560 NA 
ENDBRANCH  11  13
ENDBRANCH   3  11
TORSDOF 2
ENDMDL
MODEL       28
REMARK 921   NORMALIZED FREE ENERGY PREDICTED BY IDOCK:   -4.89 KCAL/MOL
REMARK 922        TOTAL FREE ENERGY PREDICTED BY IDOCK:   -5.81 KCAL/MOL
REMARK 923 INTER-LIGAND FREE ENERGY PREDICTED BY IDOCK:   -5.48 KCAL/MOL
REMARK 924 INTRA-LIGAND FREE ENERGY PREDICTED BY IDOCK:   -0.32 KCAL/MOL
REMARK 927      BINDING AFFINITY PREDICTED BY RF-SCORE:    0.00 PKD
ROOT
HETATM    1 CL   UNL     1     -12.298  15.084  64.101  1.00  0.00    -0.362 Cl 
HETATM    2  C   UNL     1     -11.873  13.499  64.678  1.00  0.00    -0.394 A  
HETATM    3  C   UNL     1     -11.785  13.194  66.065  1.00  0.00    -0.379 A  
HETATM    4  C   UNL     1     -11.111  11.955  66.321  1.00  0.00    -0.314 A  
HETATM    5  C   UNL     1     -11.475  12.608  63.638  1.00  0.00    -0.563 A  
HETATM    6  N   UNL     1     -10.811  11.478  67.545  1.00  0.00    -0.222 NA 
HETATM    7  C   UNL     1     -10.874  11.363  63.861  1.00  0.00    -0.463 A  
HETATM    8  C   UNL     1     -10.649  11.044  65.214  1.00  0.00    -0.214 A  
HETATM    9  S   UNL     1      -9.998  10.049  67.312  1.00  0.00    -0.209 SA 
HETATM   10  N   UNL     1     -10.022   9.945  65.658  1.00  0.00    -0.295 NA 
ENDROOT
BRANCH   3  11
HETATM   11  N   UNL     1     -12.217  13.968  67.155  1.00  0.00    -0.532 NA 
HETATM   12  H   UNL     1     -13.155  13.769  67.505  1.00  0.00     0.000 HD 
BRANCH  11  13
HETATM   13  C   UNL     1     -11.534  14.953  67.799  1.00  0.00    -0.338 C  
HETATM   14  C   UNL     1     -11.142  16.201  69.665  1.00  0.00    -0.344 C  
HETATM   15  N   UNL     1     -11.934  15.126  69.097  1.00  0.00    -0.297 NA 
HETATM   16  C   UNL     1     -10.104  16.440  68.572  1.00  0.00    -0.248 C  
HETATM   17  N   UNL     1     -10.616  15.762  67.361  1.00  0.00    -0.308 NA 
ENDBRANCH  11  13
ENDBRANCH   3  11
TORSDOF 2
ENDMDL
MODEL       29
REMARK 921   NORMALIZED FREE ENERGY PREDICTED BY IDOCK:   -4.88 KCAL/MOL
REMARK 922        TOTAL FREE ENERGY PREDICTED BY IDOCK:   -5.79 KCAL/MOL
REMARK 923 INTER-LIGAND FREE ENERGY PREDICTED BY IDOCK:   -5.78 KCAL/MOL
REMARK 924 INTRA-LIGAND FREE ENERGY PREDICTED BY IDOCK:   -0.01 KCAL/MOL
REMARK 927      BINDING AFFINITY PREDICTED BY RF-SCORE:    0.00 PKD
ROOT
HETATM    1 CL   UNL     1     -12.926  10.043  71.757  1.00  0.00    -0.524 Cl 
HETATM    2  C   UNL     1     -12.924  11.741  71.377  1.00  0.00    -0.306 A  
HETATM    3  C   UNL     1     -12.032  12.305  70.422  1.00  0.00    -0.263 A  
HETATM    4  C   UNL     1     -11.965  13.735  70.500  1.00  0.00    -0.296 A  
HETATM    5  C   UNL     1     -13.779  12.509  72.222  1.00  0.00    -0.356 A  
HETATM    6  N   UNL     1     -11.132  14.508  69.778  1.00  0.00    -0.234 NA 
HETATM    7  C   UNL     1     -13.780  13.909  72.271  1.00  0.00    -0.660 A  
HETATM    8  C   UNL     1     -12.837  14.534  71.433  1.00  0.00    -0.336 A  
HETATM    9  S   UNL     1     -11.401  16.075  70.258  1.00  0.00    -0.372 SA 
HETATM   10  N   UNL     1     -12.609  15.854  71.372  1.00  0.00    -0.445 NA 
ENDROOT
BRANCH   3  11
HETATM   11  N   UNL     1     -11.211  11.637  69.499  1.00  0.00    -0.390 NA 
HETATM   12  H   UNL     1     -10.624  10.892  69.875  1.00  0.00     0.000 HD 
BRANCH  11  13
HETATM   13  C   UNL     1     -11.106  11.864  68.161  1.00  0.00    -0.242 C  
HETATM   14  C   UNL     1      -9.835  12.222  66.305  1.00  0.00    -0.241 C  
HETATM   15  N   UNL     1      -9.810  11.974  67.734  1.00  0.00    -0.186 NA 
HETATM   16  C   UNL     1     -11.310  12.011  65.973  1.00  0.00    -0.343 C  
HETATM   17  N   UNL     1     -12.031  12.035  67.264  1.00  0.00    -0.590 NA 
ENDBRANCH  11  13
ENDBRANCH   3  11
TORSDOF 2
ENDMDL
MODEL       30
REMARK 921   NORMALIZED FREE ENERGY PREDICTED BY IDOCK:   -4.84 KCAL/MOL
REMARK 922        TOTAL FREE ENERGY PREDICTED BY IDOCK:   -5.74 KCAL/MOL
REMARK 923 INTER-LIGAND FREE ENERGY PREDICTED BY IDOCK:   -5.39 KCAL/MOL
REMARK 924 INTRA-LIGAND FREE ENERGY PREDICTED BY IDOCK:   -0.35 KCAL/MOL
REMARK 927      BINDING AFFINITY PREDICTED BY RF-SCORE:    0.00 PKD
ROOT
HETATM    1 CL   UNL     1     -12.153  11.464  69.896  1.00  0.00    -0.394 Cl 
HETATM    2  C   UNL     1     -11.525  11.595  68.278  1.00  0.00    -0.303 A  
HETATM    3  C   UNL     1     -11.760  12.737  67.463  1.00  0.00    -0.364 A  
HETATM    4  C   UNL     1     -11.448  12.508  66.082  1.00  0.00    -0.377 A  
HETATM    5  C   UNL     1     -10.903  10.398  67.817  1.00  0.00    -0.351 A  
HETATM    6  N   UNL     1     -11.665  13.388  65.086  1.00  0.00    -0.311 NA 
HETATM    7  C   UNL     1     -10.528  10.173  66.486  1.00  0.00    -0.236 A  
HETATM    8  C   UNL     1     -10.837  11.220  65.596  1.00  0.00    -0.177 A  
HETATM    9  S   UNL     1     -11.183  12.645  63.681  1.00  0.00    -0.433 SA 
HETATM   10  N   UNL     1     -10.640  11.193  64.270  1.00  0.00    -0.357 NA 
ENDROOT
BRANCH   3  11
HETATM   11  N   UNL     1     -12.293  13.981  67.840  1.00  0.00    -0.495 NA 
HETATM   12  H   UNL     1     -13.291  14.110  67.678  1.00  0.00     0.000 HD 
BRANCH  11  13
HETATM   13  C   UNL     1     -11.634  15.034  68.396  1.00  0.00    -0.331 C  
HETATM   14  C   UNL     1     -11.085  16.293  70.214  1.00  0.00    -0.332 C  
HETATM   15  N   UNL     1     -11.825  15.135  69.748  1.00  0.00    -0.313 NA 
HETATM   16  C   UNL     1     -10.285  16.678  68.971  1.00  0.00    -0.301 C  
HETATM   17  N   UNL     1     -10.911  15.960  67.840  1.00  0.00    -0.318 NA 
ENDBRANCH  11  13
ENDBRANCH   3  11
TORSDOF 2
ENDMDL
MODEL       31
REMARK 921   NORMALIZED FREE ENERGY PREDICTED BY IDOCK:   -4.83 KCAL/MOL
REMARK 922        TOTAL FREE ENERGY PREDICTED BY IDOCK:   -5.74 KCAL/MOL
REMARK 923 INTER-LIGAND FREE ENERGY PREDICTED BY IDOCK:   -5.38 KCAL/MOL
REMARK 924 INTRA-LIGAND FREE ENERGY PREDICTED BY IDOCK:   -0.36 KCAL/MOL
REMARK 927      BINDING AFFINITY PREDICTED BY RF-SCORE:    0.00 PKD
ROOT
HETATM    1 CL   UNL     1     -11.418  12.066  63.998  1.00  0.00    -0.450 Cl 
HETATM    2  C   UNL     1     -11.036  13.209  65.254  1.00  0.00    -0.285 A  
HETATM    3  C   UNL     1     -11.422  13.006  66.608  1.00  0.00    -0.336 A  
HETATM    4  C   UNL     1     -11.307  14.193  67.403  1.00  0.00    -0.327 A  
HETATM    5  C   UNL     1     -10.451  14.413  64.761  1.00  0.00    -0.394 A  
HETATM    6  N   UNL     1     -11.694  14.302  68.689  1.00  0.00    -0.326 NA 
HETATM    7  C   UNL     1     -10.267  15.567  65.534  1.00  0.00    -0.415 A  
HETATM    8  C   UNL     1     -10.734  15.476  66.859  1.00  0.00    -0.317 A  
HETATM    9  S   UNL     1     -11.399  15.871  69.144  1.00  0.00    -0.376 SA 
HETATM   10  N   UNL     1     -10.731  16.477  67.752  1.00  0.00    -0.337 NA 
ENDROOT
BRANCH   3  11
HETATM   11  N   UNL     1     -11.932  11.840  67.202  1.00  0.00    -0.595 NA 
HETATM   12  H   UNL     1     -12.944  11.803  67.326  1.00  0.00     0.000 HD 
BRANCH  11  13
HETATM   13  C   UNL     1     -11.236  10.751  67.631  1.00  0.00    -0.299 C  
HETATM   14  C   UNL     1     -10.479   9.421  69.318  1.00  0.00    -0.218 C  
HETATM   15  N   UNL     1     -11.257  10.601  68.992  1.00  0.00    -0.247 NA 
HETATM   16  C   UNL     1     -10.219   8.822  67.938  1.00  0.00    -0.219 C  
HETATM   17  N   UNL     1     -10.536   9.885  66.961  1.00  0.00    -0.240 NA 
ENDBRANCH  11  13
ENDBRANCH   3  11
TORSDOF 2
ENDMDL
MODEL       32
REMARK 921   NORMALIZED FREE ENERGY PREDICTED BY IDOCK:   -4.83 KCAL/MOL
REMARK 922        TOTAL FREE ENERGY PREDICTED BY IDOCK:   -5.74 KCAL/MOL
REMARK 923 INTER-LIGAND FREE ENERGY PREDICTED BY IDOCK:   -5.42 KCAL/MOL
REMARK 924 INTRA-LIGAND FREE ENERGY PREDICTED BY IDOCK:   -0.31 KCAL/MOL
REMARK 927      BINDING AFFINITY PREDICTED BY RF-SCORE:    0.00 PKD
ROOT
HETATM    1 CL   UNL     1     -12.286  12.357  70.371  1.00  0.00    -0.411 Cl 
HETATM    2  C   UNL     1     -12.002  13.768  69.392  1.00  0.00    -0.347 A  
HETATM    3  C   UNL     1     -11.847  13.694  67.979  1.00  0.00    -0.362 A  
HETATM    4  C   UNL     1     -11.301  14.893  67.416  1.00  0.00    -0.347 A  
HETATM    5  C   UNL     1     -11.787  14.952  70.158  1.00  0.00    -0.357 A  
HETATM    6  N   UNL     1     -10.967  15.055  66.121  1.00  0.00    -0.332 NA 
HETATM    7  C   UNL     1     -11.316  16.157  69.621  1.00  0.00    -0.316 A  
HETATM    8  C   UNL     1     -11.030  16.123  68.243  1.00  0.00    -0.340 A  
HETATM    9  S   UNL     1     -10.342  16.587  65.978  1.00  0.00    -0.324 SA 
HETATM   10  N   UNL     1     -10.500  17.132  67.536  1.00  0.00    -0.348 NA 
ENDROOT
BRANCH   3  11
HETATM   11  N   UNL     1     -12.106  12.604  67.132  1.00  0.00    -0.470 NA 
HETATM   12  H   UNL     1     -13.038  12.566  66.719  1.00  0.00     0.000 HD 
BRANCH  11  13
HETATM   13  C   UNL     1     -11.262  11.591  66.798  1.00  0.00    -0.285 C  
HETATM   14  C   UNL     1     -10.401   9.517  67.184  1.00  0.00    -0.253 C  
HETATM   15  N   UNL     1     -11.350  10.515  67.640  1.00  0.00    -0.424 NA 
HETATM   16  C   UNL     1      -9.944  10.101  65.850  1.00  0.00    -0.267 C  
HETATM   17  N   UNL     1     -10.375  11.516  65.850  1.00  0.00    -0.239 NA 
ENDBRANCH  11  13
ENDBRANCH   3  11
TORSDOF 2
ENDMDL
MODEL       33
REMARK 921   NORMALIZED FREE ENERGY PREDICTED BY IDOCK:   -4.83 KCAL/MOL
REMARK 922        TOTAL FREE ENERGY PREDICTED BY IDOCK:   -5.73 KCAL/MOL
REMARK 923 INTER-LIGAND FREE ENERGY PREDICTED BY IDOCK:   -5.38 KCAL/MOL
REMARK 924 INTRA-LIGAND FREE ENERGY PREDICTED BY IDOCK:   -0.35 KCAL/MOL
REMARK 927      BINDING AFFINITY PREDICTED BY RF-SCORE:    0.00 PKD
ROOT
HETATM    1 CL   UNL     1     -12.214  13.973  69.301  1.00  0.00    -0.367 Cl 
HETATM    2  C   UNL     1     -11.438  13.192  67.954  1.00  0.00    -0.308 A  
HETATM    3  C   UNL     1     -11.230  13.851  66.710  1.00  0.00    -0.318 A  
HETATM    4  C   UNL     1     -10.887  12.947  65.651  1.00  0.00    -0.273 A  
HETATM    5  C   UNL     1     -11.186  11.805  68.175  1.00  0.00    -0.320 A  
HETATM    6  N   UNL     1     -10.730  13.296  64.360  1.00  0.00    -0.403 NA 
HETATM    7  C   UNL     1     -10.786  10.913  67.172  1.00  0.00    -0.337 A  
HETATM    8  C   UNL     1     -10.672  11.474  65.886  1.00  0.00    -0.272 A  
HETATM    9  S   UNL     1     -10.386  11.900  63.529  1.00  0.00    -0.460 SA 
HETATM   10  N   UNL     1     -10.379  10.797  64.766  1.00  0.00    -0.327 NA 
ENDROOT
BRANCH   3  11
HETATM   11  N   UNL     1     -11.376  15.217  66.415  1.00  0.00    -0.281 NA 
HETATM   12  H   UNL     1     -12.268  15.496  66.007  1.00  0.00     0.000 HD 
BRANCH  11  13
HETATM   13  C   UNL     1     -10.468  16.212  66.609  1.00  0.00    -0.300 C  
HETATM   14  C   UNL     1      -9.589  17.870  67.901  1.00  0.00    -0.286 C  
HETATM   15  N   UNL     1     -10.600  16.832  67.823  1.00  0.00    -0.338 NA 
HETATM   16  C   UNL     1      -8.746  17.584  66.661  1.00  0.00    -0.263 C  
HETATM   17  N   UNL     1      -9.551  16.678  65.814  1.00  0.00    -0.528 NA 
ENDBRANCH  11  13
ENDBRANCH   3  11
TORSDOF 2
ENDMDL
MODEL       34
REMARK 921   NORMALIZED FREE ENERGY PREDICTED BY IDOCK:   -4.82 KCAL/MOL
REMARK 922        TOTAL FREE ENERGY PREDICTED BY IDOCK:   -5.72 KCAL/MOL
REMARK 923 INTER-LIGAND FREE ENERGY PREDICTED BY IDOCK:   -5.40 KCAL/MOL
REMARK 924 INTRA-LIGAND FREE ENERGY PREDICTED BY IDOCK:   -0.33 KCAL/MOL
REMARK 927      BINDING AFFINITY PREDICTED BY RF-SCORE:    0.00 PKD
ROOT
HETATM    1 CL   UNL     1     -14.048   8.922  72.430  1.00  0.00    -0.518 Cl 
HETATM    2  C   UNL     1     -12.362   9.072  72.027  1.00  0.00    -0.384 A  
HETATM    3  C   UNL     1     -11.889  10.025  71.082  1.00  0.00    -0.393 A  
HETATM    4  C   UNL     1     -10.545   9.765  70.654  1.00  0.00    -0.313 A  
HETATM    5  C   UNL     1     -11.550   8.055  72.611  1.00  0.00    -0.448 A  
HETATM    6  N   UNL     1      -9.892  10.455  69.700  1.00  0.00    -0.188 NA 
HETATM    7  C   UNL     1     -10.214   7.821  72.259  1.00  0.00    -0.285 A  
HETATM    8  C   UNL     1      -9.712   8.656  71.242  1.00  0.00    -0.237 A  
HETATM    9  S   UNL     1      -8.398   9.748  69.540  1.00  0.00    -0.177 SA 
HETATM   10  N   UNL     1      -8.491   8.563  70.695  1.00  0.00    -0.134 NA 
ENDROOT
BRANCH   3  11
HETATM   11  N   UNL     1     -12.586  11.102  70.510  1.00  0.00    -0.296 NA 
HETATM   12  H   UNL     1     -13.074  10.910  69.635  1.00  0.00     0.000 HD 
BRANCH  11  13
HETATM   13  C   UNL     1     -12.687  12.373  70.986  1.00  0.00    -0.223 C  
HETATM   14  C   UNL     1     -13.510  13.865  72.500  1.00  0.00    -0.572 C  
HETATM   15  N   UNL     1     -13.476  12.470  72.102  1.00  0.00    -0.513 NA 
HETATM   16  C   UNL     1     -12.455  14.481  71.584  1.00  0.00    -0.352 C  
HETATM   17  N   UNL     1     -12.199  13.485  70.521  1.00  0.00    -0.362 NA 
ENDBRANCH  11  13
ENDBRANCH   3  11
TORSDOF 2
ENDMDL
MODEL       35
REMARK 921   NORMALIZED FREE ENERGY PREDICTED BY IDOCK:   -4.81 KCAL/MOL
REMARK 922        TOTAL FREE ENERGY PREDICTED BY IDOCK:   -5.71 KCAL/MOL
REMARK 923 INTER-LIGAND FREE ENERGY PREDICTED BY IDOCK:   -5.36 KCAL/MOL
REMARK 924 INTRA-LIGAND FREE ENERGY PREDICTED BY IDOCK:   -0.35 KCAL/MOL
REMARK 927      BINDING AFFINITY PREDICTED BY RF-SCORE:    0.00 PKD
ROOT
HETATM    1 CL   UNL     1      -7.197  15.395  68.209  1.00  0.00    -0.112 Cl 
HETATM    2  C   UNL     1      -8.335  14.717  67.081  1.00  0.00    -0.214 A  
HETATM    3  C   UNL     1      -9.062  15.522  66.159  1.00  0.00    -0.324 A  
HETATM    4  C   UNL     1     -10.166  14.827  65.564  1.00  0.00    -0.374 A  
HETATM    5  C   UNL     1      -8.571  13.326  67.286  1.00  0.00    -0.211 A  
HETATM    6  N   UNL     1     -11.069  15.381  64.733  1.00  0.00    -0.419 NA 
HETATM    7  C   UNL     1      -9.602  12.607  66.667  1.00  0.00    -0.249 A  
HETATM    8  C   UNL     1     -10.437  13.368  65.827  1.00  0.00    -0.290 A  
HETATM    9  S   UNL     1     -12.164  14.190  64.357  1.00  0.00    -0.392 SA 
HETATM   10  N   UNL     1     -11.527  12.909  65.194  1.00  0.00    -0.303 NA 
ENDROOT
BRANCH   3  11
HETATM   11  N   UNL     1      -8.856  16.872  65.833  1.00  0.00    -0.529 NA 
HETATM   12  H   UNL     1      -8.324  17.054  64.982  1.00  0.00     0.000 HD 
BRANCH  11  13
HETATM   13  C   UNL     1      -9.282  17.968  66.518  1.00  0.00    -0.275 C  
HETATM   14  C   UNL     1     -10.670  19.765  66.721  1.00  0.00    -0.409 C  
HETATM   15  N   UNL     1     -10.318  18.620  65.902  1.00  0.00    -0.588 NA 
HETATM   16  C   UNL     1      -9.837  19.522  67.978  1.00  0.00    -0.398 C  
HETATM   17  N   UNL     1      -8.832  18.499  67.616  1.00  0.00    -0.269 NA 
ENDBRANCH  11  13
ENDBRANCH   3  11
TORSDOF 2
ENDMDL
MODEL       36
REMARK 921   NORMALIZED FREE ENERGY PREDICTED BY IDOCK:   -4.80 KCAL/MOL
REMARK 922        TOTAL FREE ENERGY PREDICTED BY IDOCK:   -5.70 KCAL/MOL
REMARK 923 INTER-LIGAND FREE ENERGY PREDICTED BY IDOCK:   -5.36 KCAL/MOL
REMARK 924 INTRA-LIGAND FREE ENERGY PREDICTED BY IDOCK:   -0.35 KCAL/MOL
REMARK 927      BINDING AFFINITY PREDICTED BY RF-SCORE:    0.00 PKD
ROOT
HETATM    1 CL   UNL     1     -10.871   9.283  67.567  1.00  0.00    -0.271 Cl 
HETATM    2  C   UNL     1     -11.004  10.972  67.964  1.00  0.00    -0.258 A  
HETATM    3  C   UNL     1     -11.176  11.426  69.302  1.00  0.00    -0.277 A  
HETATM    4  C   UNL     1     -11.590  12.797  69.375  1.00  0.00    -0.298 A  
HETATM    5  C   UNL     1     -11.081  11.816  66.817  1.00  0.00    -0.360 A  
HETATM    6  N   UNL     1     -11.913  13.446  70.510  1.00  0.00    -0.302 NA 
HETATM    7  C   UNL     1     -11.420  13.175  66.867  1.00  0.00    -0.384 A  
HETATM    8  C   UNL     1     -11.718  13.667  68.152  1.00  0.00    -0.357 A  
HETATM    9  S   UNL     1     -12.366  14.981  70.068  1.00  0.00    -0.283 SA 
HETATM   10  N   UNL     1     -12.138  14.911  68.427  1.00  0.00    -0.199 NA 
ENDROOT
BRANCH   3  11
HETATM   11  N   UNL     1     -11.045  10.693  70.492  1.00  0.00    -0.441 NA 
HETATM   12  H   UNL     1     -10.135  10.738  70.951  1.00  0.00     0.000 HD 
BRANCH  11  13
HETATM   13  C   UNL     1     -11.988   9.929  71.107  1.00  0.00    -0.384 C  
HETATM   14  C   UNL     1     -12.808   7.888  71.702  1.00  0.00    -0.334 C  
HETATM   15  N   UNL     1     -11.734   8.586  71.022  1.00  0.00    -0.283 NA 
HETATM   16  C   UNL     1     -13.564   9.038  72.363  1.00  0.00    -0.477 C  
HETATM   17  N   UNL     1     -13.089  10.275  71.706  1.00  0.00    -0.446 NA 
ENDBRANCH  11  13
ENDBRANCH   3  11
TORSDOF 2
ENDMDL
MODEL       37
REMARK 921   NORMALIZED FREE ENERGY PREDICTED BY IDOCK:   -4.79 KCAL/MOL
REMARK 922        TOTAL FREE ENERGY PREDICTED BY IDOCK:   -5.69 KCAL/MOL
REMARK 923 INTER-LIGAND FREE ENERGY PREDICTED BY IDOCK:   -5.45 KCAL/MOL
REMARK 924 INTRA-LIGAND FREE ENERGY PREDICTED BY IDOCK:   -0.24 KCAL/MOL
REMARK 927      BINDING AFFINITY PREDICTED BY RF-SCORE:    0.00 PKD
ROOT
HETATM    1 CL   UNL     1     -10.176  16.008  68.212  1.00  0.00    -0.232 Cl 
HETATM    2  C   UNL     1     -11.032  15.359  66.843  1.00  0.00    -0.294 A  
HETATM    3  C   UNL     1     -11.667  14.086  66.878  1.00  0.00    -0.410 A  
HETATM    4  C   UNL     1     -12.019  13.604  65.575  1.00  0.00    -0.384 A  
HETATM    5  C   UNL     1     -10.892  16.150  65.664  1.00  0.00    -0.246 A  
HETATM    6  N   UNL     1     -12.544  12.391  65.317  1.00  0.00    -0.588 NA 
HETATM    7  C   UNL     1     -11.288  15.730  64.388  1.00  0.00    -0.274 A  
HETATM    8  C   UNL     1     -11.821  14.428  64.329  1.00  0.00    -0.364 A  
HETATM    9  S   UNL     1     -12.730  12.294  63.669  1.00  0.00    -0.302 SA 
HETATM   10  N   UNL     1     -12.193  13.793  63.208  1.00  0.00    -0.634 NA 
ENDROOT
BRANCH   3  11
HETATM   11  N   UNL     1     -11.919  13.271  67.994  1.00  0.00    -0.345 NA 
HETATM   12  H   UNL     1     -12.711  13.540  68.578  1.00  0.00     0.000 HD 
BRANCH  11  13
HETATM   13  C   UNL     1     -11.232  12.164  68.388  1.00  0.00    -0.265 C  
HETATM   14  C   UNL     1     -11.198   9.997  69.089  1.00  0.00    -0.149 C  
HETATM   15  N   UNL     1     -12.045  11.100  68.676  1.00  0.00    -0.575 NA 
HETATM   16  C   UNL     1      -9.804  10.532  68.772  1.00  0.00    -0.186 C  
HETATM   17  N   UNL     1      -9.957  11.989  68.570  1.00  0.00    -0.205 NA 
ENDBRANCH  11  13
ENDBRANCH   3  11
TORSDOF 2
ENDMDL
MODEL       38
REMARK 921   NORMALIZED FREE ENERGY PREDICTED BY IDOCK:   -4.74 KCAL/MOL
REMARK 922        TOTAL FREE ENERGY PREDICTED BY IDOCK:   -5.64 KCAL/MOL
REMARK 923 INTER-LIGAND FREE ENERGY PREDICTED BY IDOCK:   -5.34 KCAL/MOL
REMARK 924 INTRA-LIGAND FREE ENERGY PREDICTED BY IDOCK:   -0.30 KCAL/MOL
REMARK 927      BINDING AFFINITY PREDICTED BY RF-SCORE:    0.00 PKD
ROOT
HETATM    1 CL   UNL     1     -11.911  14.023  70.346  1.00  0.00    -0.393 Cl 
HETATM    2  C   UNL     1     -11.752  13.043  68.916  1.00  0.00    -0.328 A  
HETATM    3  C   UNL     1     -11.217  11.725  68.955  1.00  0.00    -0.253 A  
HETATM    4  C   UNL     1     -10.869  11.228  67.656  1.00  0.00    -0.238 A  
HETATM    5  C   UNL     1     -12.059  13.746  67.714  1.00  0.00    -0.325 A  
HETATM    6  N   UNL     1     -10.259  10.052  67.418  1.00  0.00    -0.205 NA 
HETATM    7  C   UNL     1     -11.790  13.256  66.430  1.00  0.00    -0.446 A  
HETATM    8  C   UNL     1     -11.151  12.001  66.394  1.00  0.00    -0.318 A  
HETATM    9  S   UNL     1     -10.034   9.956  65.776  1.00  0.00    -0.249 SA 
HETATM   10  N   UNL     1     -10.732  11.376  65.284  1.00  0.00    -0.283 NA 
ENDROOT
BRANCH   3  11
HETATM   11  N   UNL     1     -10.954  10.926  70.079  1.00  0.00    -0.455 NA 
HETATM   12  H   UNL     1      -9.970  10.776  70.305  1.00  0.00     0.000 HD 
BRANCH  11  13
HETATM   13  C   UNL     1     -11.855  10.328  70.905  1.00  0.00    -0.377 C  
HETATM   14  C   UNL     1     -12.387   8.717  72.426  1.00  0.00    -0.357 C  
HETATM   15  N   UNL     1     -11.332   9.268  71.596  1.00  0.00    -0.381 NA 
HETATM   16  C   UNL     1     -13.493   9.756  72.262  1.00  0.00    -0.349 C  
HETATM   17  N   UNL     1     -13.117  10.579  71.092  1.00  0.00    -0.382 NA 
ENDBRANCH  11  13
ENDBRANCH   3  11
TORSDOF 2
ENDMDL
MODEL       39
REMARK 921   NORMALIZED FREE ENERGY PREDICTED BY IDOCK:   -4.74 KCAL/MOL
REMARK 922        TOTAL FREE ENERGY PREDICTED BY IDOCK:   -5.63 KCAL/MOL
REMARK 923 INTER-LIGAND FREE ENERGY PREDICTED BY IDOCK:   -5.32 KCAL/MOL
REMARK 924 INTRA-LIGAND FREE ENERGY PREDICTED BY IDOCK:   -0.31 KCAL/MOL
REMARK 927      BINDING AFFINITY PREDICTED BY RF-SCORE:    0.00 PKD
ROOT
HETATM    1 CL   UNL     1     -12.951   9.863  71.839  1.00  0.00    -0.524 Cl 
HETATM    2  C   UNL     1     -12.897  11.460  71.151  1.00  0.00    -0.341 A  
HETATM    3  C   UNL     1     -12.398  11.707  69.841  1.00  0.00    -0.159 A  
HETATM    4  C   UNL     1     -12.134  13.095  69.599  1.00  0.00    -0.255 A  
HETATM    5  C   UNL     1     -13.246  12.486  72.079  1.00  0.00    -0.524 A  
HETATM    6  N   UNL     1     -11.571  13.589  68.479  1.00  0.00    -0.309 NA 
HETATM    7  C   UNL     1     -13.060  13.853  71.841  1.00  0.00    -0.469 A  
HETATM    8  C   UNL     1     -12.461  14.166  70.606  1.00  0.00    -0.362 A  
HETATM    9  S   UNL     1     -11.436  15.229  68.698  1.00  0.00    -0.351 SA 
HETATM   10  N   UNL     1     -12.119  15.398  70.200  1.00  0.00    -0.347 NA 
ENDROOT
BRANCH   3  11
HETATM   11  N   UNL     1     -12.099  10.773  68.835  1.00  0.00    -0.749 NA 
HETATM   12  H   UNL     1     -12.869  10.514  68.218  1.00  0.00     0.000 HD 
BRANCH  11  13
HETATM   13  C   UNL     1     -10.903  10.174  68.585  1.00  0.00    -0.235 C  
HETATM   14  C   UNL     1      -9.153   9.744  67.191  1.00  0.00    -0.135 C  
HETATM   15  N   UNL     1     -10.416  10.443  67.334  1.00  0.00    -0.232 NA 
HETATM   16  C   UNL     1      -8.908   9.239  68.611  1.00  0.00    -0.132 C  
HETATM   17  N   UNL     1     -10.199   9.367  69.322  1.00  0.00    -0.194 NA 
ENDBRANCH  11  13
ENDBRANCH   3  11
TORSDOF 2
ENDMDL
MODEL       40
REMARK 921   NORMALIZED FREE ENERGY PREDICTED BY IDOCK:   -4.73 KCAL/MOL
REMARK 922        TOTAL FREE ENERGY PREDICTED BY IDOCK:   -5.62 KCAL/MOL
REMARK 923 INTER-LIGAND FREE ENERGY PREDICTED BY IDOCK:   -5.36 KCAL/MOL
REMARK 924 INTRA-LIGAND FREE ENERGY PREDICTED BY IDOCK:   -0.26 KCAL/MOL
REMARK 927      BINDING AFFINITY PREDICTED BY RF-SCORE:    0.00 PKD
ROOT
HETATM    1 CL   UNL     1     -10.142   9.899  68.850  1.00  0.00    -0.182 Cl 
HETATM    2  C   UNL     1     -10.307  10.668  67.297  1.00  0.00    -0.220 A  
HETATM    3  C   UNL     1     -11.300  11.654  67.039  1.00  0.00    -0.305 A  
HETATM    4  C   UNL     1     -11.479  11.910  65.640  1.00  0.00    -0.255 A  
HETATM    5  C   UNL     1      -9.465  10.100  66.295  1.00  0.00    -0.229 A  
HETATM    6  N   UNL     1     -12.416  12.725  65.119  1.00  0.00    -0.551 NA 
HETATM    7  C   UNL     1      -9.576  10.384  64.928  1.00  0.00    -0.348 A  
HETATM    8  C   UNL     1     -10.618  11.266  64.585  1.00  0.00    -0.327 A  
HETATM    9  S   UNL     1     -12.247  12.651  63.469  1.00  0.00    -0.506 SA 
HETATM   10  N   UNL     1     -10.957  11.618  63.336  1.00  0.00    -0.393 NA 
ENDROOT
BRANCH   3  11
HETATM   11  N   UNL     1     -12.120  12.323  67.962  1.00  0.00    -0.409 NA 
HETATM   12  H   UNL     1     -12.965  11.831  68.254  1.00  0.00     0.000 HD 
BRANCH  11  13
HETATM   13  C   UNL     1     -11.923  13.552  68.512  1.00  0.00    -0.344 C  
HETATM   14  C   UNL     1     -11.979  14.952  70.309  1.00  0.00    -0.312 C  
HETATM   15  N   UNL     1     -12.221  13.598  69.849  1.00  0.00    -0.322 NA 
HETATM   16  C   UNL     1     -11.298  15.582  69.097  1.00  0.00    -0.328 C  
HETATM   17  N   UNL     1     -11.550  14.669  67.961  1.00  0.00    -0.326 NA 
ENDBRANCH  11  13
ENDBRANCH   3  11
TORSDOF 2
ENDMDL
MODEL       41
REMARK 921   NORMALIZED FREE ENERGY PREDICTED BY IDOCK:   -4.70 KCAL/MOL
REMARK 922        TOTAL FREE ENERGY PREDICTED BY IDOCK:   -5.59 KCAL/MOL
REMARK 923 INTER-LIGAND FREE ENERGY PREDICTED BY IDOCK:   -5.26 KCAL/MOL
REMARK 924 INTRA-LIGAND FREE ENERGY PREDICTED BY IDOCK:   -0.34 KCAL/MOL
REMARK 927      BINDING AFFINITY PREDICTED BY RF-SCORE:    0.00 PKD
ROOT
HETATM    1 CL   UNL     1     -13.478  12.618  72.208  1.00  0.00    -0.633 Cl 
HETATM    2  C   UNL     1     -12.641  13.055  70.746  1.00  0.00    -0.241 A  
HETATM    3  C   UNL     1     -12.123  12.081  69.847  1.00  0.00    -0.263 A  
HETATM    4  C   UNL     1     -11.199  12.633  68.900  1.00  0.00    -0.280 A  
HETATM    5  C   UNL     1     -12.396  14.456  70.634  1.00  0.00    -0.422 A  
HETATM    6  N   UNL     1     -10.496  11.918  68.002  1.00  0.00    -0.202 NA 
HETATM    7  C   UNL     1     -11.549  15.028  69.677  1.00  0.00    -0.333 A  
HETATM    8  C   UNL     1     -10.909  14.109  68.823  1.00  0.00    -0.258 A  
HETATM    9  S   UNL     1      -9.542  12.998  67.176  1.00  0.00    -0.237 SA 
HETATM   10  N   UNL     1     -10.002  14.423  67.886  1.00  0.00    -0.225 NA 
ENDROOT
BRANCH   3  11
HETATM   11  N   UNL     1     -12.367  10.697  69.829  1.00  0.00    -0.517 NA 
HETATM   12  H   UNL     1     -12.868  10.339  69.017  1.00  0.00     0.000 HD 
BRANCH  11  13
HETATM   13  C   UNL     1     -12.013   9.778  70.768  1.00  0.00    -0.299 C  
HETATM   14  C   UNL     1     -10.415   8.617  71.904  1.00  0.00    -0.340 C  
HETATM   15  N   UNL     1     -10.658   9.622  70.886  1.00  0.00    -0.320 NA 
HETATM   16  C   UNL     1     -11.812   8.408  72.482  1.00  0.00    -0.358 C  
HETATM   17  N   UNL     1     -12.753   9.014  71.515  1.00  0.00    -0.328 NA 
ENDBRANCH  11  13
ENDBRANCH   3  11
TORSDOF 2
ENDMDL
MODEL       42
REMARK 921   NORMALIZED FREE ENERGY PREDICTED BY IDOCK:   -4.69 KCAL/MOL
REMARK 922        TOTAL FREE ENERGY PREDICTED BY IDOCK:   -5.59 KCAL/MOL
REMARK 923 INTER-LIGAND FREE ENERGY PREDICTED BY IDOCK:   -5.30 KCAL/MOL
REMARK 924 INTRA-LIGAND FREE ENERGY PREDICTED BY IDOCK:   -0.28 KCAL/MOL
REMARK 927      BINDING AFFINITY PREDICTED BY RF-SCORE:    0.00 PKD
ROOT
HETATM    1 CL   UNL     1     -10.165  11.779  63.862  1.00  0.00    -0.367 Cl 
HETATM    2  C   UNL     1     -10.560  11.080  65.406  1.00  0.00    -0.202 A  
HETATM    3  C   UNL     1     -11.402  11.739  66.346  1.00  0.00    -0.297 A  
HETATM    4  C   UNL     1     -11.332  11.162  67.656  1.00  0.00    -0.284 A  
HETATM    5  C   UNL     1      -9.838   9.882  65.684  1.00  0.00    -0.368 A  
HETATM    6  N   UNL     1     -11.953  11.649  68.748  1.00  0.00    -0.408 NA 
HETATM    7  C   UNL     1      -9.804   9.261  66.939  1.00  0.00    -0.276 A  
HETATM    8  C   UNL     1     -10.525   9.924  67.951  1.00  0.00    -0.236 A  
HETATM    9  S   UNL     1     -11.526  10.665  70.016  1.00  0.00    -0.347 SA 
HETATM   10  N   UNL     1     -10.571   9.556  69.240  1.00  0.00    -0.216 NA 
ENDROOT
BRANCH   3  11
HETATM   11  N   UNL     1     -12.208  12.872  66.146  1.00  0.00    -0.508 NA 
HETATM   12  H   UNL     1     -13.193  12.772  66.390  1.00  0.00     0.000 HD 
BRANCH  11  13
HETATM   13  C   UNL     1     -11.830  14.087  65.664  1.00  0.00    -0.377 C  
HETATM   14  C   UNL     1     -10.676  16.039  65.892  1.00  0.00    -0.280 C  
HETATM   15  N   UNL     1     -10.995  14.766  66.512  1.00  0.00    -0.320 NA 
HETATM   16  C   UNL     1     -11.269  15.868  64.496  1.00  0.00    -0.312 C  
HETATM   17  N   UNL     1     -12.173  14.701  64.571  1.00  0.00    -0.506 NA 
ENDBRANCH  11  13
ENDBRANCH   3  11
TORSDOF 2
ENDMDL
MODEL       43
REMARK 921   NORMALIZED FREE ENERGY PREDICTED BY IDOCK:   -4.67 KCAL/MOL
REMARK 922        TOTAL FREE ENERGY PREDICTED BY IDOCK:   -5.56 KCAL/MOL
REMARK 923 INTER-LIGAND FREE ENERGY PREDICTED BY IDOCK:   -5.21 KCAL/MOL
REMARK 924 INTRA-LIGAND FREE ENERGY PREDICTED BY IDOCK:   -0.35 KCAL/MOL
REMARK 927      BINDING AFFINITY PREDICTED BY RF-SCORE:    0.00 PKD
ROOT
HETATM    1 CL   UNL     1     -12.025  13.291  69.717  1.00  0.00    -0.390 Cl 
HETATM    2  C   UNL     1     -11.814  13.069  68.004  1.00  0.00    -0.347 A  
HETATM    3  C   UNL     1     -11.515  11.800  67.433  1.00  0.00    -0.305 A  
HETATM    4  C   UNL     1     -11.061  11.893  66.077  1.00  0.00    -0.322 A  
HETATM    5  C   UNL     1     -11.815  14.294  67.273  1.00  0.00    -0.444 A  
HETATM    6  N   UNL     1     -10.624  10.856  65.337  1.00  0.00    -0.216 NA 
HETATM    7  C   UNL     1     -11.439  14.403  65.928  1.00  0.00    -0.341 A  
HETATM    8  C   UNL     1     -11.018  13.200  65.328  1.00  0.00    -0.285 A  
HETATM    9  S   UNL     1     -10.171  11.480  63.865  1.00  0.00    -0.405 SA 
HETATM   10  N   UNL     1     -10.543  13.081  64.080  1.00  0.00    -0.397 NA 
ENDROOT
BRANCH   3  11
HETATM   11  N   UNL     1     -11.561  10.538  68.048  1.00  0.00    -0.716 NA 
HETATM   12  H   UNL     1     -12.373   9.961  67.831  1.00  0.00     0.000 HD 
BRANCH  11  13
HETATM   13  C   UNL     1     -10.650   9.994  68.900  1.00  0.00    -0.218 C  
HETATM   14  C   UNL     1      -8.806   8.708  69.274  1.00  0.00    -0.137 C  
HETATM   15  N   UNL     1      -9.704   9.235  68.263  1.00  0.00    -0.147 NA 
HETATM   16  C   UNL     1      -9.257   9.463  70.522  1.00  0.00    -0.259 C  
HETATM   17  N   UNL     1     -10.576  10.048  70.196  1.00  0.00    -0.282 NA 
ENDBRANCH  11  13
ENDBRANCH   3  11
TORSDOF 2
ENDMDL
MODEL       44
REMARK 921   NORMALIZED FREE ENERGY PREDICTED BY IDOCK:   -4.66 KCAL/MOL
REMARK 922        TOTAL FREE ENERGY PREDICTED BY IDOCK:   -5.55 KCAL/MOL
REMARK 923 INTER-LIGAND FREE ENERGY PREDICTED BY IDOCK:   -5.22 KCAL/MOL
REMARK 924 INTRA-LIGAND FREE ENERGY PREDICTED BY IDOCK:   -0.32 KCAL/MOL
REMARK 927      BINDING AFFINITY PREDICTED BY RF-SCORE:    0.00 PKD
ROOT
HETATM    1 CL   UNL     1     -12.859  10.926  71.691  1.00  0.00    -0.555 Cl 
HETATM    2  C   UNL     1     -11.600  10.148  70.776  1.00  0.00    -0.357 A  
HETATM    3  C   UNL     1     -11.528  10.232  69.357  1.00  0.00    -0.186 A  
HETATM    4  C   UNL     1     -10.633   9.268  68.787  1.00  0.00    -0.193 A  
HETATM    5  C   UNL     1     -10.764   9.307  71.570  1.00  0.00    -0.425 A  
HETATM    6  N   UNL     1     -10.451   9.070  67.468  1.00  0.00    -0.266 NA 
HETATM    7  C   UNL     1      -9.835   8.403  71.040  1.00  0.00    -0.232 A  
HETATM    8  C   UNL     1      -9.791   8.349  69.634  1.00  0.00    -0.184 A  
HETATM    9  S   UNL     1      -9.360   7.827  67.319  1.00  0.00    -0.151 SA 
HETATM   10  N   UNL     1      -9.036   7.507  68.913  1.00  0.00    -0.140 NA 
ENDROOT
BRANCH   3  11
HETATM   11  N   UNL     1     -12.249  11.078  68.499  1.00  0.00    -0.781 NA 
HETATM   12  H   UNL     1     -13.148  10.725  68.169  1.00  0.00     0.000 HD 
BRANCH  11  13
HETATM   13  C   UNL     1     -11.893  12.314  68.056  1.00  0.00    -0.305 C  
HETATM   14  C   UNL     1     -11.187  13.694  66.385  1.00  0.00    -0.308 C  
HETATM   15  N   UNL     1     -11.553  12.333  66.729  1.00  0.00    -0.444 NA 
HETATM   16  C   UNL     1     -11.587  14.457  67.646  1.00  0.00    -0.370 C  
HETATM   17  N   UNL     1     -11.784  13.438  68.699  1.00  0.00    -0.328 NA 
ENDBRANCH  11  13
ENDBRANCH   3  11
TORSDOF 2
ENDMDL
MODEL       45
REMARK 921   NORMALIZED FREE ENERGY PREDICTED BY IDOCK:   -4.65 KCAL/MOL
REMARK 922        TOTAL FREE ENERGY PREDICTED BY IDOCK:   -5.54 KCAL/MOL
REMARK 923 INTER-LIGAND FREE ENERGY PREDICTED BY IDOCK:   -5.23 KCAL/MOL
REMARK 924 INTRA-LIGAND FREE ENERGY PREDICTED BY IDOCK:   -0.31 KCAL/MOL
REMARK 927      BINDING AFFINITY PREDICTED BY RF-SCORE:    0.00 PKD
ROOT
HETATM    1 CL   UNL     1     -12.867  14.220  65.124  1.00  0.00    -0.358 Cl 
HETATM    2  C   UNL     1     -11.951  12.742  65.083  1.00  0.00    -0.424 A  
HETATM    3  C   UNL     1     -11.534  12.073  66.268  1.00  0.00    -0.345 A  
HETATM    4  C   UNL     1     -10.529  11.081  66.023  1.00  0.00    -0.245 A  
HETATM    5  C   UNL     1     -11.537  12.371  63.769  1.00  0.00    -0.553 A  
HETATM    6  N   UNL     1      -9.897  10.371  66.977  1.00  0.00    -0.184 NA 
HETATM    7  C   UNL     1     -10.605  11.361  63.498  1.00  0.00    -0.468 A  
HETATM    8  C   UNL     1     -10.062  10.732  64.634  1.00  0.00    -0.344 A  
HETATM    9  S   UNL     1      -8.802   9.396  66.198  1.00  0.00    -0.160 SA 
HETATM   10  N   UNL     1      -9.102   9.795  64.617  1.00  0.00    -0.231 NA 
ENDROOT
BRANCH   3  11
HETATM   11  N   UNL     1     -11.942  12.313  67.591  1.00  0.00    -0.512 NA 
HETATM   12  H   UNL     1     -12.540  11.603  68.013  1.00  0.00     0.000 HD 
BRANCH  11  13
HETATM   13  C   UNL     1     -11.634  13.380  68.376  1.00  0.00    -0.332 C  
HETATM   14  C   UNL     1     -11.812  14.509  70.348  1.00  0.00    -0.311 C  
HETATM   15  N   UNL     1     -12.207  13.318  69.619  1.00  0.00    -0.248 NA 
HETATM   16  C   UNL     1     -10.766  15.117  69.417  1.00  0.00    -0.265 C  
HETATM   17  N   UNL     1     -10.933  14.443  68.112  1.00  0.00    -0.247 NA 
ENDBRANCH  11  13
ENDBRANCH   3  11
TORSDOF 2
ENDMDL
MODEL       46
REMARK 921   NORMALIZED FREE ENERGY PREDICTED BY IDOCK:   -4.63 KCAL/MOL
REMARK 922        TOTAL FREE ENERGY PREDICTED BY IDOCK:   -5.51 KCAL/MOL
REMARK 923 INTER-LIGAND FREE ENERGY PREDICTED BY IDOCK:   -5.23 KCAL/MOL
REMARK 924 INTRA-LIGAND FREE ENERGY PREDICTED BY IDOCK:   -0.29 KCAL/MOL
REMARK 927      BINDING AFFINITY PREDICTED BY RF-SCORE:    0.00 PKD
ROOT
HETATM    1 CL   UNL     1      -8.336  12.640  67.327  1.00  0.00    -0.184 Cl 
HETATM    2  C   UNL     1      -9.336  11.616  68.315  1.00  0.00    -0.191 A  
HETATM    3  C   UNL     1     -10.663  11.976  68.682  1.00  0.00    -0.236 A  
HETATM    4  C   UNL     1     -11.183  11.171  69.749  1.00  0.00    -0.245 A  
HETATM    5  C   UNL     1      -8.643  10.482  68.835  1.00  0.00    -0.153 A  
HETATM    6  N   UNL     1     -12.374  11.361  70.349  1.00  0.00    -0.328 NA 
HETATM    7  C   UNL     1      -9.155   9.641  69.831  1.00  0.00    -0.250 A  
HETATM    8  C   UNL     1     -10.421  10.006  70.326  1.00  0.00    -0.272 A  
HETATM    9  S   UNL     1     -12.495  10.211  71.541  1.00  0.00    -0.432 SA 
HETATM   10  N   UNL     1     -11.068   9.394  71.329  1.00  0.00    -0.348 NA 
ENDROOT
BRANCH   3  11
HETATM   11  N   UNL     1     -11.453  13.020  68.175  1.00  0.00    -0.297 NA 
HETATM   12  H   UNL     1     -11.896  13.626  68.865  1.00  0.00     0.000 HD 
BRANCH  11  13
HETATM   13  C   UNL     1     -11.697  13.321  66.870  1.00  0.00    -0.388 C  
HETATM   14  C   UNL     1     -12.366  12.697  64.783  1.00  0.00    -0.489 C  
HETATM   15  N   UNL     1     -12.155  12.251  66.148  1.00  0.00    -0.627 NA 
HETATM   16  C   UNL     1     -12.175  14.206  64.910  1.00  0.00    -0.438 C  
HETATM   17  N   UNL     1     -11.519  14.430  66.217  1.00  0.00    -0.351 NA 
ENDBRANCH  11  13
ENDBRANCH   3  11
TORSDOF 2
ENDMDL
MODEL       47
REMARK 921   NORMALIZED FREE ENERGY PREDICTED BY IDOCK:   -4.60 KCAL/MOL
REMARK 922        TOTAL FREE ENERGY PREDICTED BY IDOCK:   -5.48 KCAL/MOL
REMARK 923 INTER-LIGAND FREE ENERGY PREDICTED BY IDOCK:   -5.24 KCAL/MOL
REMARK 924 INTRA-LIGAND FREE ENERGY PREDICTED BY IDOCK:   -0.24 KCAL/MOL
REMARK 927      BINDING AFFINITY PREDICTED BY RF-SCORE:    0.00 PKD
ROOT
HETATM    1 CL   UNL     1     -10.882  19.454  65.716  1.00  0.00    -0.476 Cl 
HETATM    2  C   UNL     1      -9.486  18.875  66.579  1.00  0.00    -0.340 A  
HETATM    3  C   UNL     1      -9.095  17.507  66.560  1.00  0.00    -0.263 A  
HETATM    4  C   UNL     1      -8.140  17.188  67.580  1.00  0.00    -0.179 A  
HETATM    5  C   UNL     1      -8.888  19.866  67.412  1.00  0.00    -0.411 A  
HETATM    6  N   UNL     1      -7.676  15.951  67.843  1.00  0.00    -0.131 NA 
HETATM    7  C   UNL     1      -7.905  19.591  68.372  1.00  0.00    -0.374 A  
HETATM    8  C   UNL     1      -7.551  18.234  68.490  1.00  0.00    -0.300 A  
HETATM    9  S   UNL     1      -6.637  16.096  69.130  1.00  0.00    -0.188 SA 
HETATM   10  N   UNL     1      -6.692  17.732  69.390  1.00  0.00    -0.219 NA 
ENDROOT
BRANCH   3  11
HETATM   11  N   UNL     1      -9.568  16.479  65.728  1.00  0.00    -0.518 NA 
HETATM   12  H   UNL     1      -9.136  16.411  64.806  1.00  0.00     0.000 HD 
BRANCH  11  13
HETATM   13  C   UNL     1     -10.534  15.562  66.005  1.00  0.00    -0.323 C  
HETATM   14  C   UNL     1     -11.867  13.829  65.361  1.00  0.00    -0.358 C  
HETATM   15  N   UNL     1     -10.825  14.748  64.942  1.00  0.00    -0.410 NA 
HETATM   16  C   UNL     1     -11.947  14.104  66.861  1.00  0.00    -0.449 C  
HETATM   17  N   UNL     1     -11.235  15.381  67.085  1.00  0.00    -0.300 NA 
ENDBRANCH  11  13
ENDBRANCH   3  11
TORSDOF 2
ENDMDL
MODEL       48
REMARK 921   NORMALIZED FREE ENERGY PREDICTED BY IDOCK:   -4.59 KCAL/MOL
REMARK 922        TOTAL FREE ENERGY PREDICTED BY IDOCK:   -5.47 KCAL/MOL
REMARK 923 INTER-LIGAND FREE ENERGY PREDICTED BY IDOCK:   -5.17 KCAL/MOL
REMARK 924 INTRA-LIGAND FREE ENERGY PREDICTED BY IDOCK:   -0.30 KCAL/MOL
REMARK 927      BINDING AFFINITY PREDICTED BY RF-SCORE:    0.00 PKD
ROOT
HETATM    1 CL   UNL     1     -10.540  12.409  65.486  1.00  0.00    -0.296 Cl 
HETATM    2  C   UNL     1     -11.265  12.960  66.969  1.00  0.00    -0.288 A  
HETATM    3  C   UNL     1     -11.378  14.341  67.291  1.00  0.00    -0.334 A  
HETATM    4  C   UNL     1     -11.693  14.566  68.672  1.00  0.00    -0.329 A  
HETATM    5  C   UNL     1     -11.579  11.900  67.871  1.00  0.00    -0.393 A  
HETATM    6  N   UNL     1     -11.764  15.775  69.260  1.00  0.00    -0.373 NA 
HETATM    7  C   UNL     1     -11.953  12.095  69.206  1.00  0.00    -0.318 A  
HETATM    8  C   UNL     1     -11.973  13.437  69.630  1.00  0.00    -0.324 A  
HETATM    9  S   UNL     1     -12.110  15.506  70.862  1.00  0.00    -0.424 SA 
HETATM   10  N   UNL     1     -12.227  13.853  70.879  1.00  0.00    -0.358 NA 
ENDROOT
BRANCH   3  11
HETATM   11  N   UNL     1     -11.167  15.450  66.455  1.00  0.00    -0.231 NA 
HETATM   12  H   UNL     1     -11.961  15.740  65.884  1.00  0.00     0.000 HD 
BRANCH  11  13
HETATM   13  C   UNL     1     -10.029  16.182  66.315  1.00  0.00    -0.317 C  
HETATM   14  C   UNL     1      -8.943  18.185  66.349  1.00  0.00    -0.239 C  
HETATM   15  N   UNL     1     -10.219  17.521  66.536  1.00  0.00    -0.334 NA 
HETATM   16  C   UNL     1      -7.987  17.003  66.216  1.00  0.00    -0.308 C  
HETATM   17  N   UNL     1      -8.832  15.815  65.966  1.00  0.00    -0.305 NA 
ENDBRANCH  11  13
ENDBRANCH   3  11
TORSDOF 2
ENDMDL
MODEL       49
REMARK 921   NORMALIZED FREE ENERGY PREDICTED BY IDOCK:   -4.57 KCAL/MOL
REMARK 922        TOTAL FREE ENERGY PREDICTED BY IDOCK:   -5.45 KCAL/MOL
REMARK 923 INTER-LIGAND FREE ENERGY PREDICTED BY IDOCK:   -5.12 KCAL/MOL
REMARK 924 INTRA-LIGAND FREE ENERGY PREDICTED BY IDOCK:   -0.33 KCAL/MOL
REMARK 927      BINDING AFFINITY PREDICTED BY RF-SCORE:    0.00 PKD
ROOT
HETATM    1 CL   UNL     1     -12.243  11.944  69.967  1.00  0.00    -0.322 Cl 
HETATM    2  C   UNL     1     -11.966  13.591  69.479  1.00  0.00    -0.334 A  
HETATM    3  C   UNL     1     -11.705  13.950  68.127  1.00  0.00    -0.353 A  
HETATM    4  C   UNL     1     -11.185  15.279  67.995  1.00  0.00    -0.326 A  
HETATM    5  C   UNL     1     -11.873  14.496  70.578  1.00  0.00    -0.372 A  
HETATM    6  N   UNL     1     -10.767  15.833  66.840  1.00  0.00    -0.315 NA 
HETATM    7  C   UNL     1     -11.430  15.820  70.466  1.00  0.00    -0.401 A  
HETATM    8  C   UNL     1     -11.042  16.211  69.170  1.00  0.00    -0.329 A  
HETATM    9  S   UNL     1     -10.217  17.355  67.214  1.00  0.00    -0.331 SA 
HETATM   10  N   UNL     1     -10.518  17.401  68.843  1.00  0.00    -0.340 NA 
ENDROOT
BRANCH   3  11
HETATM   11  N   UNL     1     -11.841  13.157  66.976  1.00  0.00    -0.379 NA 
HETATM   12  H   UNL     1     -12.714  13.263  66.457  1.00  0.00     0.000 HD 
BRANCH  11  13
HETATM   13  C   UNL     1     -10.948  12.265  66.469  1.00  0.00    -0.279 C  
HETATM   14  C   UNL     1     -10.226  10.929  64.770  1.00  0.00    -0.333 C  
HETATM   15  N   UNL     1     -11.238  11.881  65.187  1.00  0.00    -0.308 NA 
HETATM   16  C   UNL     1      -9.220  11.016  65.915  1.00  0.00    -0.199 C  
HETATM   17  N   UNL     1      -9.916  11.703  67.025  1.00  0.00    -0.202 NA 
ENDBRANCH  11  13
ENDBRANCH   3  11
TORSDOF 2
ENDMDL
MODEL       50
REMARK 921   NORMALIZED FREE ENERGY PREDICTED BY IDOCK:   -4.57 KCAL/MOL
REMARK 922        TOTAL FREE ENERGY PREDICTED BY IDOCK:   -5.45 KCAL/MOL
REMARK 923 INTER-LIGAND FREE ENERGY PREDICTED BY IDOCK:   -5.27 KCAL/MOL
REMARK 924 INTRA-LIGAND FREE ENERGY PREDICTED BY IDOCK:   -0.18 KCAL/MOL
REMARK 927      BINDING AFFINITY PREDICTED BY RF-SCORE:    0.00 PKD
ROOT
HETATM    1 CL   UNL     1     -13.231  15.432  70.864  1.00  0.00    -0.529 Cl 
HETATM    2  C   UNL     1     -12.669  13.786  70.943  1.00  0.00    -0.323 A  
HETATM    3  C   UNL     1     -11.681  13.278  70.054  1.00  0.00    -0.225 A  
HETATM    4  C   UNL     1     -11.605  11.847  70.067  1.00  0.00    -0.220 A  
HETATM    5  C   UNL     1     -13.405  12.983  71.864  1.00  0.00    -0.539 A  
HETATM    6  N   UNL     1     -10.823  11.108  69.256  1.00  0.00    -0.233 NA 
HETATM    7  C   UNL     1     -13.301  11.588  71.942  1.00  0.00    -0.408 A  
HETATM    8  C   UNL     1     -12.424  11.003  71.010  1.00  0.00    -0.409 A  
HETATM    9  S   UNL     1     -11.124   9.517  69.624  1.00  0.00    -0.117 SA 
HETATM   10  N   UNL     1     -12.226   9.686  70.851  1.00  0.00    -0.299 NA 
ENDROOT
BRANCH   3  11
HETATM   11  N   UNL     1     -10.856  13.993  69.171  1.00  0.00    -0.332 NA 
HETATM   12  H   UNL     1     -10.080  14.503  69.593  1.00  0.00     0.000 HD 
BRANCH  11  13
HETATM   13  C   UNL     1     -10.969  14.086  67.818  1.00  0.00    -0.258 C  
HETATM   14  C   UNL     1     -12.243  14.077  65.929  1.00  0.00    -0.456 C  
HETATM   15  N   UNL     1     -12.260  13.971  67.376  1.00  0.00    -0.336 NA 
HETATM   16  C   UNL     1     -10.799  14.490  65.659  1.00  0.00    -0.326 C  
HETATM   17  N   UNL     1     -10.052  14.218  66.906  1.00  0.00    -0.260 NA 
ENDBRANCH  11  13
ENDBRANCH   3  11
TORSDOF 2
ENDMDL
MODEL       51
REMARK 921   NORMALIZED FREE ENERGY PREDICTED BY IDOCK:   -4.57 KCAL/MOL
REMARK 922        TOTAL FREE ENERGY PREDICTED BY IDOCK:   -5.44 KCAL/MOL
REMARK 923 INTER-LIGAND FREE ENERGY PREDICTED BY IDOCK:   -5.10 KCAL/MOL
REMARK 924 INTRA-LIGAND FREE ENERGY PREDICTED BY IDOCK:   -0.34 KCAL/MOL
REMARK 927      BINDING AFFINITY PREDICTED BY RF-SCORE:    0.00 PKD
ROOT
HETATM    1 CL   UNL     1      -9.343   8.738  67.675  1.00  0.00    -0.151 Cl 
HETATM    2  C   UNL     1      -9.857  10.177  66.843  1.00  0.00    -0.195 A  
HETATM    3  C   UNL     1     -10.390  11.303  67.531  1.00  0.00    -0.194 A  
HETATM    4  C   UNL     1     -11.049  12.229  66.656  1.00  0.00    -0.297 A  
HETATM    5  C   UNL     1      -9.837  10.045  65.423  1.00  0.00    -0.384 A  
HETATM    6  N   UNL     1     -11.718  13.326  67.057  1.00  0.00    -0.368 NA 
HETATM    7  C   UNL     1     -10.415  10.967  64.542  1.00  0.00    -0.411 A  
HETATM    8  C   UNL     1     -11.065  12.053  65.160  1.00  0.00    -0.318 A  
HETATM    9  S   UNL     1     -12.333  14.036  65.687  1.00  0.00    -0.484 SA 
HETATM   10  N   UNL     1     -11.750  13.013  64.521  1.00  0.00    -0.349 NA 
ENDROOT
BRANCH   3  11
HETATM   11  N   UNL     1     -10.389  11.559  68.912  1.00  0.00    -0.311 NA 
HETATM   12  H   UNL     1      -9.651  12.174  69.255  1.00  0.00     0.000 HD 
BRANCH  11  13
HETATM   13  C   UNL     1     -11.255  11.083  69.847  1.00  0.00    -0.252 C  
HETATM   14  C   UNL     1     -11.765   9.611  71.511  1.00  0.00    -0.400 C  
HETATM   15  N   UNL     1     -10.750  10.028  70.561  1.00  0.00    -0.305 NA 
HETATM   16  C   UNL     1     -12.804  10.721  71.372  1.00  0.00    -0.452 C  
HETATM   17  N   UNL     1     -12.474  11.441  70.122  1.00  0.00    -0.232 NA 
ENDBRANCH  11  13
ENDBRANCH   3  11
TORSDOF 2
ENDMDL
MODEL       52
REMARK 921   NORMALIZED FREE ENERGY PREDICTED BY IDOCK:   -4.52 KCAL/MOL
REMARK 922        TOTAL FREE ENERGY PREDICTED BY IDOCK:   -5.39 KCAL/MOL
REMARK 923 INTER-LIGAND FREE ENERGY PREDICTED BY IDOCK:   -5.10 KCAL/MOL
REMARK 924 INTRA-LIGAND FREE ENERGY PREDICTED BY IDOCK:   -0.30 KCAL/MOL
REMARK 927      BINDING AFFINITY PREDICTED BY RF-SCORE:    0.00 PKD
ROOT
HETATM    1 CL   UNL     1      -8.593   8.842  68.602  1.00  0.00    -0.132 Cl 
HETATM    2  C   UNL     1     -10.132   8.572  69.367  1.00  0.00    -0.205 A  
HETATM    3  C   UNL     1     -10.899   9.633  69.927  1.00  0.00    -0.256 A  
HETATM    4  C   UNL     1     -11.950   9.167  70.784  1.00  0.00    -0.191 A  
HETATM    5  C   UNL     1     -10.456   7.190  69.510  1.00  0.00    -0.236 A  
HETATM    6  N   UNL     1     -12.760   9.960  71.511  1.00  0.00    -0.380 NA 
HETATM    7  C   UNL     1     -11.517   6.712  70.289  1.00  0.00    -0.449 A  
HETATM    8  C   UNL     1     -12.252   7.702  70.968  1.00  0.00    -0.236 A  
HETATM    9  S   UNL     1     -13.769   8.954  72.364  1.00  0.00    -0.415 SA 
HETATM   10  N   UNL     1     -13.257   7.472  71.826  1.00  0.00    -0.337 NA 
ENDROOT
BRANCH   3  11
HETATM   11  N   UNL     1     -10.706  11.016  69.780  1.00  0.00    -0.452 NA 
HETATM   12  H   UNL     1     -10.102  11.462  70.470  1.00  0.00     0.000 HD 
BRANCH  11  13
HETATM   13  C   UNL     1     -11.230  11.833  68.826  1.00  0.00    -0.251 C  
HETATM   14  C   UNL     1     -11.822  13.910  68.101  1.00  0.00    -0.372 C  
HETATM   15  N   UNL     1     -11.235  13.153  69.190  1.00  0.00    -0.263 NA 
HETATM   16  C   UNL     1     -11.930  12.854  67.003  1.00  0.00    -0.325 C  
HETATM   17  N   UNL     1     -11.755  11.546  67.671  1.00  0.00    -0.594 NA 
ENDBRANCH  11  13
ENDBRANCH   3  11
TORSDOF 2
ENDMDL
MODEL       53
REMARK 921   NORMALIZED FREE ENERGY PREDICTED BY IDOCK:   -4.51 KCAL/MOL
REMARK 922        TOTAL FREE ENERGY PREDICTED BY IDOCK:   -5.38 KCAL/MOL
REMARK 923 INTER-LIGAND FREE ENERGY PREDICTED BY IDOCK:   -5.05 KCAL/MOL
REMARK 924 INTRA-LIGAND FREE ENERGY PREDICTED BY IDOCK:   -0.33 KCAL/MOL
REMARK 927      BINDING AFFINITY PREDICTED BY RF-SCORE:    0.00 PKD
ROOT
HETATM    1 CL   UNL     1      -8.078  13.727  68.119  1.00  0.00    -0.144 Cl 
HETATM    2  C   UNL     1      -8.399  15.416  68.392  1.00  0.00    -0.147 A  
HETATM    3  C   UNL     1      -9.665  16.003  68.116  1.00  0.00    -0.217 A  
HETATM    4  C   UNL     1      -9.620  17.436  68.093  1.00  0.00    -0.287 A  
HETATM    5  C   UNL     1      -7.237  16.157  68.761  1.00  0.00    -0.170 A  
HETATM    6  N   UNL     1     -10.653  18.235  67.764  1.00  0.00    -0.412 NA 
HETATM    7  C   UNL     1      -7.184  17.556  68.810  1.00  0.00    -0.257 A  
HETATM    8  C   UNL     1      -8.374  18.210  68.434  1.00  0.00    -0.299 A  
HETATM    9  S   UNL     1     -10.092  19.796  67.843  1.00  0.00    -0.443 SA 
HETATM   10  N   UNL     1      -8.530  19.538  68.334  1.00  0.00    -0.352 NA 
ENDROOT
BRANCH   3  11
HETATM   11  N   UNL     1     -10.877  15.358  67.821  1.00  0.00    -0.294 NA 
HETATM   12  H   UNL     1     -11.564  15.325  68.574  1.00  0.00     0.000 HD 
BRANCH  11  13
HETATM   13  C   UNL     1     -11.244  14.771  66.649  1.00  0.00    -0.346 C  
HETATM   14  C   UNL     1     -12.329  13.120  65.512  1.00  0.00    -0.474 C  
HETATM   15  N   UNL     1     -12.015  13.652  66.825  1.00  0.00    -0.405 NA 
HETATM   16  C   UNL     1     -11.813  14.224  64.592  1.00  0.00    -0.448 C  
HETATM   17  N   UNL     1     -10.939  15.080  65.424  1.00  0.00    -0.352 NA 
ENDBRANCH  11  13
ENDBRANCH   3  11
TORSDOF 2
ENDMDL
MODEL       54
REMARK 921   NORMALIZED FREE ENERGY PREDICTED BY IDOCK:   -4.48 KCAL/MOL
REMARK 922        TOTAL FREE ENERGY PREDICTED BY IDOCK:   -5.35 KCAL/MOL
REMARK 923 INTER-LIGAND FREE ENERGY PREDICTED BY IDOCK:   -4.99 KCAL/MOL
REMARK 924 INTRA-LIGAND FREE ENERGY PREDICTED BY IDOCK:   -0.36 KCAL/MOL
REMARK 927      BINDING AFFINITY PREDICTED BY RF-SCORE:    0.00 PKD
ROOT
HETATM    1 CL   UNL     1     -12.406  14.138  66.843  1.00  0.00    -0.399 Cl 
HETATM    2  C   UNL     1     -11.754  12.871  65.843  1.00  0.00    -0.399 A  
HETATM    3  C   UNL     1     -10.717  12.007  66.292  1.00  0.00    -0.267 A  
HETATM    4  C   UNL     1     -10.106  11.269  65.225  1.00  0.00    -0.267 A  
HETATM    5  C   UNL     1     -12.248  12.899  64.505  1.00  0.00    -0.489 A  
HETATM    6  N   UNL     1      -9.042  10.455  65.361  1.00  0.00    -0.177 NA 
HETATM    7  C   UNL     1     -11.712  12.140  63.457  1.00  0.00    -0.579 A  
HETATM    8  C   UNL     1     -10.603  11.344  63.805  1.00  0.00    -0.403 A  
HETATM    9  S   UNL     1      -8.689   9.877  63.844  1.00  0.00    -0.233 SA 
HETATM   10  N   UNL     1      -9.886  10.597  62.952  1.00  0.00    -0.292 NA 
ENDROOT
BRANCH   3  11
HETATM   11  N   UNL     1     -10.217  11.853  67.596  1.00  0.00    -0.198 NA 
HETATM   12  H   UNL     1      -9.298  12.257  67.776  1.00  0.00     0.000 HD 
BRANCH  11  13
HETATM   13  C   UNL     1     -10.814  11.228  68.647  1.00  0.00    -0.204 C  
HETATM   14  C   UNL     1     -11.139   9.370  69.926  1.00  0.00    -0.200 C  
HETATM   15  N   UNL     1     -10.431   9.920  68.785  1.00  0.00    -0.204 NA 
HETATM   16  C   UNL     1     -11.787  10.615  70.526  1.00  0.00    -0.357 C  
HETATM   17  N   UNL     1     -11.704  11.665  69.488  1.00  0.00    -0.316 NA 
ENDBRANCH  11  13
ENDBRANCH   3  11
TORSDOF 2
ENDMDL
MODEL       55
REMARK 921   NORMALIZED FREE ENERGY PREDICTED BY IDOCK:   -4.48 KCAL/MOL
REMARK 922        TOTAL FREE ENERGY PREDICTED BY IDOCK:   -5.34 KCAL/MOL
REMARK 923 INTER-LIGAND FREE ENERGY PREDICTED BY IDOCK:   -5.38 KCAL/MOL
REMARK 924 INTRA-LIGAND FREE ENERGY PREDICTED BY IDOCK:    0.04 KCAL/MOL
REMARK 927      BINDING AFFINITY PREDICTED BY RF-SCORE:    0.00 PKD
ROOT
HETATM    1 CL   UNL     1      -9.785  10.458  65.146  1.00  0.00    -0.324 Cl 
HETATM    2  C   UNL     1     -10.392   9.911  66.682  1.00  0.00    -0.205 A  
HETATM    3  C   UNL     1     -11.252  10.709  67.487  1.00  0.00    -0.253 A  
HETATM    4  C   UNL     1     -11.364  10.224  68.832  1.00  0.00    -0.173 A  
HETATM    5  C   UNL     1      -9.819   8.675  67.107  1.00  0.00    -0.269 A  
HETATM    6  N   UNL     1     -12.036  10.843  69.821  1.00  0.00    -0.330 NA 
HETATM    7  C   UNL     1      -9.967   8.146  68.395  1.00  0.00    -0.210 A  
HETATM    8  C   UNL     1     -10.713   8.943  69.285  1.00  0.00    -0.162 A  
HETATM    9  S   UNL     1     -11.831   9.918  71.186  1.00  0.00    -0.404 SA 
HETATM   10  N   UNL     1     -10.918   8.674  70.582  1.00  0.00    -0.235 NA 
ENDROOT
BRANCH   3  11
HETATM   11  N   UNL     1     -11.921  11.893  67.135  1.00  0.00    -0.603 NA 
HETATM   12  H   UNL     1     -12.463  12.340  67.875  1.00  0.00     0.000 HD 
BRANCH  11  13
HETATM   13  C   UNL     1     -11.931  12.515  65.925  1.00  0.00    -0.409 C  
HETATM   14  C   UNL     1     -11.085  14.065  64.485  1.00  0.00    -0.351 C  
HETATM   15  N   UNL     1     -10.962  13.476  65.805  1.00  0.00    -0.277 NA 
HETATM   16  C   UNL     1     -12.104  13.143  63.821  1.00  0.00    -0.495 C  
HETATM   17  N   UNL     1     -12.732  12.368  64.912  1.00  0.00    -0.684 NA 
ENDBRANCH  11  13
ENDBRANCH   3  11
TORSDOF 2
ENDMDL
MODEL       56
REMARK 921   NORMALIZED FREE ENERGY PREDICTED BY IDOCK:   -4.46 KCAL/MOL
REMARK 922        TOTAL FREE ENERGY PREDICTED BY IDOCK:   -5.33 KCAL/MOL
REMARK 923 INTER-LIGAND FREE ENERGY PREDICTED BY IDOCK:   -5.10 KCAL/MOL
REMARK 924 INTRA-LIGAND FREE ENERGY PREDICTED BY IDOCK:   -0.23 KCAL/MOL
REMARK 927      BINDING AFFINITY PREDICTED BY RF-SCORE:    0.00 PKD
ROOT
HETATM    1 CL   UNL     1      -9.956   9.102  71.333  1.00  0.00    -0.384 Cl 
HETATM    2  C   UNL     1      -9.904  10.081  69.895  1.00  0.00    -0.224 A  
HETATM    3  C   UNL     1     -11.054  10.749  69.389  1.00  0.00    -0.268 A  
HETATM    4  C   UNL     1     -10.880  11.216  68.045  1.00  0.00    -0.225 A  
HETATM    5  C   UNL     1      -8.655  10.010  69.210  1.00  0.00    -0.172 A  
HETATM    6  N   UNL     1     -11.839  11.796  67.299  1.00  0.00    -0.624 NA 
HETATM    7  C   UNL     1      -8.439  10.516  67.922  1.00  0.00    -0.119 A  
HETATM    8  C   UNL     1      -9.570  11.091  67.311  1.00  0.00    -0.165 A  
HETATM    9  S   UNL     1     -11.163  12.112  65.816  1.00  0.00    -0.344 SA 
HETATM   10  N   UNL     1      -9.616  11.569  66.059  1.00  0.00    -0.221 NA 
ENDROOT
BRANCH   3  11
HETATM   11  N   UNL     1     -12.297  10.937  70.017  1.00  0.00    -0.330 NA 
HETATM   12  H   UNL     1     -13.015  10.244  69.809  1.00  0.00     0.000 HD 
BRANCH  11  13
HETATM   13  C   UNL     1     -12.656  11.935  70.869  1.00  0.00    -0.266 C  
HETATM   14  C   UNL     1     -12.621  14.130  71.480  1.00  0.00    -0.354 C  
HETATM   15  N   UNL     1     -12.180  13.163  70.492  1.00  0.00    -0.361 NA 
HETATM   16  C   UNL     1     -13.588  13.302  72.324  1.00  0.00    -0.605 C  
HETATM   17  N   UNL     1     -13.325  11.887  71.983  1.00  0.00    -0.441 NA 
ENDBRANCH  11  13
ENDBRANCH   3  11
TORSDOF 2
ENDMDL
MODEL       57
REMARK 921   NORMALIZED FREE ENERGY PREDICTED BY IDOCK:   -4.44 KCAL/MOL
REMARK 922        TOTAL FREE ENERGY PREDICTED BY IDOCK:   -5.30 KCAL/MOL
REMARK 923 INTER-LIGAND FREE ENERGY PREDICTED BY IDOCK:   -4.99 KCAL/MOL
REMARK 924 INTRA-LIGAND FREE ENERGY PREDICTED BY IDOCK:   -0.31 KCAL/MOL
REMARK 927      BINDING AFFINITY PREDICTED BY RF-SCORE:    0.00 PKD
ROOT
HETATM    1 CL   UNL     1     -12.477  14.830  64.094  1.00  0.00    -0.345 Cl 
HETATM    2  C   UNL     1     -11.535  13.455  64.595  1.00  0.00    -0.348 A  
HETATM    3  C   UNL     1     -10.723  13.475  65.764  1.00  0.00    -0.275 A  
HETATM    4  C   UNL     1      -9.792  12.387  65.813  1.00  0.00    -0.240 A  
HETATM    5  C   UNL     1     -11.540  12.391  63.644  1.00  0.00    -0.580 A  
HETATM    6  N   UNL     1      -8.848  12.222  66.759  1.00  0.00    -0.206 NA 
HETATM    7  C   UNL     1     -10.686  11.283  63.705  1.00  0.00    -0.448 A  
HETATM    8  C   UNL     1      -9.772  11.294  64.776  1.00  0.00    -0.256 A  
HETATM    9  S   UNL     1      -8.002  10.851  66.354  1.00  0.00    -0.156 SA 
HETATM   10  N   UNL     1      -8.814  10.379  64.988  1.00  0.00    -0.182 NA 
ENDROOT
BRANCH   3  11
HETATM   11  N   UNL     1     -10.702  14.434  66.790  1.00  0.00    -0.289 NA 
HETATM   12  H   UNL     1     -11.055  14.129  67.698  1.00  0.00     0.000 HD 
BRANCH  11  13
HETATM   13  C   UNL     1     -10.265  15.720  66.719  1.00  0.00    -0.282 C  
HETATM   14  C   UNL     1     -10.233  17.852  67.524  1.00  0.00    -0.363 C  
HETATM   15  N   UNL     1     -10.763  16.515  67.718  1.00  0.00    -0.337 NA 
HETATM   16  C   UNL     1      -9.205  17.628  66.419  1.00  0.00    -0.244 C  
HETATM   17  N   UNL     1      -9.504  16.301  65.839  1.00  0.00    -0.440 NA 
ENDBRANCH  11  13
ENDBRANCH   3  11
TORSDOF 2
ENDMDL
MODEL       58
REMARK 921   NORMALIZED FREE ENERGY PREDICTED BY IDOCK:   -4.34 KCAL/MOL
REMARK 922        TOTAL FREE ENERGY PREDICTED BY IDOCK:   -5.20 KCAL/MOL
REMARK 923 INTER-LIGAND FREE ENERGY PREDICTED BY IDOCK:   -4.93 KCAL/MOL
REMARK 924 INTRA-LIGAND FREE ENERGY PREDICTED BY IDOCK:   -0.26 KCAL/MOL
REMARK 927      BINDING AFFINITY PREDICTED BY RF-SCORE:    0.00 PKD
ROOT
HETATM    1 CL   UNL     1     -11.260  11.967  63.804  1.00  0.00    -0.471 Cl 
HETATM    2  C   UNL     1     -11.024  13.048  65.148  1.00  0.00    -0.295 A  
HETATM    3  C   UNL     1     -11.315  12.668  66.488  1.00  0.00    -0.326 A  
HETATM    4  C   UNL     1     -11.369  13.786  67.384  1.00  0.00    -0.324 A  
HETATM    5  C   UNL     1     -10.670  14.372  64.751  1.00  0.00    -0.423 A  
HETATM    6  N   UNL     1     -11.716  13.718  68.683  1.00  0.00    -0.334 NA 
HETATM    7  C   UNL     1     -10.651  15.470  65.620  1.00  0.00    -0.389 A  
HETATM    8  C   UNL     1     -11.042  15.190  66.943  1.00  0.00    -0.314 A  
HETATM    9  S   UNL     1     -11.671  15.271  69.270  1.00  0.00    -0.345 SA 
HETATM   10  N   UNL     1     -11.172  16.097  67.922  1.00  0.00    -0.294 NA 
ENDROOT
BRANCH   3  11
HETATM   11  N   UNL     1     -11.597  11.386  66.986  1.00  0.00    -0.514 NA 
HETATM   12  H   UNL     1     -12.583  11.126  67.028  1.00  0.00     0.000 HD 
BRANCH  11  13
HETATM   13  C   UNL     1     -10.712  10.448  67.421  1.00  0.00    -0.283 C  
HETATM   14  C   UNL     1      -8.576   9.800  67.881  1.00  0.00    -0.125 C  
HETATM   15  N   UNL     1      -9.414  10.886  67.408  1.00  0.00    -0.155 NA 
HETATM   16  C   UNL     1      -9.613   8.789  68.365  1.00  0.00    -0.147 C  
HETATM   17  N   UNL     1     -10.907   9.218  67.791  1.00  0.00    -0.198 NA 
ENDBRANCH  11  13
ENDBRANCH   3  11
TORSDOF 2
ENDMDL
MODEL       59
REMARK 921   NORMALIZED FREE ENERGY PREDICTED BY IDOCK:   -4.32 KCAL/MOL
REMARK 922        TOTAL FREE ENERGY PREDICTED BY IDOCK:   -5.17 KCAL/MOL
REMARK 923 INTER-LIGAND FREE ENERGY PREDICTED BY IDOCK:   -4.83 KCAL/MOL
REMARK 924 INTRA-LIGAND FREE ENERGY PREDICTED BY IDOCK:   -0.33 KCAL/MOL
REMARK 927      BINDING AFFINITY PREDICTED BY RF-SCORE:    0.00 PKD
ROOT
HETATM    1 CL   UNL     1      -9.661   7.735  68.289  1.00  0.00    -0.156 Cl 
HETATM    2  C   UNL     1      -9.926   9.392  67.829  1.00  0.00    -0.184 A  
HETATM    3  C   UNL     1     -10.244  10.403  68.779  1.00  0.00    -0.187 A  
HETATM    4  C   UNL     1     -10.741  11.602  68.170  1.00  0.00    -0.213 A  
HETATM    5  C   UNL     1      -9.946   9.589  66.416  1.00  0.00    -0.339 A  
HETATM    6  N   UNL     1     -11.203  12.674  68.842  1.00  0.00    -0.266 NA 
HETATM    7  C   UNL     1     -10.365  10.773  65.797  1.00  0.00    -0.295 A  
HETATM    8  C   UNL     1     -10.806  11.781  66.676  1.00  0.00    -0.276 A  
HETATM    9  S   UNL     1     -11.701  13.772  67.701  1.00  0.00    -0.383 SA 
HETATM   10  N   UNL     1     -11.320  12.963  66.305  1.00  0.00    -0.309 NA 
ENDROOT
BRANCH   3  11
HETATM   11  N   UNL     1     -10.181  10.329  70.180  1.00  0.00    -0.424 NA 
HETATM   12  H   UNL     1      -9.441  10.872  70.626  1.00  0.00     0.000 HD 
BRANCH  11  13
HETATM   13  C   UNL     1     -10.989   9.620  71.014  1.00  0.00    -0.361 C  
HETATM   14  C   UNL     1     -13.048   9.196  71.894  1.00  0.00    -0.411 C  
HETATM   15  N   UNL     1     -12.299  10.017  70.961  1.00  0.00    -0.334 NA 
HETATM   16  C   UNL     1     -12.011   8.151  72.299  1.00  0.00    -0.377 C  
HETATM   17  N   UNL     1     -10.700   8.681  71.865  1.00  0.00    -0.318 NA 
ENDBRANCH  11  13
ENDBRANCH   3  11
TORSDOF 2
ENDMDL
MODEL       60
REMARK 921   NORMALIZED FREE ENERGY PREDICTED BY IDOCK:   -4.30 KCAL/MOL
REMARK 922        TOTAL FREE ENERGY PREDICTED BY IDOCK:   -5.14 KCAL/MOL
REMARK 923 INTER-LIGAND FREE ENERGY PREDICTED BY IDOCK:   -4.82 KCAL/MOL
REMARK 924 INTRA-LIGAND FREE ENERGY PREDICTED BY IDOCK:   -0.32 KCAL/MOL
REMARK 927      BINDING AFFINITY PREDICTED BY RF-SCORE:    0.00 PKD
ROOT
HETATM    1 CL   UNL     1     -11.266  16.530  68.368  1.00  0.00    -0.337 Cl 
HETATM    2  C   UNL     1     -10.251  17.622  67.470  1.00  0.00    -0.348 A  
HETATM    3  C   UNL     1      -9.217  17.162  66.608  1.00  0.00    -0.260 A  
HETATM    4  C   UNL     1      -8.303  18.201  66.232  1.00  0.00    -0.198 A  
HETATM    5  C   UNL     1     -10.459  18.992  67.809  1.00  0.00    -0.499 A  
HETATM    6  N   UNL     1      -7.186  18.019  65.503  1.00  0.00    -0.507 NA 
HETATM    7  C   UNL     1      -9.618  20.035  67.402  1.00  0.00    -0.524 A  
HETATM    8  C   UNL     1      -8.504  19.638  66.638  1.00  0.00    -0.324 A  
HETATM    9  S   UNL     1      -6.451  19.504  65.379  1.00  0.00    -0.278 SA 
HETATM   10  N   UNL     1      -7.530  20.453  66.206  1.00  0.00    -0.221 NA 
ENDROOT
BRANCH   3  11
HETATM   11  N   UNL     1      -8.978  15.854  66.157  1.00  0.00    -0.341 NA 
HETATM   12  H   UNL     1      -9.099  15.693  65.157  1.00  0.00     0.000 HD 
BRANCH  11  13
HETATM   13  C   UNL     1      -8.604  14.774  66.896  1.00  0.00    -0.224 C  
HETATM   14  C   UNL     1      -8.975  12.649  67.631  1.00  0.00    -0.186 C  
HETATM   15  N   UNL     1      -9.478  13.724  66.796  1.00  0.00    -0.267 NA 
HETATM   16  C   UNL     1      -7.595  13.172  68.022  1.00  0.00    -0.144 C  
HETATM   17  N   UNL     1      -7.593  14.615  67.697  1.00  0.00    -0.164 NA 
ENDBRANCH  11  13
ENDBRANCH   3  11
TORSDOF 2
ENDMDL
MODEL       61
REMARK 921   NORMALIZED FREE ENERGY PREDICTED BY IDOCK:   -4.27 KCAL/MOL
REMARK 922        TOTAL FREE ENERGY PREDICTED BY IDOCK:   -5.11 KCAL/MOL
REMARK 923 INTER-LIGAND FREE ENERGY PREDICTED BY IDOCK:   -4.76 KCAL/MOL
REMARK 924 INTRA-LIGAND FREE ENERGY PREDICTED BY IDOCK:   -0.35 KCAL/MOL
REMARK 927      BINDING AFFINITY PREDICTED BY RF-SCORE:    0.00 PKD
ROOT
HETATM    1 CL   UNL     1     -11.647  16.182  68.466  1.00  0.00    -0.340 Cl 
HETATM    2  C   UNL     1     -11.886  14.878  69.593  1.00  0.00    -0.318 A  
HETATM    3  C   UNL     1     -11.587  13.526  69.265  1.00  0.00    -0.316 A  
HETATM    4  C   UNL     1     -12.156  12.590  70.189  1.00  0.00    -0.292 A  
HETATM    5  C   UNL     1     -12.548  15.282  70.791  1.00  0.00    -0.474 A  
HETATM    6  N   UNL     1     -12.105  11.250  70.060  1.00  0.00    -0.333 NA 
HETATM    7  C   UNL     1     -13.057  14.389  71.743  1.00  0.00    -0.428 A  
HETATM    8  C   UNL     1     -12.898  13.027  71.426  1.00  0.00    -0.292 A  
HETATM    9  S   UNL     1     -12.941  10.616  71.348  1.00  0.00    -0.441 SA 
HETATM   10  N   UNL     1     -13.372  12.002  72.150  1.00  0.00    -0.439 NA 
ENDROOT
BRANCH   3  11
HETATM   11  N   UNL     1     -10.877  13.038  68.156  1.00  0.00    -0.238 NA 
HETATM   12  H   UNL     1     -11.439  12.646  67.399  1.00  0.00     0.000 HD 
BRANCH  11  13
HETATM   13  C   UNL     1      -9.530  13.025  67.969  1.00  0.00    -0.217 C  
HETATM   14  C   UNL     1      -7.590  11.888  67.596  1.00  0.00    -0.136 C  
HETATM   15  N   UNL     1      -9.025  11.767  67.771  1.00  0.00    -0.167 NA 
HETATM   16  C   UNL     1      -7.410  13.402  67.502  1.00  0.00    -0.156 C  
HETATM   17  N   UNL     1      -8.669  13.999  67.998  1.00  0.00    -0.171 NA 
ENDBRANCH  11  13
ENDBRANCH   3  11
TORSDOF 2
ENDMDL
MODEL       62
REMARK 921   NORMALIZED FREE ENERGY PREDICTED BY IDOCK:   -4.26 KCAL/MOL
REMARK 922        TOTAL FREE ENERGY PREDICTED BY IDOCK:   -5.10 KCAL/MOL
REMARK 923 INTER-LIGAND FREE ENERGY PREDICTED BY IDOCK:   -4.81 KCAL/MOL
REMARK 924 INTRA-LIGAND FREE ENERGY PREDICTED BY IDOCK:   -0.29 KCAL/MOL
REMARK 927      BINDING AFFINITY PREDICTED BY RF-SCORE:    0.00 PKD
ROOT
HETATM    1 CL   UNL     1      -9.878   9.594  65.509  1.00  0.00    -0.383 Cl 
HETATM    2  C   UNL     1     -10.180   8.968  67.104  1.00  0.00    -0.265 A  
HETATM    3  C   UNL     1     -10.979   9.664  68.054  1.00  0.00    -0.140 A  
HETATM    4  C   UNL     1     -10.831   9.153  69.386  1.00  0.00    -0.151 A  
HETATM    5  C   UNL     1      -9.429   7.793  67.400  1.00  0.00    -0.177 A  
HETATM    6  N   UNL     1     -11.399   9.687  70.484  1.00  0.00    -0.277 NA 
HETATM    7  C   UNL     1      -9.320   7.235  68.680  1.00  0.00    -0.138 A  
HETATM    8  C   UNL     1      -9.993   7.940  69.696  1.00  0.00    -0.191 A  
HETATM    9  S   UNL     1     -10.892   8.771  71.774  1.00  0.00    -0.366 SA 
HETATM   10  N   UNL     1      -9.965   7.634  71.002  1.00  0.00    -0.182 NA 
ENDROOT
BRANCH   3  11
HETATM   11  N   UNL     1     -11.809  10.777  67.844  1.00  0.00    -0.742 NA 
HETATM   12  H   UNL     1     -12.801  10.643  68.038  1.00  0.00     0.000 HD 
BRANCH  11  13
HETATM   13  C   UNL     1     -11.446  12.016  67.411  1.00  0.00    -0.336 C  
HETATM   14  C   UNL     1     -11.631  13.728  65.919  1.00  0.00    -0.333 C  
HETATM   15  N   UNL     1     -12.111  12.407  66.279  1.00  0.00    -0.630 NA 
HETATM   16  C   UNL     1     -10.780  14.097  67.132  1.00  0.00    -0.280 C  
HETATM   17  N   UNL     1     -10.552  12.838  67.874  1.00  0.00    -0.216 NA 
ENDBRANCH  11  13
ENDBRANCH   3  11
TORSDOF 2
ENDMDL
MODEL       63
REMARK 921   NORMALIZED FREE ENERGY PREDICTED BY IDOCK:   -4.26 KCAL/MOL
REMARK 922        TOTAL FREE ENERGY PREDICTED BY IDOCK:   -5.10 KCAL/MOL
REMARK 923 INTER-LIGAND FREE ENERGY PREDICTED BY IDOCK:   -4.77 KCAL/MOL
REMARK 924 INTRA-LIGAND FREE ENERGY PREDICTED BY IDOCK:   -0.33 KCAL/MOL
REMARK 927      BINDING AFFINITY PREDICTED BY RF-SCORE:    0.00 PKD
ROOT
HETATM    1 CL   UNL     1     -11.903  15.801  68.800  1.00  0.00    -0.383 Cl 
HETATM    2  C   UNL     1     -10.496  16.530  68.082  1.00  0.00    -0.313 A  
HETATM    3  C   UNL     1      -9.525  15.770  67.371  1.00  0.00    -0.212 A  
HETATM    4  C   UNL     1      -8.305  16.491  67.154  1.00  0.00    -0.180 A  
HETATM    5  C   UNL     1     -10.345  17.910  68.413  1.00  0.00    -0.380 A  
HETATM    6  N   UNL     1      -7.194  15.975  66.593  1.00  0.00    -0.177 NA 
HETATM    7  C   UNL     1      -9.188  18.655  68.153  1.00  0.00    -0.340 A  
HETATM    8  C   UNL     1      -8.138  17.934  67.553  1.00  0.00    -0.225 A  
HETATM    9  S   UNL     1      -6.051  17.180  66.606  1.00  0.00    -0.202 SA 
HETATM   10  N   UNL     1      -6.917  18.420  67.285  1.00  0.00    -0.198 NA 
ENDROOT
BRANCH   3  11
HETATM   11  N   UNL     1      -9.613  14.438  66.935  1.00  0.00    -0.246 NA 
HETATM   12  H   UNL     1      -8.969  13.778  67.372  1.00  0.00     0.000 HD 
BRANCH  11  13
HETATM   13  C   UNL     1     -10.455  13.922  65.999  1.00  0.00    -0.298 C  
HETATM   14  C   UNL     1     -12.246  12.629  65.440  1.00  0.00    -0.459 C  
HETATM   15  N   UNL     1     -11.427  13.119  66.533  1.00  0.00    -0.322 NA 
HETATM   16  C   UNL     1     -11.727  13.452  64.263  1.00  0.00    -0.412 C  
HETATM   17  N   UNL     1     -10.444  14.039  64.705  1.00  0.00    -0.430 NA 
ENDBRANCH  11  13
ENDBRANCH   3  11
TORSDOF 2
ENDMDL
MODEL       64
REMARK 921   NORMALIZED FREE ENERGY PREDICTED BY IDOCK:   -4.24 KCAL/MOL
REMARK 922        TOTAL FREE ENERGY PREDICTED BY IDOCK:   -5.08 KCAL/MOL
REMARK 923 INTER-LIGAND FREE ENERGY PREDICTED BY IDOCK:   -4.80 KCAL/MOL
REMARK 924 INTRA-LIGAND FREE ENERGY PREDICTED BY IDOCK:   -0.28 KCAL/MOL
REMARK 927      BINDING AFFINITY PREDICTED BY RF-SCORE:    0.00 PKD
ROOT
HETATM    1 CL   UNL     1     -11.687  14.747  65.273  1.00  0.00    -0.339 Cl 
HETATM    2  C   UNL     1     -11.638  14.142  66.905  1.00  0.00    -0.391 A  
HETATM    3  C   UNL     1     -11.835  12.766  67.211  1.00  0.00    -0.350 A  
HETATM    4  C   UNL     1     -12.084  12.537  68.604  1.00  0.00    -0.093 A  
HETATM    5  C   UNL     1     -11.542  15.173  67.885  1.00  0.00    -0.326 A  
HETATM    6  N   UNL     1     -12.394  11.344  69.146  1.00  0.00    -0.353 NA 
HETATM    7  C   UNL     1     -11.716  14.965  69.260  1.00  0.00    -0.344 A  
HETATM    8  C   UNL     1     -12.030  13.642  69.626  1.00  0.00    -0.343 A  
HETATM    9  S   UNL     1     -12.630  11.605  70.769  1.00  0.00    -0.212 SA 
HETATM   10  N   UNL     1     -12.312  13.229  70.870  1.00  0.00    -0.368 NA 
ENDROOT
BRANCH   3  11
HETATM   11  N   UNL     1     -11.867  11.675  66.328  1.00  0.00    -0.368 NA 
HETATM   12  H   UNL     1     -12.648  11.028  66.439  1.00  0.00     0.000 HD 
BRANCH  11  13
HETATM   13  C   UNL     1     -10.980  11.377  65.340  1.00  0.00    -0.184 C  
HETATM   14  C   UNL     1      -8.913  10.688  64.673  1.00  0.00    -0.197 C  
HETATM   15  N   UNL     1      -9.764  10.963  65.815  1.00  0.00    -0.212 NA 
HETATM   16  C   UNL     1      -9.899  10.793  63.512  1.00  0.00    -0.347 C  
HETATM   17  N   UNL     1     -11.098  11.471  64.049  1.00  0.00    -0.375 NA 
ENDBRANCH  11  13
ENDBRANCH   3  11
TORSDOF 2
ENDMDL
MODEL       65
REMARK 921   NORMALIZED FREE ENERGY PREDICTED BY IDOCK:   -4.23 KCAL/MOL
REMARK 922        TOTAL FREE ENERGY PREDICTED BY IDOCK:   -5.06 KCAL/MOL
REMARK 923 INTER-LIGAND FREE ENERGY PREDICTED BY IDOCK:   -4.71 KCAL/MOL
REMARK 924 INTRA-LIGAND FREE ENERGY PREDICTED BY IDOCK:   -0.35 KCAL/MOL
REMARK 927      BINDING AFFINITY PREDICTED BY RF-SCORE:    0.00 PKD
ROOT
HETATM    1 CL   UNL     1     -11.593   8.080  72.569  1.00  0.00    -0.447 Cl 
HETATM    2  C   UNL     1     -11.856   9.464  71.549  1.00  0.00    -0.385 A  
HETATM    3  C   UNL     1     -11.043   9.736  70.413  1.00  0.00    -0.307 A  
HETATM    4  C   UNL     1     -11.210  11.071  69.916  1.00  0.00    -0.252 A  
HETATM    5  C   UNL     1     -12.846  10.358  72.055  1.00  0.00    -0.447 A  
HETATM    6  N   UNL     1     -10.495  11.615  68.913  1.00  0.00    -0.203 NA 
HETATM    7  C   UNL     1     -13.074  11.643  71.546  1.00  0.00    -0.405 A  
HETATM    8  C   UNL     1     -12.224  12.025  70.491  1.00  0.00    -0.325 A  
HETATM    9  S   UNL     1     -11.026  13.180  68.745  1.00  0.00    -0.251 SA 
HETATM   10  N   UNL     1     -12.210  13.230  69.903  1.00  0.00    -0.282 NA 
ENDROOT
BRANCH   3  11
HETATM   11  N   UNL     1     -10.101   8.896  69.797  1.00  0.00    -0.193 NA 
HETATM   12  H   UNL     1      -9.124   9.063  70.037  1.00  0.00     0.000 HD 
BRANCH  11  13
HETATM   13  C   UNL     1     -10.337   7.885  68.918  1.00  0.00    -0.213 C  
HETATM   14  C   UNL     1     -10.451   5.660  68.438  1.00  0.00    -0.195 C  
HETATM   15  N   UNL     1     -10.182   6.642  69.472  1.00  0.00    -0.176 NA 
HETATM   16  C   UNL     1     -10.990   6.532  67.306  1.00  0.00    -0.400 C  
HETATM   17  N   UNL     1     -10.633   7.924  67.652  1.00  0.00    -0.231 NA 
ENDBRANCH  11  13
ENDBRANCH   3  11
TORSDOF 2
ENDMDL
MODEL       66
REMARK 921   NORMALIZED FREE ENERGY PREDICTED BY IDOCK:   -4.20 KCAL/MOL
REMARK 922        TOTAL FREE ENERGY PREDICTED BY IDOCK:   -5.03 KCAL/MOL
REMARK 923 INTER-LIGAND FREE ENERGY PREDICTED BY IDOCK:   -4.77 KCAL/MOL
REMARK 924 INTRA-LIGAND FREE ENERGY PREDICTED BY IDOCK:   -0.26 KCAL/MOL
REMARK 927      BINDING AFFINITY PREDICTED BY RF-SCORE:    0.00 PKD
ROOT
HETATM    1 CL   UNL     1      -9.688   8.813  66.027  1.00  0.00    -0.312 Cl 
HETATM    2  C   UNL     1     -10.387   8.296  67.534  1.00  0.00    -0.265 A  
HETATM    3  C   UNL     1     -10.430   9.139  68.680  1.00  0.00    -0.207 A  
HETATM    4  C   UNL     1     -10.735   8.425  69.885  1.00  0.00    -0.227 A  
HETATM    5  C   UNL     1     -10.756   6.918  67.542  1.00  0.00    -0.368 A  
HETATM    6  N   UNL     1     -10.745   8.964  71.120  1.00  0.00    -0.240 NA 
HETATM    7  C   UNL     1     -11.121   6.212  68.695  1.00  0.00    -0.378 A  
HETATM    8  C   UNL     1     -11.074   6.957  69.889  1.00  0.00    -0.288 A  
HETATM    9  S   UNL     1     -11.107   7.732  72.173  1.00  0.00    -0.303 SA 
HETATM   10  N   UNL     1     -11.308   6.470  71.117  1.00  0.00    -0.299 NA 
ENDROOT
BRANCH   3  11
HETATM   11  N   UNL     1     -10.162  10.516  68.757  1.00  0.00    -0.180 NA 
HETATM   12  H   UNL     1      -9.392  10.791  69.368  1.00  0.00     0.000 HD 
BRANCH  11  13
HETATM   13  C   UNL     1     -10.807  11.527  68.114  1.00  0.00    -0.215 C  
HETATM   14  C   UNL     1     -11.140  13.751  67.750  1.00  0.00    -0.268 C  
HETATM   15  N   UNL     1     -10.374  12.770  68.494  1.00  0.00    -0.236 NA 
HETATM   16  C   UNL     1     -11.891  12.875  66.750  1.00  0.00    -0.385 C  
HETATM   17  N   UNL     1     -11.779  11.488  67.252  1.00  0.00    -0.603 NA 
ENDBRANCH  11  13
ENDBRANCH   3  11
TORSDOF 2
ENDMDL
MODEL       67
REMARK 921   NORMALIZED FREE ENERGY PREDICTED BY IDOCK:   -4.18 KCAL/MOL
REMARK 922        TOTAL FREE ENERGY PREDICTED BY IDOCK:   -5.01 KCAL/MOL
REMARK 923 INTER-LIGAND FREE ENERGY PREDICTED BY IDOCK:   -4.83 KCAL/MOL
REMARK 924 INTRA-LIGAND FREE ENERGY PREDICTED BY IDOCK:   -0.18 KCAL/MOL
REMARK 927      BINDING AFFINITY PREDICTED BY RF-SCORE:    0.00 PKD
ROOT
HETATM    1 CL   UNL     1     -13.872   9.664  71.389  1.00  0.00    -0.265 Cl 
HETATM    2  C   UNL     1     -12.202   9.233  71.156  1.00  0.00    -0.301 A  
HETATM    3  C   UNL     1     -11.270  10.111  70.535  1.00  0.00    -0.336 A  
HETATM    4  C   UNL     1     -10.058   9.451  70.147  1.00  0.00    -0.233 A  
HETATM    5  C   UNL     1     -11.916   7.879  71.501  1.00  0.00    -0.333 A  
HETATM    6  N   UNL     1      -9.053  10.026  69.458  1.00  0.00    -0.213 NA 
HETATM    7  C   UNL     1     -10.714   7.229  71.192  1.00  0.00    -0.244 A  
HETATM    8  C   UNL     1      -9.786   8.005  70.472  1.00  0.00    -0.178 A  
HETATM    9  S   UNL     1      -7.907   8.849  69.217  1.00  0.00    -0.098 SA 
HETATM   10  N   UNL     1      -8.607   7.569  70.005  1.00  0.00    -0.138 NA 
ENDROOT
BRANCH   3  11
HETATM   11  N   UNL     1     -11.430  11.472  70.227  1.00  0.00    -0.515 NA 
HETATM   12  H   UNL     1     -11.360  12.122  71.010  1.00  0.00     0.000 HD 
BRANCH  11  13
HETATM   13  C   UNL     1     -11.668  12.026  69.007  1.00  0.00    -0.325 C  
HETATM   14  C   UNL     1     -11.866  13.858  67.666  1.00  0.00    -0.386 C  
HETATM   15  N   UNL     1     -11.584  13.394  69.011  1.00  0.00    -0.290 NA 
HETATM   16  C   UNL     1     -11.894  12.550  66.879  1.00  0.00    -0.334 C  
HETATM   17  N   UNL     1     -12.001  11.468  67.881  1.00  0.00    -0.641 NA 
ENDBRANCH  11  13
ENDBRANCH   3  11
TORSDOF 2
ENDMDL
MODEL       68
REMARK 921   NORMALIZED FREE ENERGY PREDICTED BY IDOCK:   -4.16 KCAL/MOL
REMARK 922        TOTAL FREE ENERGY PREDICTED BY IDOCK:   -4.99 KCAL/MOL
REMARK 923 INTER-LIGAND FREE ENERGY PREDICTED BY IDOCK:   -4.64 KCAL/MOL
REMARK 924 INTRA-LIGAND FREE ENERGY PREDICTED BY IDOCK:   -0.35 KCAL/MOL
REMARK 927      BINDING AFFINITY PREDICTED BY RF-SCORE:    0.00 PKD
ROOT
HETATM    1 CL   UNL     1     -11.854  12.964  63.278  1.00  0.00    -0.570 Cl 
HETATM    2  C   UNL     1     -11.625  12.986  65.003  1.00  0.00    -0.325 A  
HETATM    3  C   UNL     1     -11.236  11.827  65.733  1.00  0.00    -0.281 A  
HETATM    4  C   UNL     1     -11.425  11.971  67.147  1.00  0.00    -0.335 A  
HETATM    5  C   UNL     1     -12.017  14.217  65.608  1.00  0.00    -0.401 A  
HETATM    6  N   UNL     1     -11.226  10.996  68.054  1.00  0.00    -0.286 NA 
HETATM    7  C   UNL     1     -12.146  14.404  66.990  1.00  0.00    -0.374 A  
HETATM    8  C   UNL     1     -11.888  13.261  67.772  1.00  0.00    -0.353 A  
HETATM    9  S   UNL     1     -11.621  11.637  69.535  1.00  0.00    -0.346 SA 
HETATM   10  N   UNL     1     -12.023  13.187  69.104  1.00  0.00    -0.302 NA 
ENDROOT
BRANCH   3  11
HETATM   11  N   UNL     1     -10.766  10.602  65.233  1.00  0.00    -0.117 NA 
HETATM   12  H   UNL     1     -11.385   9.800  65.352  1.00  0.00     0.000 HD 
BRANCH  11  13
HETATM   13  C   UNL     1      -9.582  10.358  64.608  1.00  0.00    -0.300 C  
HETATM   14  C   UNL     1      -7.462   9.521  64.631  1.00  0.00    -0.113 C  
HETATM   15  N   UNL     1      -8.674   9.713  65.406  1.00  0.00    -0.148 NA 
HETATM   16  C   UNL     1      -7.908   9.947  63.235  1.00  0.00    -0.146 C  
HETATM   17  N   UNL     1      -9.181  10.679  63.414  1.00  0.00    -0.241 NA 
ENDBRANCH  11  13
ENDBRANCH   3  11
TORSDOF 2
ENDMDL
MODEL       69
REMARK 921   NORMALIZED FREE ENERGY PREDICTED BY IDOCK:   -4.15 KCAL/MOL
REMARK 922        TOTAL FREE ENERGY PREDICTED BY IDOCK:   -4.98 KCAL/MOL
REMARK 923 INTER-LIGAND FREE ENERGY PREDICTED BY IDOCK:   -4.72 KCAL/MOL
REMARK 924 INTRA-LIGAND FREE ENERGY PREDICTED BY IDOCK:   -0.26 KCAL/MOL
REMARK 927      BINDING AFFINITY PREDICTED BY RF-SCORE:    0.00 PKD
ROOT
HETATM    1 CL   UNL     1     -10.847  18.842  67.564  1.00  0.00    -0.493 Cl 
HETATM    2  C   UNL     1      -9.883  17.421  67.285  1.00  0.00    -0.278 A  
HETATM    3  C   UNL     1     -10.224  16.152  67.832  1.00  0.00    -0.261 A  
HETATM    4  C   UNL     1      -9.147  15.209  67.763  1.00  0.00    -0.179 A  
HETATM    5  C   UNL     1      -8.661  17.693  66.600  1.00  0.00    -0.286 A  
HETATM    6  N   UNL     1      -9.171  13.970  68.291  1.00  0.00    -0.196 NA 
HETATM    7  C   UNL     1      -7.619  16.768  66.461  1.00  0.00    -0.334 A  
HETATM    8  C   UNL     1      -7.841  15.523  67.081  1.00  0.00    -0.221 A  
HETATM    9  S   UNL     1      -7.684  13.294  67.989  1.00  0.00    -0.163 SA 
HETATM   10  N   UNL     1      -6.955  14.519  67.142  1.00  0.00    -0.124 NA 
ENDROOT
BRANCH   3  11
HETATM   11  N   UNL     1     -11.424  15.767  68.452  1.00  0.00    -0.374 NA 
HETATM   12  H   UNL     1     -12.194  15.523  67.830  1.00  0.00     0.000 HD 
BRANCH  11  13
HETATM   13  C   UNL     1     -11.681  15.682  69.786  1.00  0.00    -0.357 C  
HETATM   14  C   UNL     1     -12.713  14.666  71.545  1.00  0.00    -0.338 C  
HETATM   15  N   UNL     1     -12.512  14.642  70.109  1.00  0.00    -0.333 NA 
HETATM   16  C   UNL     1     -11.702  15.721  71.988  1.00  0.00    -0.479 C  
HETATM   17  N   UNL     1     -11.303  16.449  70.765  1.00  0.00    -0.305 NA 
ENDBRANCH  11  13
ENDBRANCH   3  11
TORSDOF 2
ENDMDL
MODEL       70
REMARK 921   NORMALIZED FREE ENERGY PREDICTED BY IDOCK:   -4.14 KCAL/MOL
REMARK 922        TOTAL FREE ENERGY PREDICTED BY IDOCK:   -4.97 KCAL/MOL
REMARK 923 INTER-LIGAND FREE ENERGY PREDICTED BY IDOCK:   -4.83 KCAL/MOL
REMARK 924 INTRA-LIGAND FREE ENERGY PREDICTED BY IDOCK:   -0.14 KCAL/MOL
REMARK 927      BINDING AFFINITY PREDICTED BY RF-SCORE:    0.00 PKD
ROOT
HETATM    1 CL   UNL     1     -12.862   8.834  72.205  1.00  0.00    -0.446 Cl 
HETATM    2  C   UNL     1     -12.698  10.306  71.292  1.00  0.00    -0.421 A  
HETATM    3  C   UNL     1     -11.884  10.391  70.127  1.00  0.00    -0.297 A  
HETATM    4  C   UNL     1     -11.626  11.743  69.726  1.00  0.00    -0.299 A  
HETATM    5  C   UNL     1     -13.324  11.427  71.913  1.00  0.00    -0.409 A  
HETATM    6  N   UNL     1     -10.811  12.106  68.717  1.00  0.00    -0.227 NA 
HETATM    7  C   UNL     1     -13.141  12.753  71.500  1.00  0.00    -0.380 A  
HETATM    8  C   UNL     1     -12.252  12.924  70.421  1.00  0.00    -0.304 A  
HETATM    9  S   UNL     1     -10.810  13.766  68.681  1.00  0.00    -0.267 SA 
HETATM   10  N   UNL     1     -11.870  14.104  69.910  1.00  0.00    -0.305 NA 
ENDROOT
BRANCH   3  11
HETATM   11  N   UNL     1     -11.291   9.344  69.403  1.00  0.00    -0.438 NA 
HETATM   12  H   UNL     1     -11.277   9.449  68.389  1.00  0.00     0.000 HD 
BRANCH  11  13
HETATM   13  C   UNL     1     -10.731   8.204  69.895  1.00  0.00    -0.241 C  
HETATM   14  C   UNL     1     -10.723   5.937  70.120  1.00  0.00    -0.318 C  
HETATM   15  N   UNL     1     -11.409   7.071  69.530  1.00  0.00    -0.146 NA 
HETATM   16  C   UNL     1      -9.454   6.585  70.668  1.00  0.00    -0.166 C  
HETATM   17  N   UNL     1      -9.705   8.042  70.676  1.00  0.00    -0.173 NA 
ENDBRANCH  11  13
ENDBRANCH   3  11
TORSDOF 2
ENDMDL
MODEL       71
REMARK 921   NORMALIZED FREE ENERGY PREDICTED BY IDOCK:   -4.12 KCAL/MOL
REMARK 922        TOTAL FREE ENERGY PREDICTED BY IDOCK:   -4.94 KCAL/MOL
REMARK 923 INTER-LIGAND FREE ENERGY PREDICTED BY IDOCK:   -4.60 KCAL/MOL
REMARK 924 INTRA-LIGAND FREE ENERGY PREDICTED BY IDOCK:   -0.34 KCAL/MOL
REMARK 927      BINDING AFFINITY PREDICTED BY RF-SCORE:    0.00 PKD
ROOT
HETATM    1 CL   UNL     1     -10.099  14.236  65.937  1.00  0.00    -0.327 Cl 
HETATM    2  C   UNL     1     -10.374  14.469  67.640  1.00  0.00    -0.237 A  
HETATM    3  C   UNL     1     -11.266  13.647  68.384  1.00  0.00    -0.276 A  
HETATM    4  C   UNL     1     -11.597  14.202  69.664  1.00  0.00    -0.292 A  
HETATM    5  C   UNL     1      -9.749  15.642  68.157  1.00  0.00    -0.204 A  
HETATM    6  N   UNL     1     -12.489  13.676  70.525  1.00  0.00    -0.339 NA 
HETATM    7  C   UNL     1     -10.005  16.170  69.429  1.00  0.00    -0.243 A  
HETATM    8  C   UNL     1     -10.968  15.470  70.181  1.00  0.00    -0.321 A  
HETATM    9  S   UNL     1     -12.550  14.701  71.831  1.00  0.00    -0.347 SA 
HETATM   10  N   UNL     1     -11.425  15.835  71.388  1.00  0.00    -0.409 NA 
ENDROOT
BRANCH   3  11
HETATM   11  N   UNL     1     -11.869  12.440  67.992  1.00  0.00    -0.381 NA 
HETATM   12  H   UNL     1     -12.767  12.520  67.515  1.00  0.00     0.000 HD 
BRANCH  11  13
HETATM   13  C   UNL     1     -11.397  11.177  68.173  1.00  0.00    -0.309 C  
HETATM   14  C   UNL     1     -10.257   9.357  67.410  1.00  0.00    -0.239 C  
HETATM   15  N   UNL     1     -10.694  10.705  67.097  1.00  0.00    -0.268 NA 
HETATM   16  C   UNL     1     -10.625   9.241  68.888  1.00  0.00    -0.199 C  
HETATM   17  N   UNL     1     -11.552  10.358  69.171  1.00  0.00    -0.205 NA 
ENDBRANCH  11  13
ENDBRANCH   3  11
TORSDOF 2
ENDMDL
MODEL       72
REMARK 921   NORMALIZED FREE ENERGY PREDICTED BY IDOCK:   -4.11 KCAL/MOL
REMARK 922        TOTAL FREE ENERGY PREDICTED BY IDOCK:   -4.93 KCAL/MOL
REMARK 923 INTER-LIGAND FREE ENERGY PREDICTED BY IDOCK:   -4.75 KCAL/MOL
REMARK 924 INTRA-LIGAND FREE ENERGY PREDICTED BY IDOCK:   -0.18 KCAL/MOL
REMARK 927      BINDING AFFINITY PREDICTED BY RF-SCORE:    0.00 PKD
ROOT
HETATM    1 CL   UNL     1     -11.138   6.265  68.174  1.00  0.00    -0.409 Cl 
HETATM    2  C   UNL     1     -10.727   5.832  69.809  1.00  0.00    -0.348 A  
HETATM    3  C   UNL     1     -11.343   6.447  70.935  1.00  0.00    -0.338 A  
HETATM    4  C   UNL     1     -10.641   6.195  72.159  1.00  0.00    -0.209 A  
HETATM    5  C   UNL     1      -9.622   4.934  69.893  1.00  0.00    -0.252 A  
HETATM    6  N   UNL     1     -10.954   6.733  73.353  1.00  0.00    -0.233 NA 
HETATM    7  C   UNL     1      -8.960   4.619  71.086  1.00  0.00    -0.162 A  
HETATM    8  C   UNL     1      -9.443   5.283  72.230  1.00  0.00    -0.142 A  
HETATM    9  S   UNL     1      -9.828   6.174  74.438  1.00  0.00    -0.318 SA 
HETATM   10  N   UNL     1      -8.916   5.195  73.460  1.00  0.00    -0.118 NA 
ENDROOT
BRANCH   3  11
HETATM   11  N   UNL     1     -12.474   7.279  70.961  1.00  0.00    -0.508 NA 
HETATM   12  H   UNL     1     -13.365   6.835  70.742  1.00  0.00     0.000 HD 
BRANCH  11  13
HETATM   13  C   UNL     1     -12.521   8.610  71.243  1.00  0.00    -0.252 C  
HETATM   14  C   UNL     1     -11.789  10.739  70.893  1.00  0.00    -0.297 C  
HETATM   15  N   UNL     1     -11.648   9.351  70.493  1.00  0.00    -0.259 NA 
HETATM   16  C   UNL     1     -13.014  10.683  71.802  1.00  0.00    -0.472 C  
HETATM   17  N   UNL     1     -13.221   9.255  72.128  1.00  0.00    -0.430 NA 
ENDBRANCH  11  13
ENDBRANCH   3  11
TORSDOF 2
ENDMDL
MODEL       73
REMARK 921   NORMALIZED FREE ENERGY PREDICTED BY IDOCK:   -4.10 KCAL/MOL
REMARK 922        TOTAL FREE ENERGY PREDICTED BY IDOCK:   -4.92 KCAL/MOL
REMARK 923 INTER-LIGAND FREE ENERGY PREDICTED BY IDOCK:   -4.94 KCAL/MOL
REMARK 924 INTRA-LIGAND FREE ENERGY PREDICTED BY IDOCK:    0.03 KCAL/MOL
REMARK 927      BINDING AFFINITY PREDICTED BY RF-SCORE:    0.00 PKD
ROOT
HETATM    1 CL   UNL     1     -11.401  16.249  64.574  1.00  0.00    -0.371 Cl 
HETATM    2  C   UNL     1     -10.102  16.362  65.726  1.00  0.00    -0.327 A  
HETATM    3  C   UNL     1      -9.427  15.212  66.224  1.00  0.00    -0.309 A  
HETATM    4  C   UNL     1      -8.635  15.492  67.386  1.00  0.00    -0.178 A  
HETATM    5  C   UNL     1      -9.903  17.683  66.224  1.00  0.00    -0.297 A  
HETATM    6  N   UNL     1      -7.972  14.568  68.108  1.00  0.00    -0.123 NA 
HETATM    7  C   UNL     1      -9.084  17.993  67.318  1.00  0.00    -0.255 A  
HETATM    8  C   UNL     1      -8.472  16.885  67.935  1.00  0.00    -0.203 A  
HETATM    9  S   UNL     1      -7.252  15.376  69.368  1.00  0.00    -0.210 SA 
HETATM   10  N   UNL     1      -7.711  16.935  69.038  1.00  0.00    -0.231 NA 
ENDROOT
BRANCH   3  11
HETATM   11  N   UNL     1      -9.497  13.891  65.753  1.00  0.00    -0.512 NA 
HETATM   12  H   UNL     1      -8.724  13.278  66.013  1.00  0.00     0.000 HD 
BRANCH  11  13
HETATM   13  C   UNL     1     -10.475  13.330  64.991  1.00  0.00    -0.353 C  
HETATM   14  C   UNL     1     -12.597  12.531  64.761  1.00  0.00    -0.413 C  
HETATM   15  N   UNL     1     -11.647  13.138  65.674  1.00  0.00    -0.325 NA 
HETATM   16  C   UNL     1     -11.857  12.623  63.428  1.00  0.00    -0.514 C  
HETATM   17  N   UNL     1     -10.446  12.917  63.759  1.00  0.00    -0.320 NA 
ENDBRANCH  11  13
ENDBRANCH   3  11
TORSDOF 2
ENDMDL
MODEL       74
REMARK 921   NORMALIZED FREE ENERGY PREDICTED BY IDOCK:   -4.09 KCAL/MOL
REMARK 922        TOTAL FREE ENERGY PREDICTED BY IDOCK:   -4.91 KCAL/MOL
REMARK 923 INTER-LIGAND FREE ENERGY PREDICTED BY IDOCK:   -4.67 KCAL/MOL
REMARK 924 INTRA-LIGAND FREE ENERGY PREDICTED BY IDOCK:   -0.25 KCAL/MOL
REMARK 927      BINDING AFFINITY PREDICTED BY RF-SCORE:    0.00 PKD
ROOT
HETATM    1 CL   UNL     1      -9.243   8.786  65.937  1.00  0.00    -0.273 Cl 
HETATM    2  C   UNL     1      -9.937  10.315  65.481  1.00  0.00    -0.296 A  
HETATM    3  C   UNL     1     -10.474  11.221  66.437  1.00  0.00    -0.257 A  
HETATM    4  C   UNL     1     -11.279  12.246  65.841  1.00  0.00    -0.340 A  
HETATM    5  C   UNL     1     -10.051  10.483  64.069  1.00  0.00    -0.321 A  
HETATM    6  N   UNL     1     -11.979  13.172  66.524  1.00  0.00    -0.402 NA 
HETATM    7  C   UNL     1     -10.777  11.513  63.459  1.00  0.00    -0.483 A  
HETATM    8  C   UNL     1     -11.434  12.385  64.349  1.00  0.00    -0.347 A  
HETATM    9  S   UNL     1     -12.777  14.094  65.396  1.00  0.00    -0.323 SA 
HETATM   10  N   UNL     1     -12.245  13.392  63.991  1.00  0.00    -0.597 NA 
ENDROOT
BRANCH   3  11
HETATM   11  N   UNL     1     -10.350  11.183  67.836  1.00  0.00    -0.180 NA 
HETATM   12  H   UNL     1     -11.203  11.357  68.368  1.00  0.00     0.000 HD 
BRANCH  11  13
HETATM   13  C   UNL     1      -9.228  10.942  68.566  1.00  0.00    -0.181 C  
HETATM   14  C   UNL     1      -8.089   9.702  70.101  1.00  0.00    -0.189 C  
HETATM   15  N   UNL     1      -9.337   9.843  69.376  1.00  0.00    -0.200 NA 
HETATM   16  C   UNL     1      -7.204  10.739  69.413  1.00  0.00    -0.132 C  
HETATM   17  N   UNL     1      -8.115  11.611  68.641  1.00  0.00    -0.144 NA 
ENDBRANCH  11  13
ENDBRANCH   3  11
TORSDOF 2
ENDMDL
MODEL       75
REMARK 921   NORMALIZED FREE ENERGY PREDICTED BY IDOCK:   -4.08 KCAL/MOL
REMARK 922        TOTAL FREE ENERGY PREDICTED BY IDOCK:   -4.90 KCAL/MOL
REMARK 923 INTER-LIGAND FREE ENERGY PREDICTED BY IDOCK:   -4.55 KCAL/MOL
REMARK 924 INTRA-LIGAND FREE ENERGY PREDICTED BY IDOCK:   -0.36 KCAL/MOL
REMARK 927      BINDING AFFINITY PREDICTED BY RF-SCORE:    0.00 PKD
ROOT
HETATM    1 CL   UNL     1     -12.879  12.399  64.381  1.00  0.00    -0.453 Cl 
HETATM    2  C   UNL     1     -11.634  13.549  64.774  1.00  0.00    -0.349 A  
HETATM    3  C   UNL     1     -10.529  13.217  65.607  1.00  0.00    -0.282 A  
HETATM    4  C   UNL     1      -9.813  14.370  66.069  1.00  0.00    -0.319 A  
HETATM    5  C   UNL     1     -11.920  14.869  64.315  1.00  0.00    -0.355 A  
HETATM    6  N   UNL     1      -8.788  14.343  66.942  1.00  0.00    -0.234 NA 
HETATM    7  C   UNL     1     -11.196  16.005  64.700  1.00  0.00    -0.340 A  
HETATM    8  C   UNL     1     -10.155  15.766  65.617  1.00  0.00    -0.371 A  
HETATM    9  S   UNL     1      -8.335  15.922  67.191  1.00  0.00    -0.223 SA 
HETATM   10  N   UNL     1      -9.384  16.709  66.179  1.00  0.00    -0.383 NA 
ENDROOT
BRANCH   3  11
HETATM   11  N   UNL     1     -10.123  11.946  66.047  1.00  0.00    -0.224 NA 
HETATM   12  H   UNL     1     -10.407  11.684  66.991  1.00  0.00     0.000 HD 
BRANCH  11  13
HETATM   13  C   UNL     1      -9.395  11.022  65.363  1.00  0.00    -0.216 C  
HETATM   14  C   UNL     1      -7.462   9.857  65.049  1.00  0.00    -0.134 C  
HETATM   15  N   UNL     1      -8.132  10.852  65.865  1.00  0.00    -0.149 NA 
HETATM   16  C   UNL     1      -8.603   9.345  64.174  1.00  0.00    -0.198 C  
HETATM   17  N   UNL     1      -9.697  10.331  64.304  1.00  0.00    -0.317 NA 
ENDBRANCH  11  13
ENDBRANCH   3  11
TORSDOF 2
ENDMDL
MODEL       76
REMARK 921   NORMALIZED FREE ENERGY PREDICTED BY IDOCK:   -4.07 KCAL/MOL
REMARK 922        TOTAL FREE ENERGY PREDICTED BY IDOCK:   -4.88 KCAL/MOL
REMARK 923 INTER-LIGAND FREE ENERGY PREDICTED BY IDOCK:   -4.72 KCAL/MOL
REMARK 924 INTRA-LIGAND FREE ENERGY PREDICTED BY IDOCK:   -0.17 KCAL/MOL
REMARK 927      BINDING AFFINITY PREDICTED BY RF-SCORE:    0.00 PKD
ROOT
HETATM    1 CL   UNL     1      -9.607  10.245  62.857  1.00  0.00    -0.333 Cl 
HETATM    2  C   UNL     1     -10.255  11.536  63.827  1.00  0.00    -0.382 A  
HETATM    3  C   UNL     1      -9.822  11.775  65.161  1.00  0.00    -0.235 A  
HETATM    4  C   UNL     1     -10.698  12.651  65.882  1.00  0.00    -0.266 A  
HETATM    5  C   UNL     1     -11.352  12.209  63.210  1.00  0.00    -0.410 A  
HETATM    6  N   UNL     1     -10.573  12.966  67.186  1.00  0.00    -0.237 NA 
HETATM    7  C   UNL     1     -12.184  13.120  63.874  1.00  0.00    -0.503 A  
HETATM    8  C   UNL     1     -11.884  13.318  65.235  1.00  0.00    -0.357 A  
HETATM    9  S   UNL     1     -11.845  13.967  67.557  1.00  0.00    -0.402 SA 
HETATM   10  N   UNL     1     -12.590  14.083  66.081  1.00  0.00    -0.443 NA 
ENDROOT
BRANCH   3  11
HETATM   11  N   UNL     1      -8.716  11.223  65.828  1.00  0.00    -0.323 NA 
HETATM   12  H   UNL     1      -7.902  11.829  65.927  1.00  0.00     0.000 HD 
BRANCH  11  13
HETATM   13  C   UNL     1      -8.601   9.975  66.357  1.00  0.00    -0.129 C  
HETATM   14  C   UNL     1      -9.425   7.876  66.684  1.00  0.00    -0.211 C  
HETATM   15  N   UNL     1      -9.664   9.163  66.060  1.00  0.00    -0.282 NA 
HETATM   16  C   UNL     1      -7.987   8.023  67.175  1.00  0.00    -0.113 C  
HETATM   17  N   UNL     1      -7.680   9.469  67.122  1.00  0.00    -0.092 NA 
ENDBRANCH  11  13
ENDBRANCH   3  11
TORSDOF 2
ENDMDL
MODEL       77
REMARK 921   NORMALIZED FREE ENERGY PREDICTED BY IDOCK:   -4.03 KCAL/MOL
REMARK 922        TOTAL FREE ENERGY PREDICTED BY IDOCK:   -4.84 KCAL/MOL
REMARK 923 INTER-LIGAND FREE ENERGY PREDICTED BY IDOCK:   -4.56 KCAL/MOL
REMARK 924 INTRA-LIGAND FREE ENERGY PREDICTED BY IDOCK:   -0.28 KCAL/MOL
REMARK 927      BINDING AFFINITY PREDICTED BY RF-SCORE:    0.00 PKD
ROOT
HETATM    1 CL   UNL     1     -10.723  17.696  66.039  1.00  0.00    -0.214 Cl 
HETATM    2  C   UNL     1      -9.414  16.594  66.353  1.00  0.00    -0.280 A  
HETATM    3  C   UNL     1      -9.635  15.254  66.781  1.00  0.00    -0.241 A  
HETATM    4  C   UNL     1      -8.450  14.632  67.295  1.00  0.00    -0.215 A  
HETATM    5  C   UNL     1      -8.130  17.212  66.292  1.00  0.00    -0.325 A  
HETATM    6  N   UNL     1      -8.401  13.406  67.850  1.00  0.00    -0.153 NA 
HETATM    7  C   UNL     1      -6.946  16.601  66.727  1.00  0.00    -0.264 A  
HETATM    8  C   UNL     1      -7.106  15.313  67.272  1.00  0.00    -0.152 A  
HETATM    9  S   UNL     1      -6.829  13.162  68.326  1.00  0.00    -0.120 SA 
HETATM   10  N   UNL     1      -6.128  14.575  67.817  1.00  0.00    -0.256 NA 
ENDROOT
BRANCH   3  11
HETATM   11  N   UNL     1     -10.842  14.537  66.804  1.00  0.00    -0.299 NA 
HETATM   12  H   UNL     1     -11.320  14.490  67.704  1.00  0.00     0.000 HD 
BRANCH  11  13
HETATM   13  C   UNL     1     -11.450  13.897  65.769  1.00  0.00    -0.321 C  
HETATM   14  C   UNL     1     -11.338  12.603  63.897  1.00  0.00    -0.441 C  
HETATM   15  N   UNL     1     -10.571  13.230  64.957  1.00  0.00    -0.328 NA 
HETATM   16  C   UNL     1     -12.772  12.831  64.366  1.00  0.00    -0.289 C  
HETATM   17  N   UNL     1     -12.702  13.866  65.421  1.00  0.00    -0.662 NA 
ENDBRANCH  11  13
ENDBRANCH   3  11
TORSDOF 2
ENDMDL
MODEL       78
REMARK 921   NORMALIZED FREE ENERGY PREDICTED BY IDOCK:   -4.02 KCAL/MOL
REMARK 922        TOTAL FREE ENERGY PREDICTED BY IDOCK:   -4.83 KCAL/MOL
REMARK 923 INTER-LIGAND FREE ENERGY PREDICTED BY IDOCK:   -4.78 KCAL/MOL
REMARK 924 INTRA-LIGAND FREE ENERGY PREDICTED BY IDOCK:   -0.05 KCAL/MOL
REMARK 927      BINDING AFFINITY PREDICTED BY RF-SCORE:    0.00 PKD
ROOT
HETATM    1 CL   UNL     1     -10.202  18.331  66.180  1.00  0.00    -0.402 Cl 
HETATM    2  C   UNL     1      -8.733  18.859  66.948  1.00  0.00    -0.300 A  
HETATM    3  C   UNL     1      -8.129  18.135  68.014  1.00  0.00    -0.258 A  
HETATM    4  C   UNL     1      -7.136  18.896  68.712  1.00  0.00    -0.311 A  
HETATM    5  C   UNL     1      -8.300  20.147  66.511  1.00  0.00    -0.314 A  
HETATM    6  N   UNL     1      -6.482  18.484  69.815  1.00  0.00    -0.166 NA 
HETATM    7  C   UNL     1      -7.286  20.885  67.136  1.00  0.00    -0.395 A  
HETATM    8  C   UNL     1      -6.721  20.277  68.273  1.00  0.00    -0.296 A  
HETATM    9  S   UNL     1      -5.479  19.728  70.267  1.00  0.00    -0.261 SA 
HETATM   10  N   UNL     1      -5.794  20.830  69.069  1.00  0.00    -0.360 NA 
ENDROOT
BRANCH   3  11
HETATM   11  N   UNL     1      -8.432  16.840  68.465  1.00  0.00    -0.234 NA 
HETATM   12  H   UNL     1      -7.691  16.354  68.971  1.00  0.00     0.000 HD 
BRANCH  11  13
HETATM   13  C   UNL     1      -9.597  16.154  68.308  1.00  0.00    -0.216 C  
HETATM   14  C   UNL     1     -11.776  15.792  68.868  1.00  0.00    -0.394 C  
HETATM   15  N   UNL     1     -10.601  16.604  69.124  1.00  0.00    -0.323 NA 
HETATM   16  C   UNL     1     -11.344  14.988  67.644  1.00  0.00    -0.334 C  
HETATM   17  N   UNL     1      -9.876  15.134  67.552  1.00  0.00    -0.219 NA 
ENDBRANCH  11  13
ENDBRANCH   3  11
TORSDOF 2
ENDMDL
MODEL       79
REMARK 921   NORMALIZED FREE ENERGY PREDICTED BY IDOCK:   -3.98 KCAL/MOL
REMARK 922        TOTAL FREE ENERGY PREDICTED BY IDOCK:   -4.79 KCAL/MOL
REMARK 923 INTER-LIGAND FREE ENERGY PREDICTED BY IDOCK:   -4.53 KCAL/MOL
REMARK 924 INTRA-LIGAND FREE ENERGY PREDICTED BY IDOCK:   -0.26 KCAL/MOL
REMARK 927      BINDING AFFINITY PREDICTED BY RF-SCORE:    0.00 PKD
ROOT
HETATM    1 CL   UNL     1     -10.426   6.290  73.527  1.00  0.00    -0.261 Cl 
HETATM    2  C   UNL     1     -10.180   6.207  71.806  1.00  0.00    -0.202 A  
HETATM    3  C   UNL     1     -10.295   7.351  70.966  1.00  0.00    -0.195 A  
HETATM    4  C   UNL     1     -10.384   7.013  69.576  1.00  0.00    -0.213 A  
HETATM    5  C   UNL     1     -10.014   4.875  71.324  1.00  0.00    -0.271 A  
HETATM    6  N   UNL     1     -10.593   7.894  68.580  1.00  0.00    -0.154 NA 
HETATM    7  C   UNL     1     -10.031   4.526  69.968  1.00  0.00    -0.280 A  
HETATM    8  C   UNL     1     -10.258   5.595  69.080  1.00  0.00    -0.236 A  
HETATM    9  S   UNL     1     -10.661   7.015  67.172  1.00  0.00    -0.357 SA 
HETATM   10  N   UNL     1     -10.390   5.485  67.750  1.00  0.00    -0.195 NA 
ENDROOT
BRANCH   3  11
HETATM   11  N   UNL     1     -10.385   8.701  71.343  1.00  0.00    -0.237 NA 
HETATM   12  H   UNL     1      -9.501   9.179  71.519  1.00  0.00     0.000 HD 
BRANCH  11  13
HETATM   13  C   UNL     1     -11.511   9.447  71.502  1.00  0.00    -0.397 C  
HETATM   14  C   UNL     1     -13.620   9.704  72.326  1.00  0.00    -0.367 C  
HETATM   15  N   UNL     1     -12.478   8.815  72.238  1.00  0.00    -0.387 NA 
HETATM   16  C   UNL     1     -13.063  10.994  71.729  1.00  0.00    -0.449 C  
HETATM   17  N   UNL     1     -11.814  10.620  71.031  1.00  0.00    -0.327 NA 
ENDBRANCH  11  13
ENDBRANCH   3  11
TORSDOF 2
ENDMDL
MODEL       80
REMARK 921   NORMALIZED FREE ENERGY PREDICTED BY IDOCK:   -3.96 KCAL/MOL
REMARK 922        TOTAL FREE ENERGY PREDICTED BY IDOCK:   -4.77 KCAL/MOL
REMARK 923 INTER-LIGAND FREE ENERGY PREDICTED BY IDOCK:   -4.41 KCAL/MOL
REMARK 924 INTRA-LIGAND FREE ENERGY PREDICTED BY IDOCK:   -0.35 KCAL/MOL
REMARK 927      BINDING AFFINITY PREDICTED BY RF-SCORE:    0.00 PKD
ROOT
HETATM    1 CL   UNL     1     -10.487   9.852  67.435  1.00  0.00    -0.304 Cl 
HETATM    2  C   UNL     1     -10.550   8.210  68.008  1.00  0.00    -0.126 A  
HETATM    3  C   UNL     1     -10.408   7.879  69.385  1.00  0.00    -0.220 A  
HETATM    4  C   UNL     1     -10.159   6.484  69.599  1.00  0.00    -0.181 A  
HETATM    5  C   UNL     1     -10.596   7.247  66.956  1.00  0.00    -0.415 A  
HETATM    6  N   UNL     1      -9.894   5.922  70.794  1.00  0.00    -0.179 NA 
HETATM    7  C   UNL     1     -10.422   5.871  67.146  1.00  0.00    -0.335 A  
HETATM    8  C   UNL     1     -10.160   5.482  68.474  1.00  0.00    -0.180 A  
HETATM    9  S   UNL     1      -9.636   4.306  70.513  1.00  0.00    -0.210 SA 
HETATM   10  N   UNL     1      -9.887   4.232  68.876  1.00  0.00    -0.117 NA 
ENDROOT
BRANCH   3  11
HETATM   11  N   UNL     1     -10.427   8.743  70.492  1.00  0.00    -0.201 NA 
HETATM   12  H   UNL     1      -9.519   9.067  70.826  1.00  0.00     0.000 HD 
BRANCH  11  13
HETATM   13  C   UNL     1     -11.513   9.198  71.174  1.00  0.00    -0.318 C  
HETATM   14  C   UNL     1     -13.025  10.842  71.625  1.00  0.00    -0.476 C  
HETATM   15  N   UNL     1     -11.870  10.474  70.827  1.00  0.00    -0.343 NA 
HETATM   16  C   UNL     1     -13.385   9.516  72.290  1.00  0.00    -0.441 C  
HETATM   17  N   UNL     1     -12.211   8.633  72.114  1.00  0.00    -0.367 NA 
ENDBRANCH  11  13
ENDBRANCH   3  11
TORSDOF 2
ENDMDL
MODEL       81
REMARK 921   NORMALIZED FREE ENERGY PREDICTED BY IDOCK:   -3.95 KCAL/MOL
REMARK 922        TOTAL FREE ENERGY PREDICTED BY IDOCK:   -4.75 KCAL/MOL
REMARK 923 INTER-LIGAND FREE ENERGY PREDICTED BY IDOCK:   -4.48 KCAL/MOL
REMARK 924 INTRA-LIGAND FREE ENERGY PREDICTED BY IDOCK:   -0.28 KCAL/MOL
REMARK 927      BINDING AFFINITY PREDICTED BY RF-SCORE:    0.00 PKD
ROOT
HETATM    1 CL   UNL     1     -12.375  14.811  64.379  1.00  0.00    -0.478 Cl 
HETATM    2  C   UNL     1     -11.014  15.183  65.397  1.00  0.00    -0.374 A  
HETATM    3  C   UNL     1     -10.395  14.204  66.224  1.00  0.00    -0.292 A  
HETATM    4  C   UNL     1      -9.527  14.779  67.211  1.00  0.00    -0.214 A  
HETATM    5  C   UNL     1     -10.699  16.574  65.431  1.00  0.00    -0.273 A  
HETATM    6  N   UNL     1      -8.893  14.087  68.176  1.00  0.00    -0.175 NA 
HETATM    7  C   UNL     1      -9.805  17.151  66.342  1.00  0.00    -0.312 A  
HETATM    8  C   UNL     1      -9.240  16.256  67.271  1.00  0.00    -0.208 A  
HETATM    9  S   UNL     1      -8.055  15.197  69.084  1.00  0.00    -0.215 SA 
HETATM   10  N   UNL     1      -8.421  16.597  68.277  1.00  0.00    -0.196 NA 
ENDROOT
BRANCH   3  11
HETATM   11  N   UNL     1     -10.580  12.812  66.212  1.00  0.00    -0.254 NA 
HETATM   12  H   UNL     1     -11.029  12.411  67.036  1.00  0.00     0.000 HD 
BRANCH  11  13
HETATM   13  C   UNL     1     -10.233  11.934  65.232  1.00  0.00    -0.272 C  
HETATM   14  C   UNL     1      -9.502   9.877  64.581  1.00  0.00    -0.278 C  
HETATM   15  N   UNL     1      -9.853  10.710  65.715  1.00  0.00    -0.227 NA 
HETATM   16  C   UNL     1      -9.956  10.737  63.404  1.00  0.00    -0.328 C  
HETATM   17  N   UNL     1     -10.166  12.098  63.944  1.00  0.00    -0.380 NA 
ENDBRANCH  11  13
ENDBRANCH   3  11
TORSDOF 2
ENDMDL
MODEL       82
REMARK 921   NORMALIZED FREE ENERGY PREDICTED BY IDOCK:   -3.95 KCAL/MOL
REMARK 922        TOTAL FREE ENERGY PREDICTED BY IDOCK:   -4.75 KCAL/MOL
REMARK 923 INTER-LIGAND FREE ENERGY PREDICTED BY IDOCK:   -4.52 KCAL/MOL
REMARK 924 INTRA-LIGAND FREE ENERGY PREDICTED BY IDOCK:   -0.23 KCAL/MOL
REMARK 927      BINDING AFFINITY PREDICTED BY RF-SCORE:    0.00 PKD
ROOT
HETATM    1 CL   UNL     1      -8.675   8.240  69.620  1.00  0.00    -0.137 Cl 
HETATM    2  C   UNL     1     -10.189   8.912  70.151  1.00  0.00    -0.196 A  
HETATM    3  C   UNL     1     -10.564  10.256  69.873  1.00  0.00    -0.276 A  
HETATM    4  C   UNL     1     -11.671  10.701  70.667  1.00  0.00    -0.356 A  
HETATM    5  C   UNL     1     -10.922   8.040  71.011  1.00  0.00    -0.263 A  
HETATM    6  N   UNL     1     -12.164  11.954  70.670  1.00  0.00    -0.374 NA 
HETATM    7  C   UNL     1     -12.047   8.431  71.748  1.00  0.00    -0.379 A  
HETATM    8  C   UNL     1     -12.408   9.785  71.610  1.00  0.00    -0.408 A  
HETATM    9  S   UNL     1     -13.401  11.976  71.778  1.00  0.00    -0.074 SA 
HETATM   10  N   UNL     1     -13.399  10.395  72.276  1.00  0.00    -0.302 NA 
ENDROOT
BRANCH   3  11
HETATM   11  N   UNL     1      -9.955  11.163  68.989  1.00  0.00    -0.346 NA 
HETATM   12  H   UNL     1      -9.115  11.630  69.332  1.00  0.00     0.000 HD 
BRANCH  11  13
HETATM   13  C   UNL     1     -10.353  11.492  67.731  1.00  0.00    -0.182 C  
HETATM   14  C   UNL     1      -9.876  12.245  65.633  1.00  0.00    -0.231 C  
HETATM   15  N   UNL     1      -9.323  11.918  66.934  1.00  0.00    -0.191 NA 
HETATM   16  C   UNL     1     -11.307  11.728  65.759  1.00  0.00    -0.250 C  
HETATM   17  N   UNL     1     -11.541  11.507  67.203  1.00  0.00    -0.557 NA 
ENDBRANCH  11  13
ENDBRANCH   3  11
TORSDOF 2
ENDMDL
MODEL       83
REMARK 921   NORMALIZED FREE ENERGY PREDICTED BY IDOCK:   -3.94 KCAL/MOL
REMARK 922        TOTAL FREE ENERGY PREDICTED BY IDOCK:   -4.74 KCAL/MOL
REMARK 923 INTER-LIGAND FREE ENERGY PREDICTED BY IDOCK:   -4.63 KCAL/MOL
REMARK 924 INTRA-LIGAND FREE ENERGY PREDICTED BY IDOCK:   -0.11 KCAL/MOL
REMARK 927      BINDING AFFINITY PREDICTED BY RF-SCORE:    0.00 PKD
ROOT
HETATM    1 CL   UNL     1      -7.190  16.149  68.586  1.00  0.00    -0.151 Cl 
HETATM    2  C   UNL     1      -8.257  15.382  67.445  1.00  0.00    -0.183 A  
HETATM    3  C   UNL     1      -8.929  16.111  66.424  1.00  0.00    -0.318 A  
HETATM    4  C   UNL     1      -9.993  15.367  65.817  1.00  0.00    -0.362 A  
HETATM    5  C   UNL     1      -8.502  14.008  67.738  1.00  0.00    -0.184 A  
HETATM    6  N   UNL     1     -10.845  15.853  64.894  1.00  0.00    -0.563 NA 
HETATM    7  C   UNL     1      -9.492  13.239  67.113  1.00  0.00    -0.240 A  
HETATM    8  C   UNL     1     -10.276  13.930  66.170  1.00  0.00    -0.301 A  
HETATM    9  S   UNL     1     -11.913  14.630  64.543  1.00  0.00    -0.422 SA 
HETATM   10  N   UNL     1     -11.325  13.418  65.509  1.00  0.00    -0.291 NA 
ENDROOT
BRANCH   3  11
HETATM   11  N   UNL     1      -8.706  17.436  66.012  1.00  0.00    -0.531 NA 
HETATM   12  H   UNL     1      -9.478  17.891  65.524  1.00  0.00     0.000 HD 
BRANCH  11  13
HETATM   13  C   UNL     1      -7.584  18.184  66.187  1.00  0.00    -0.243 C  
HETATM   14  C   UNL     1      -6.526  19.995  67.081  1.00  0.00    -0.198 C  
HETATM   15  N   UNL     1      -7.786  19.282  66.982  1.00  0.00    -0.243 NA 
HETATM   16  C   UNL     1      -5.558  19.018  66.418  1.00  0.00    -0.156 C  
HETATM   17  N   UNL     1      -6.393  18.041  65.687  1.00  0.00    -0.242 NA 
ENDBRANCH  11  13
ENDBRANCH   3  11
TORSDOF 2
ENDMDL
MODEL       84
REMARK 921   NORMALIZED FREE ENERGY PREDICTED BY IDOCK:   -3.93 KCAL/MOL
REMARK 922        TOTAL FREE ENERGY PREDICTED BY IDOCK:   -4.73 KCAL/MOL
REMARK 923 INTER-LIGAND FREE ENERGY PREDICTED BY IDOCK:   -4.41 KCAL/MOL
REMARK 924 INTRA-LIGAND FREE ENERGY PREDICTED BY IDOCK:   -0.33 KCAL/MOL
REMARK 927      BINDING AFFINITY PREDICTED BY RF-SCORE:    0.00 PKD
ROOT
HETATM    1 CL   UNL     1     -10.819   7.096  67.161  1.00  0.00    -0.417 Cl 
HETATM    2  C   UNL     1     -10.689   6.798  68.871  1.00  0.00    -0.240 A  
HETATM    3  C   UNL     1     -10.892   7.822  69.838  1.00  0.00    -0.226 A  
HETATM    4  C   UNL     1     -10.420   7.457  71.142  1.00  0.00    -0.209 A  
HETATM    5  C   UNL     1     -10.210   5.490  69.180  1.00  0.00    -0.309 A  
HETATM    6  N   UNL     1     -10.405   8.273  72.213  1.00  0.00    -0.289 NA 
HETATM    7  C   UNL     1      -9.804   5.087  70.459  1.00  0.00    -0.290 A  
HETATM    8  C   UNL     1      -9.870   6.088  71.447  1.00  0.00    -0.173 A  
HETATM    9  S   UNL     1      -9.730   7.409  73.460  1.00  0.00    -0.302 SA 
HETATM   10  N   UNL     1      -9.462   5.952  72.717  1.00  0.00    -0.149 NA 
ENDROOT
BRANCH   3  11
HETATM   11  N   UNL     1     -11.426   9.106  69.645  1.00  0.00    -0.428 NA 
HETATM   12  H   UNL     1     -12.368   9.261  70.005  1.00  0.00     0.000 HD 
BRANCH  11  13
HETATM   13  C   UNL     1     -10.836  10.170  69.034  1.00  0.00    -0.224 C  
HETATM   14  C   UNL     1     -10.962  12.003  67.688  1.00  0.00    -0.238 C  
HETATM   15  N   UNL     1     -11.710  10.915  68.288  1.00  0.00    -0.520 NA 
HETATM   16  C   UNL     1      -9.610  11.881  68.386  1.00  0.00    -0.196 C  
HETATM   17  N   UNL     1      -9.592  10.544  69.018  1.00  0.00    -0.196 NA 
ENDBRANCH  11  13
ENDBRANCH   3  11
TORSDOF 2
ENDMDL
MODEL       85
REMARK 921   NORMALIZED FREE ENERGY PREDICTED BY IDOCK:   -3.90 KCAL/MOL
REMARK 922        TOTAL FREE ENERGY PREDICTED BY IDOCK:   -4.70 KCAL/MOL
REMARK 923 INTER-LIGAND FREE ENERGY PREDICTED BY IDOCK:   -4.42 KCAL/MOL
REMARK 924 INTRA-LIGAND FREE ENERGY PREDICTED BY IDOCK:   -0.28 KCAL/MOL
REMARK 927      BINDING AFFINITY PREDICTED BY RF-SCORE:    0.00 PKD
ROOT
HETATM    1 CL   UNL     1     -12.247  13.900  64.263  1.00  0.00    -0.462 Cl 
HETATM    2  C   UNL     1     -10.987  14.901  64.927  1.00  0.00    -0.408 A  
HETATM    3  C   UNL     1      -9.879  14.357  65.634  1.00  0.00    -0.291 A  
HETATM    4  C   UNL     1      -9.148  15.347  66.370  1.00  0.00    -0.314 A  
HETATM    5  C   UNL     1     -11.264  16.297  64.826  1.00  0.00    -0.267 A  
HETATM    6  N   UNL     1      -8.116  15.089  67.195  1.00  0.00    -0.206 NA 
HETATM    7  C   UNL     1     -10.526  17.290  65.483  1.00  0.00    -0.135 A  
HETATM    8  C   UNL     1      -9.480  16.815  66.297  1.00  0.00    -0.286 A  
HETATM    9  S   UNL     1      -7.645  16.546  67.838  1.00  0.00    -0.156 SA 
HETATM   10  N   UNL     1      -8.695  17.575  67.074  1.00  0.00    -0.233 NA 
ENDROOT
BRANCH   3  11
HETATM   11  N   UNL     1      -9.481  13.013  65.727  1.00  0.00    -0.470 NA 
HETATM   12  H   UNL     1      -8.675  12.742  65.164  1.00  0.00     0.000 HD 
BRANCH  11  13
HETATM   13  C   UNL     1     -10.045  12.029  66.479  1.00  0.00    -0.201 C  
HETATM   14  C   UNL     1     -11.428  11.367  68.165  1.00  0.00    -0.305 C  
HETATM   15  N   UNL     1     -10.907  12.505  67.431  1.00  0.00    -0.234 NA 
HETATM   16  C   UNL     1     -10.907  10.193  67.339  1.00  0.00    -0.261 C  
HETATM   17  N   UNL     1      -9.854  10.743  66.458  1.00  0.00    -0.196 NA 
ENDBRANCH  11  13
ENDBRANCH   3  11
TORSDOF 2
ENDMDL
MODEL       86
REMARK 921   NORMALIZED FREE ENERGY PREDICTED BY IDOCK:   -3.88 KCAL/MOL
REMARK 922        TOTAL FREE ENERGY PREDICTED BY IDOCK:   -4.67 KCAL/MOL
REMARK 923 INTER-LIGAND FREE ENERGY PREDICTED BY IDOCK:   -4.59 KCAL/MOL
REMARK 924 INTRA-LIGAND FREE ENERGY PREDICTED BY IDOCK:   -0.08 KCAL/MOL
REMARK 927      BINDING AFFINITY PREDICTED BY RF-SCORE:    0.00 PKD
ROOT
HETATM    1 CL   UNL     1     -10.494   6.704  69.390  1.00  0.00    -0.232 Cl 
HETATM    2  C   UNL     1     -10.518   8.339  68.796  1.00  0.00    -0.177 A  
HETATM    3  C   UNL     1     -10.888   9.441  69.617  1.00  0.00    -0.228 A  
HETATM    4  C   UNL     1     -11.160  10.630  68.863  1.00  0.00    -0.261 A  
HETATM    5  C   UNL     1     -10.286   8.432  67.391  1.00  0.00    -0.355 A  
HETATM    6  N   UNL     1     -11.619  11.784  69.383  1.00  0.00    -0.297 NA 
HETATM    7  C   UNL     1     -10.481   9.599  66.641  1.00  0.00    -0.233 A  
HETATM    8  C   UNL     1     -10.961  10.703  67.372  1.00  0.00    -0.298 A  
HETATM    9  S   UNL     1     -11.814  12.834  68.111  1.00  0.00    -0.270 SA 
HETATM   10  N   UNL     1     -11.289  11.894  66.850  1.00  0.00    -0.344 NA 
ENDROOT
BRANCH   3  11
HETATM   11  N   UNL     1     -11.064   9.466  71.010  1.00  0.00    -0.313 NA 
HETATM   12  H   UNL     1     -11.680  10.194  71.373  1.00  0.00     0.000 HD 
BRANCH  11  13
HETATM   13  C   UNL     1     -10.508   8.636  71.934  1.00  0.00    -0.340 C  
HETATM   14  C   UNL     1      -8.677   7.786  72.990  1.00  0.00    -0.185 C  
HETATM   15  N   UNL     1      -9.142   8.718  71.981  1.00  0.00    -0.360 NA 
HETATM   16  C   UNL     1      -9.985   7.348  73.643  1.00  0.00    -0.328 C  
HETATM   17  N   UNL     1     -11.066   7.767  72.724  1.00  0.00    -0.373 NA 
ENDBRANCH  11  13
ENDBRANCH   3  11
TORSDOF 2
ENDMDL
MODEL       87
REMARK 921   NORMALIZED FREE ENERGY PREDICTED BY IDOCK:   -3.88 KCAL/MOL
REMARK 922        TOTAL FREE ENERGY PREDICTED BY IDOCK:   -4.67 KCAL/MOL
REMARK 923 INTER-LIGAND FREE ENERGY PREDICTED BY IDOCK:   -4.39 KCAL/MOL
REMARK 924 INTRA-LIGAND FREE ENERGY PREDICTED BY IDOCK:   -0.28 KCAL/MOL
REMARK 927      BINDING AFFINITY PREDICTED BY RF-SCORE:    0.00 PKD
ROOT
HETATM    1 CL   UNL     1     -10.021  10.398  69.577  1.00  0.00    -0.247 Cl 
HETATM    2  C   UNL     1     -10.691  11.036  68.103  1.00  0.00    -0.205 A  
HETATM    3  C   UNL     1     -10.329  10.530  66.823  1.00  0.00    -0.245 A  
HETATM    4  C   UNL     1     -10.728  11.394  65.750  1.00  0.00    -0.251 A  
HETATM    5  C   UNL     1     -11.498  12.195  68.305  1.00  0.00    -0.360 A  
HETATM    6  N   UNL     1     -10.428  11.201  64.452  1.00  0.00    -0.338 NA 
HETATM    7  C   UNL     1     -11.956  13.020  67.270  1.00  0.00    -0.379 A  
HETATM    8  C   UNL     1     -11.537  12.644  65.980  1.00  0.00    -0.393 A  
HETATM    9  S   UNL     1     -11.070  12.487  63.619  1.00  0.00    -0.445 SA 
HETATM   10  N   UNL     1     -11.791  13.326  64.853  1.00  0.00    -0.345 NA 
ENDROOT
BRANCH   3  11
HETATM   11  N   UNL     1      -9.608   9.364  66.521  1.00  0.00    -0.190 NA 
HETATM   12  H   UNL     1      -8.784   9.484  65.932  1.00  0.00     0.000 HD 
BRANCH  11  13
HETATM   13  C   UNL     1      -9.878   8.091  66.921  1.00  0.00    -0.248 C  
HETATM   14  C   UNL     1      -9.172   6.025  67.572  1.00  0.00    -0.111 C  
HETATM   15  N   UNL     1      -8.751   7.353  67.166  1.00  0.00    -0.120 NA 
HETATM   16  C   UNL     1     -10.679   6.206  67.732  1.00  0.00    -0.303 C  
HETATM   17  N   UNL     1     -11.016   7.477  67.055  1.00  0.00    -0.211 NA 
ENDBRANCH  11  13
ENDBRANCH   3  11
TORSDOF 2
ENDMDL
MODEL       88
REMARK 921   NORMALIZED FREE ENERGY PREDICTED BY IDOCK:   -3.87 KCAL/MOL
REMARK 922        TOTAL FREE ENERGY PREDICTED BY IDOCK:   -4.67 KCAL/MOL
REMARK 923 INTER-LIGAND FREE ENERGY PREDICTED BY IDOCK:   -4.37 KCAL/MOL
REMARK 924 INTRA-LIGAND FREE ENERGY PREDICTED BY IDOCK:   -0.30 KCAL/MOL
REMARK 927      BINDING AFFINITY PREDICTED BY RF-SCORE:    0.00 PKD
ROOT
HETATM    1 CL   UNL     1     -11.284   7.722  73.006  1.00  0.00    -0.448 Cl 
HETATM    2  C   UNL     1     -11.453   8.877  71.716  1.00  0.00    -0.353 A  
HETATM    3  C   UNL     1     -10.497   8.991  70.668  1.00  0.00    -0.230 A  
HETATM    4  C   UNL     1     -10.644  10.198  69.909  1.00  0.00    -0.285 A  
HETATM    5  C   UNL     1     -12.541   9.780  71.906  1.00  0.00    -0.479 A  
HETATM    6  N   UNL     1      -9.815  10.597  68.926  1.00  0.00    -0.194 NA 
HETATM    7  C   UNL     1     -12.745  10.933  71.137  1.00  0.00    -0.530 A  
HETATM    8  C   UNL     1     -11.768  11.172  70.152  1.00  0.00    -0.353 A  
HETATM    9  S   UNL     1     -10.379  12.066  68.394  1.00  0.00    -0.214 SA 
HETATM   10  N   UNL     1     -11.719  12.248  69.353  1.00  0.00    -0.316 NA 
ENDROOT
BRANCH   3  11
HETATM   11  N   UNL     1      -9.443   8.117  70.354  1.00  0.00    -0.162 NA 
HETATM   12  H   UNL     1      -8.501   8.469  70.523  1.00  0.00     0.000 HD 
BRANCH  11  13
HETATM   13  C   UNL     1      -9.530   6.856  69.851  1.00  0.00    -0.156 C  
HETATM   14  C   UNL     1      -8.857   5.262  68.367  1.00  0.00    -0.101 C  
HETATM   15  N   UNL     1      -8.661   6.627  68.817  1.00  0.00    -0.122 NA 
HETATM   16  C   UNL     1      -9.791   4.707  69.440  1.00  0.00    -0.202 C  
HETATM   17  N   UNL     1     -10.326   5.878  70.167  1.00  0.00    -0.220 NA 
ENDBRANCH  11  13
ENDBRANCH   3  11
TORSDOF 2
ENDMDL
MODEL       89
REMARK 921   NORMALIZED FREE ENERGY PREDICTED BY IDOCK:   -3.86 KCAL/MOL
REMARK 922        TOTAL FREE ENERGY PREDICTED BY IDOCK:   -4.66 KCAL/MOL
REMARK 923 INTER-LIGAND FREE ENERGY PREDICTED BY IDOCK:   -4.29 KCAL/MOL
REMARK 924 INTRA-LIGAND FREE ENERGY PREDICTED BY IDOCK:   -0.36 KCAL/MOL
REMARK 927      BINDING AFFINITY PREDICTED BY RF-SCORE:    0.00 PKD
ROOT
HETATM    1 CL   UNL     1      -9.969   5.886  70.066  1.00  0.00    -0.222 Cl 
HETATM    2  C   UNL     1     -11.109   7.159  70.392  1.00  0.00    -0.280 A  
HETATM    3  C   UNL     1     -10.832   8.522  70.093  1.00  0.00    -0.233 A  
HETATM    4  C   UNL     1     -11.742   9.428  70.730  1.00  0.00    -0.282 A  
HETATM    5  C   UNL     1     -12.255   6.718  71.119  1.00  0.00    -0.413 A  
HETATM    6  N   UNL     1     -11.648  10.771  70.691  1.00  0.00    -0.327 NA 
HETATM    7  C   UNL     1     -13.195   7.580  71.697  1.00  0.00    -0.404 A  
HETATM    8  C   UNL     1     -12.921   8.952  71.539  1.00  0.00    -0.332 A  
HETATM    9  S   UNL     1     -12.897  11.362  71.612  1.00  0.00    -0.319 SA 
HETATM   10  N   UNL     1     -13.638   9.952  72.070  1.00  0.00    -0.359 NA 
ENDROOT
BRANCH   3  11
HETATM   11  N   UNL     1      -9.779   9.047  69.325  1.00  0.00    -0.165 NA 
HETATM   12  H   UNL     1      -9.020   9.488  69.844  1.00  0.00     0.000 HD 
BRANCH  11  13
HETATM   13  C   UNL     1      -9.652   9.037  67.970  1.00  0.00    -0.148 C  
HETATM   14  C   UNL     1     -10.045   9.983  65.934  1.00  0.00    -0.249 C  
HETATM   15  N   UNL     1     -10.242  10.115  67.366  1.00  0.00    -0.205 NA 
HETATM   16  C   UNL     1      -9.076   8.805  65.856  1.00  0.00    -0.218 C  
HETATM   17  N   UNL     1      -9.109   8.155  67.184  1.00  0.00    -0.136 NA 
ENDBRANCH  11  13
ENDBRANCH   3  11
TORSDOF 2
ENDMDL
MODEL       90
REMARK 921   NORMALIZED FREE ENERGY PREDICTED BY IDOCK:   -3.85 KCAL/MOL
REMARK 922        TOTAL FREE ENERGY PREDICTED BY IDOCK:   -4.64 KCAL/MOL
REMARK 923 INTER-LIGAND FREE ENERGY PREDICTED BY IDOCK:   -4.31 KCAL/MOL
REMARK 924 INTRA-LIGAND FREE ENERGY PREDICTED BY IDOCK:   -0.33 KCAL/MOL
REMARK 927      BINDING AFFINITY PREDICTED BY RF-SCORE:    0.00 PKD
ROOT
HETATM    1 CL   UNL     1      -9.853  10.893  64.792  1.00  0.00    -0.314 Cl 
HETATM    2  C   UNL     1     -10.253  10.081  66.278  1.00  0.00    -0.215 A  
HETATM    3  C   UNL     1     -10.876  10.753  67.367  1.00  0.00    -0.290 A  
HETATM    4  C   UNL     1     -10.816  10.005  68.589  1.00  0.00    -0.229 A  
HETATM    5  C   UNL     1      -9.757   8.745  66.342  1.00  0.00    -0.335 A  
HETATM    6  N   UNL     1     -11.244  10.449  69.787  1.00  0.00    -0.272 NA 
HETATM    7  C   UNL     1      -9.747   7.968  67.508  1.00  0.00    -0.206 A  
HETATM    8  C   UNL     1     -10.244   8.613  68.657  1.00  0.00    -0.194 A  
HETATM    9  S   UNL     1     -10.918   9.246  70.884  1.00  0.00    -0.330 SA 
HETATM   10  N   UNL     1     -10.259   8.093  69.892  1.00  0.00    -0.200 NA 
ENDROOT
BRANCH   3  11
HETATM   11  N   UNL     1     -11.460  12.030  67.381  1.00  0.00    -0.365 NA 
HETATM   12  H   UNL     1     -12.478  12.060  67.326  1.00  0.00     0.000 HD 
BRANCH  11  13
HETATM   13  C   UNL     1     -10.829  13.233  67.461  1.00  0.00    -0.263 C  
HETATM   14  C   UNL     1     -10.902  15.501  67.664  1.00  0.00    -0.306 C  
HETATM   15  N   UNL     1     -11.693  14.286  67.601  1.00  0.00    -0.369 NA 
HETATM   16  C   UNL     1      -9.482  14.950  67.765  1.00  0.00    -0.203 C  
HETATM   17  N   UNL     1      -9.565  13.525  67.378  1.00  0.00    -0.220 NA 
ENDBRANCH  11  13
ENDBRANCH   3  11
TORSDOF 2
ENDMDL
MODEL       91
REMARK 921   NORMALIZED FREE ENERGY PREDICTED BY IDOCK:   -3.78 KCAL/MOL
REMARK 922        TOTAL FREE ENERGY PREDICTED BY IDOCK:   -4.57 KCAL/MOL
REMARK 923 INTER-LIGAND FREE ENERGY PREDICTED BY IDOCK:   -4.24 KCAL/MOL
REMARK 924 INTRA-LIGAND FREE ENERGY PREDICTED BY IDOCK:   -0.33 KCAL/MOL
REMARK 927      BINDING AFFINITY PREDICTED BY RF-SCORE:    0.00 PKD
ROOT
HETATM    1 CL   UNL     1     -10.105  10.381  65.302  1.00  0.00    -0.373 Cl 
HETATM    2  C   UNL     1     -10.267  11.531  66.598  1.00  0.00    -0.219 A  
HETATM    3  C   UNL     1     -10.884  11.198  67.836  1.00  0.00    -0.235 A  
HETATM    4  C   UNL     1     -11.210  12.351  68.624  1.00  0.00    -0.271 A  
HETATM    5  C   UNL     1      -9.869  12.851  66.233  1.00  0.00    -0.273 A  
HETATM    6  N   UNL     1     -11.882  12.323  69.790  1.00  0.00    -0.329 NA 
HETATM    7  C   UNL     1     -10.117  13.987  67.015  1.00  0.00    -0.255 A  
HETATM    8  C   UNL     1     -10.830  13.747  68.205  1.00  0.00    -0.246 A  
HETATM    9  S   UNL     1     -12.046  13.901  70.282  1.00  0.00    -0.358 SA 
HETATM   10  N   UNL     1     -11.242  14.690  69.065  1.00  0.00    -0.255 NA 
ENDROOT
BRANCH   3  11
HETATM   11  N   UNL     1     -11.241   9.926  68.315  1.00  0.00    -0.514 NA 
HETATM   12  H   UNL     1     -12.220   9.663  68.207  1.00  0.00     0.000 HD 
BRANCH  11  13
HETATM   13  C   UNL     1     -10.435   9.004  68.908  1.00  0.00    -0.210 C  
HETATM   14  C   UNL     1     -10.073   7.424  70.509  1.00  0.00    -0.191 C  
HETATM   15  N   UNL     1     -11.031   8.366  69.963  1.00  0.00    -0.228 NA 
HETATM   16  C   UNL     1      -8.954   7.473  69.471  1.00  0.00    -0.143 C  
HETATM   17  N   UNL     1      -9.201   8.682  68.656  1.00  0.00    -0.139 NA 
ENDBRANCH  11  13
ENDBRANCH   3  11
TORSDOF 2
ENDMDL
MODEL       92
REMARK 921   NORMALIZED FREE ENERGY PREDICTED BY IDOCK:   -3.77 KCAL/MOL
REMARK 922        TOTAL FREE ENERGY PREDICTED BY IDOCK:   -4.55 KCAL/MOL
REMARK 923 INTER-LIGAND FREE ENERGY PREDICTED BY IDOCK:   -4.29 KCAL/MOL
REMARK 924 INTRA-LIGAND FREE ENERGY PREDICTED BY IDOCK:   -0.26 KCAL/MOL
REMARK 927      BINDING AFFINITY PREDICTED BY RF-SCORE:    0.00 PKD
ROOT
HETATM    1 CL   UNL     1      -8.424  11.961  68.432  1.00  0.00    -0.166 Cl 
HETATM    2  C   UNL     1      -9.234  10.487  67.984  1.00  0.00    -0.142 A  
HETATM    3  C   UNL     1      -9.861   9.643  68.943  1.00  0.00    -0.174 A  
HETATM    4  C   UNL     1     -10.171   8.344  68.423  1.00  0.00    -0.206 A  
HETATM    5  C   UNL     1      -9.065  10.145  66.609  1.00  0.00    -0.164 A  
HETATM    6  N   UNL     1     -10.680   7.326  69.143  1.00  0.00    -0.211 NA 
HETATM    7  C   UNL     1      -9.419   8.906  66.061  1.00  0.00    -0.320 A  
HETATM    8  C   UNL     1      -9.941   7.976  66.980  1.00  0.00    -0.254 A  
HETATM    9  S   UNL     1     -10.815   6.032  68.110  1.00  0.00    -0.233 SA 
HETATM   10  N   UNL     1     -10.275   6.709  66.696  1.00  0.00    -0.170 NA 
ENDROOT
BRANCH   3  11
HETATM   11  N   UNL     1     -10.141   9.918  70.292  1.00  0.00    -0.337 NA 
HETATM   12  H   UNL     1      -9.371   9.785  70.947  1.00  0.00     0.000 HD 
BRANCH  11  13
HETATM   13  C   UNL     1     -11.318  10.341  70.829  1.00  0.00    -0.337 C  
HETATM   14  C   UNL     1     -13.183   9.947  72.076  1.00  0.00    -0.456 C  
HETATM   15  N   UNL     1     -11.948   9.378  71.572  1.00  0.00    -0.356 NA 
HETATM   16  C   UNL     1     -13.033  11.418  71.694  1.00  0.00    -0.418 C  
HETATM   17  N   UNL     1     -11.937  11.477  70.704  1.00  0.00    -0.347 NA 
ENDBRANCH  11  13
ENDBRANCH   3  11
TORSDOF 2
ENDMDL
MODEL       93
REMARK 921   NORMALIZED FREE ENERGY PREDICTED BY IDOCK:   -3.77 KCAL/MOL
REMARK 922        TOTAL FREE ENERGY PREDICTED BY IDOCK:   -4.55 KCAL/MOL
REMARK 923 INTER-LIGAND FREE ENERGY PREDICTED BY IDOCK:   -4.23 KCAL/MOL
REMARK 924 INTRA-LIGAND FREE ENERGY PREDICTED BY IDOCK:   -0.32 KCAL/MOL
REMARK 927      BINDING AFFINITY PREDICTED BY RF-SCORE:    0.00 PKD
ROOT
HETATM    1 CL   UNL     1     -12.677  11.248  71.357  1.00  0.00    -0.511 Cl 
HETATM    2  C   UNL     1     -11.650  10.876  70.002  1.00  0.00    -0.341 A  
HETATM    3  C   UNL     1     -11.543  11.734  68.872  1.00  0.00    -0.309 A  
HETATM    4  C   UNL     1     -10.920  11.098  67.748  1.00  0.00    -0.262 A  
HETATM    5  C   UNL     1     -11.068   9.576  70.076  1.00  0.00    -0.268 A  
HETATM    6  N   UNL     1     -10.781  11.652  66.528  1.00  0.00    -0.260 NA 
HETATM    7  C   UNL     1     -10.396   8.957  69.014  1.00  0.00    -0.226 A  
HETATM    8  C   UNL     1     -10.353   9.704  67.821  1.00  0.00    -0.236 A  
HETATM    9  S   UNL     1     -10.045  10.512  65.570  1.00  0.00    -0.270 SA 
HETATM   10  N   UNL     1      -9.832   9.282  66.660  1.00  0.00    -0.224 NA 
ENDROOT
BRANCH   3  11
HETATM   11  N   UNL     1     -12.013  13.050  68.732  1.00  0.00    -0.306 NA 
HETATM   12  H   UNL     1     -12.904  13.161  68.248  1.00  0.00     0.000 HD 
BRANCH  11  13
HETATM   13  C   UNL     1     -11.421  14.196  69.166  1.00  0.00    -0.296 C  
HETATM   14  C   UNL     1     -10.952  16.410  68.900  1.00  0.00    -0.332 C  
HETATM   15  N   UNL     1     -11.637  15.262  68.335  1.00  0.00    -0.344 NA 
HETATM   16  C   UNL     1     -10.520  15.879  70.265  1.00  0.00    -0.176 C  
HETATM   17  N   UNL     1     -10.662  14.409  70.200  1.00  0.00     0.128 NA 
ENDBRANCH  11  13
ENDBRANCH   3  11
TORSDOF 2
ENDMDL
MODEL       94
REMARK 921   NORMALIZED FREE ENERGY PREDICTED BY IDOCK:   -3.76 KCAL/MOL
REMARK 922        TOTAL FREE ENERGY PREDICTED BY IDOCK:   -4.54 KCAL/MOL
REMARK 923 INTER-LIGAND FREE ENERGY PREDICTED BY IDOCK:   -4.98 KCAL/MOL
REMARK 924 INTRA-LIGAND FREE ENERGY PREDICTED BY IDOCK:    0.44 KCAL/MOL
REMARK 927      BINDING AFFINITY PREDICTED BY RF-SCORE:    0.00 PKD
ROOT
HETATM    1 CL   UNL     1     -12.977  12.489  71.364  1.00  0.00    -0.413 Cl 
HETATM    2  C   UNL     1     -11.932  11.566  70.323  1.00  0.00    -0.368 A  
HETATM    3  C   UNL     1     -11.669  11.948  68.978  1.00  0.00    -0.331 A  
HETATM    4  C   UNL     1     -11.067  10.899  68.209  1.00  0.00    -0.266 A  
HETATM    5  C   UNL     1     -11.509  10.332  70.900  1.00  0.00    -0.425 A  
HETATM    6  N   UNL     1     -10.801  10.964  66.890  1.00  0.00    -0.266 NA 
HETATM    7  C   UNL     1     -10.860   9.316  70.187  1.00  0.00    -0.275 A  
HETATM    8  C   UNL     1     -10.669   9.579  68.817  1.00  0.00    -0.190 A  
HETATM    9  S   UNL     1     -10.155   9.495  66.462  1.00  0.00    -0.241 SA 
HETATM   10  N   UNL     1     -10.142   8.723  67.929  1.00  0.00    -0.195 NA 
ENDROOT
BRANCH   3  11
HETATM   11  N   UNL     1     -11.975  13.164  68.344  1.00  0.00    -0.333 NA 
HETATM   12  H   UNL     1     -12.796  13.658  68.692  1.00  0.00     0.000 HD 
BRANCH  11  13
HETATM   13  C   UNL     1     -11.306  13.760  67.320  1.00  0.00    -0.321 C  
HETATM   14  C   UNL     1     -11.241  14.538  65.179  1.00  0.00    -0.367 C  
HETATM   15  N   UNL     1     -12.066  13.903  66.190  1.00  0.00    -0.422 NA 
HETATM   16  C   UNL     1     -10.001  14.924  65.981  1.00  0.00    -0.313 C  
HETATM   17  N   UNL     1     -10.071  14.159  67.244  1.00  0.00    -0.253 NA 
ENDBRANCH  11  13
ENDBRANCH   3  11
TORSDOF 2
ENDMDL
MODEL       95
REMARK 921   NORMALIZED FREE ENERGY PREDICTED BY IDOCK:   -3.76 KCAL/MOL
REMARK 922        TOTAL FREE ENERGY PREDICTED BY IDOCK:   -4.54 KCAL/MOL
REMARK 923 INTER-LIGAND FREE ENERGY PREDICTED BY IDOCK:   -4.21 KCAL/MOL
REMARK 924 INTRA-LIGAND FREE ENERGY PREDICTED BY IDOCK:   -0.33 KCAL/MOL
REMARK 927      BINDING AFFINITY PREDICTED BY RF-SCORE:    0.00 PKD
ROOT
HETATM    1 CL   UNL     1     -12.381  14.287  66.217  1.00  0.00    -0.450 Cl 
HETATM    2  C   UNL     1     -11.519  12.899  65.618  1.00  0.00    -0.332 A  
HETATM    3  C   UNL     1     -10.363  12.384  66.268  1.00  0.00    -0.244 A  
HETATM    4  C   UNL     1      -9.626  11.467  65.449  1.00  0.00    -0.228 A  
HETATM    5  C   UNL     1     -11.991  12.447  64.350  1.00  0.00    -0.482 A  
HETATM    6  N   UNL     1      -8.447  10.908  65.785  1.00  0.00    -0.172 NA 
HETATM    7  C   UNL     1     -11.324  11.503  63.558  1.00  0.00    -0.375 A  
HETATM    8  C   UNL     1     -10.108  11.033  64.089  1.00  0.00    -0.344 A  
HETATM    9  S   UNL     1      -7.983   9.967  64.498  1.00  0.00    -0.151 SA 
HETATM   10  N   UNL     1      -9.268  10.188  63.473  1.00  0.00    -0.270 NA 
ENDROOT
BRANCH   3  11
HETATM   11  N   UNL     1      -9.864  12.708  67.541  1.00  0.00    -0.200 NA 
HETATM   12  H   UNL     1      -9.912  11.971  68.244  1.00  0.00     0.000 HD 
BRANCH  11  13
HETATM   13  C   UNL     1      -9.325  13.889  67.947  1.00  0.00    -0.208 C  
HETATM   14  C   UNL     1      -7.835  15.590  67.665  1.00  0.00    -0.155 C  
HETATM   15  N   UNL     1      -8.329  14.339  67.121  1.00  0.00    -0.200 NA 
HETATM   16  C   UNL     1      -8.846  15.875  68.772  1.00  0.00    -0.213 C  
HETATM   17  N   UNL     1      -9.576  14.609  69.000  1.00  0.00    -0.185 NA 
ENDBRANCH  11  13
ENDBRANCH   3  11
TORSDOF 2
ENDMDL
MODEL       96
REMARK 921   NORMALIZED FREE ENERGY PREDICTED BY IDOCK:   -3.75 KCAL/MOL
REMARK 922        TOTAL FREE ENERGY PREDICTED BY IDOCK:   -4.54 KCAL/MOL
REMARK 923 INTER-LIGAND FREE ENERGY PREDICTED BY IDOCK:   -4.22 KCAL/MOL
REMARK 924 INTRA-LIGAND FREE ENERGY PREDICTED BY IDOCK:   -0.32 KCAL/MOL
REMARK 927      BINDING AFFINITY PREDICTED BY RF-SCORE:    0.00 PKD
ROOT
HETATM    1 CL   UNL     1     -11.953  15.749  68.883  1.00  0.00    -0.355 Cl 
HETATM    2  C   UNL     1     -10.450  16.569  68.572  1.00  0.00    -0.302 A  
HETATM    3  C   UNL     1      -9.187  15.963  68.825  1.00  0.00    -0.218 A  
HETATM    4  C   UNL     1      -8.106  16.905  68.818  1.00  0.00    -0.251 A  
HETATM    5  C   UNL     1     -10.620  17.935  68.198  1.00  0.00    -0.351 A  
HETATM    6  N   UNL     1      -6.827  16.613  69.121  1.00  0.00    -0.215 NA 
HETATM    7  C   UNL     1      -9.572  18.862  68.120  1.00  0.00    -0.386 A  
HETATM    8  C   UNL     1      -8.304  18.358  68.471  1.00  0.00    -0.323 A  
HETATM    9  S   UNL     1      -5.977  18.036  69.014  1.00  0.00    -0.226 SA 
HETATM   10  N   UNL     1      -7.176  19.079  68.542  1.00  0.00    -0.287 NA 
ENDROOT
BRANCH   3  11
HETATM   11  N   UNL     1      -8.912  14.618  69.122  1.00  0.00    -0.370 NA 
HETATM   12  H   UNL     1      -8.563  14.427  70.061  1.00  0.00     0.000 HD 
BRANCH  11  13
HETATM   13  C   UNL     1      -9.057  13.539  68.306  1.00  0.00    -0.189 C  
HETATM   14  C   UNL     1     -10.194  11.668  67.675  1.00  0.00    -0.188 C  
HETATM   15  N   UNL     1     -10.160  12.783  68.603  1.00  0.00    -0.175 NA 
HETATM   16  C   UNL     1      -9.088  12.041  66.691  1.00  0.00    -0.205 C  
HETATM   17  N   UNL     1      -8.297  13.107  67.344  1.00  0.00    -0.180 NA 
ENDBRANCH  11  13
ENDBRANCH   3  11
TORSDOF 2
ENDMDL
MODEL       97
REMARK 921   NORMALIZED FREE ENERGY PREDICTED BY IDOCK:   -3.73 KCAL/MOL
REMARK 922        TOTAL FREE ENERGY PREDICTED BY IDOCK:   -4.51 KCAL/MOL
REMARK 923 INTER-LIGAND FREE ENERGY PREDICTED BY IDOCK:   -4.22 KCAL/MOL
REMARK 924 INTRA-LIGAND FREE ENERGY PREDICTED BY IDOCK:   -0.29 KCAL/MOL
REMARK 927      BINDING AFFINITY PREDICTED BY RF-SCORE:    0.00 PKD
ROOT
HETATM    1 CL   UNL     1      -9.389  10.277  67.034  1.00  0.00    -0.172 Cl 
HETATM    2  C   UNL     1     -10.242  10.361  68.549  1.00  0.00    -0.173 A  
HETATM    3  C   UNL     1     -10.441   9.219  69.373  1.00  0.00    -0.219 A  
HETATM    4  C   UNL     1     -11.432   9.430  70.387  1.00  0.00    -0.223 A  
HETATM    5  C   UNL     1     -10.842  11.633  68.787  1.00  0.00    -0.262 A  
HETATM    6  N   UNL     1     -11.879   8.487  71.238  1.00  0.00    -0.286 NA 
HETATM    7  C   UNL     1     -11.764  11.884  69.811  1.00  0.00    -0.403 A  
HETATM    8  C   UNL     1     -12.098  10.765  70.599  1.00  0.00    -0.370 A  
HETATM    9  S   UNL     1     -13.044   9.207  72.178  1.00  0.00    -0.463 SA 
HETATM   10  N   UNL     1     -13.011  10.753  71.581  1.00  0.00    -0.464 NA 
ENDROOT
BRANCH   3  11
HETATM   11  N   UNL     1      -9.840   7.954  69.266  1.00  0.00    -0.174 NA 
HETATM   12  H   UNL     1      -9.194   7.697  70.012  1.00  0.00     0.000 HD 
BRANCH  11  13
HETATM   13  C   UNL     1     -10.018   7.029  68.284  1.00  0.00    -0.153 C  
HETATM   14  C   UNL     1      -9.456   5.055  67.293  1.00  0.00    -0.136 C  
HETATM   15  N   UNL     1      -9.174   5.956  68.395  1.00  0.00    -0.117 NA 
HETATM   16  C   UNL     1     -10.718   5.672  66.695  1.00  0.00    -0.268 C  
HETATM   17  N   UNL     1     -10.817   7.036  67.258  1.00  0.00    -0.332 NA 
ENDBRANCH  11  13
ENDBRANCH   3  11
TORSDOF 2
ENDMDL
MODEL       98
REMARK 921   NORMALIZED FREE ENERGY PREDICTED BY IDOCK:   -3.71 KCAL/MOL
REMARK 922        TOTAL FREE ENERGY PREDICTED BY IDOCK:   -4.49 KCAL/MOL
REMARK 923 INTER-LIGAND FREE ENERGY PREDICTED BY IDOCK:   -4.34 KCAL/MOL
REMARK 924 INTRA-LIGAND FREE ENERGY PREDICTED BY IDOCK:   -0.15 KCAL/MOL
REMARK 927      BINDING AFFINITY PREDICTED BY RF-SCORE:    0.00 PKD
ROOT
HETATM    1 CL   UNL     1      -8.536  10.460  63.978  1.00  0.00    -0.175 Cl 
HETATM    2  C   UNL     1      -9.434  10.146  65.436  1.00  0.00    -0.239 A  
HETATM    3  C   UNL     1      -9.886  11.191  66.289  1.00  0.00    -0.214 A  
HETATM    4  C   UNL     1     -10.303  10.717  67.576  1.00  0.00    -0.206 A  
HETATM    5  C   UNL     1      -9.523   8.759  65.755  1.00  0.00    -0.239 A  
HETATM    6  N   UNL     1     -10.685  11.503  68.601  1.00  0.00    -0.199 NA 
HETATM    7  C   UNL     1      -9.989   8.266  66.981  1.00  0.00    -0.325 A  
HETATM    8  C   UNL     1     -10.347   9.251  67.921  1.00  0.00    -0.227 A  
HETATM    9  S   UNL     1     -11.025  10.492  69.875  1.00  0.00    -0.287 SA 
HETATM   10  N   UNL     1     -10.744   9.014  69.180  1.00  0.00    -0.198 NA 
ENDROOT
BRANCH   3  11
HETATM   11  N   UNL     1      -9.911  12.572  66.035  1.00  0.00    -0.257 NA 
HETATM   12  H   UNL     1      -9.162  13.121  66.457  1.00  0.00     0.000 HD 
BRANCH  11  13
HETATM   13  C   UNL     1     -10.815  13.266  65.291  1.00  0.00    -0.301 C  
HETATM   14  C   UNL     1     -12.127  13.460  63.438  1.00  0.00    -0.372 C  
HETATM   15  N   UNL     1     -11.174  12.619  64.138  1.00  0.00    -0.358 NA 
HETATM   16  C   UNL     1     -12.409  14.547  64.472  1.00  0.00    -0.414 C  
HETATM   17  N   UNL     1     -11.338  14.440  65.486  1.00  0.00    -0.326 NA 
ENDBRANCH  11  13
ENDBRANCH   3  11
TORSDOF 2
ENDMDL
MODEL       99
REMARK 921   NORMALIZED FREE ENERGY PREDICTED BY IDOCK:   -3.70 KCAL/MOL
REMARK 922        TOTAL FREE ENERGY PREDICTED BY IDOCK:   -4.47 KCAL/MOL
REMARK 923 INTER-LIGAND FREE ENERGY PREDICTED BY IDOCK:   -4.15 KCAL/MOL
REMARK 924 INTRA-LIGAND FREE ENERGY PREDICTED BY IDOCK:   -0.32 KCAL/MOL
REMARK 927      BINDING AFFINITY PREDICTED BY RF-SCORE:    0.00 PKD
ROOT
HETATM    1 CL   UNL     1     -10.848   6.686  70.837  1.00  0.00    -0.282 Cl 
HETATM    2  C   UNL     1     -11.712   8.194  70.916  1.00  0.00    -0.244 A  
HETATM    3  C   UNL     1     -11.366   9.311  70.106  1.00  0.00    -0.164 A  
HETATM    4  C   UNL     1     -11.970  10.532  70.553  1.00  0.00    -0.342 A  
HETATM    5  C   UNL     1     -12.675   8.238  71.968  1.00  0.00    -0.376 A  
HETATM    6  N   UNL     1     -11.736  11.748  70.024  1.00  0.00    -0.323 NA 
HETATM    7  C   UNL     1     -13.329   9.405  72.382  1.00  0.00    -0.503 A  
HETATM    8  C   UNL     1     -12.948  10.575  71.699  1.00  0.00    -0.476 A  
HETATM    9  S   UNL     1     -12.629  12.832  70.910  1.00  0.00    -0.163 SA 
HETATM   10  N   UNL     1     -13.384  11.813  71.977  1.00  0.00    -0.438 NA 
ENDROOT
BRANCH   3  11
HETATM   11  N   UNL     1     -10.493   9.350  69.006  1.00  0.00    -0.213 NA 
HETATM   12  H   UNL     1     -10.913   9.587  68.106  1.00  0.00     0.000 HD 
BRANCH  11  13
HETATM   13  C   UNL     1      -9.154   9.109  68.997  1.00  0.00    -0.143 C  
HETATM   14  C   UNL     1      -7.078   9.416  69.885  1.00  0.00    -0.075 C  
HETATM   15  N   UNL     1      -8.486   9.743  70.011  1.00  0.00    -0.205 NA 
HETATM   16  C   UNL     1      -7.099   8.340  68.802  1.00  0.00    -0.071 C  
HETATM   17  N   UNL     1      -8.430   8.424  68.163  1.00  0.00    -0.131 NA 
ENDBRANCH  11  13
ENDBRANCH   3  11
TORSDOF 2
ENDMDL
MODEL      100
REMARK 921   NORMALIZED FREE ENERGY PREDICTED BY IDOCK:   -3.63 KCAL/MOL
REMARK 922        TOTAL FREE ENERGY PREDICTED BY IDOCK:   -4.40 KCAL/MOL
REMARK 923 INTER-LIGAND FREE ENERGY PREDICTED BY IDOCK:   -4.07 KCAL/MOL
REMARK 924 INTRA-LIGAND FREE ENERGY PREDICTED BY IDOCK:   -0.33 KCAL/MOL
REMARK 927      BINDING AFFINITY PREDICTED BY RF-SCORE:    0.00 PKD
ROOT
HETATM    1 CL   UNL     1      -8.372   6.611  69.942  1.00  0.00    -0.130 Cl 
HETATM    2  C   UNL     1      -9.899   7.345  70.343  1.00  0.00    -0.183 A  
HETATM    3  C   UNL     1     -10.182   8.711  70.061  1.00  0.00    -0.194 A  
HETATM    4  C   UNL     1     -11.339   9.194  70.756  1.00  0.00    -0.280 A  
HETATM    5  C   UNL     1     -10.750   6.494  71.108  1.00  0.00    -0.285 A  
HETATM    6  N   UNL     1     -11.772  10.469  70.741  1.00  0.00    -0.348 NA 
HETATM    7  C   UNL     1     -11.921   6.925  71.744  1.00  0.00    -0.372 A  
HETATM    8  C   UNL     1     -12.204   8.297  71.604  1.00  0.00    -0.313 A  
HETATM    9  S   UNL     1     -13.107  10.530  71.727  1.00  0.00    -0.427 SA 
HETATM   10  N   UNL     1     -13.226   8.942  72.186  1.00  0.00    -0.397 NA 
ENDROOT
BRANCH   3  11
HETATM   11  N   UNL     1      -9.451   9.603  69.260  1.00  0.00    -0.169 NA 
HETATM   12  H   UNL     1      -8.696  10.109  69.724  1.00  0.00     0.000 HD 
BRANCH  11  13
HETATM   13  C   UNL     1      -9.629   9.873  67.939  1.00  0.00    -0.138 C  
HETATM   14  C   UNL     1      -9.448   9.269  65.749  1.00  0.00    -0.262 C  
HETATM   15  N   UNL     1      -9.215   8.856  67.120  1.00  0.00    -0.136 NA 
HETATM   16  C   UNL     1     -10.251  10.554  65.938  1.00  0.00    -0.245 C  
HETATM   17  N   UNL     1     -10.078  10.944  67.354  1.00  0.00    -0.186 NA 
ENDBRANCH  11  13
ENDBRANCH   3  11
TORSDOF 2
ENDMDL
MODEL      101
REMARK 921   NORMALIZED FREE ENERGY PREDICTED BY IDOCK:   -3.62 KCAL/MOL
REMARK 922        TOTAL FREE ENERGY PREDICTED BY IDOCK:   -4.39 KCAL/MOL
REMARK 923 INTER-LIGAND FREE ENERGY PREDICTED BY IDOCK:   -4.10 KCAL/MOL
REMARK 924 INTRA-LIGAND FREE ENERGY PREDICTED BY IDOCK:   -0.28 KCAL/MOL
REMARK 927      BINDING AFFINITY PREDICTED BY RF-SCORE:    0.00 PKD
ROOT
HETATM    1 CL   UNL     1     -10.535  18.644  68.059  1.00  0.00    -0.408 Cl 
HETATM    2  C   UNL     1      -9.067  17.782  68.423  1.00  0.00    -0.278 A  
HETATM    3  C   UNL     1      -9.059  16.393  68.732  1.00  0.00    -0.244 A  
HETATM    4  C   UNL     1      -7.822  15.961  69.316  1.00  0.00    -0.226 A  
HETATM    5  C   UNL     1      -7.927  18.632  68.532  1.00  0.00    -0.365 A  
HETATM    6  N   UNL     1      -7.583  14.722  69.786  1.00  0.00    -0.059 NA 
HETATM    7  C   UNL     1      -6.688  18.219  69.038  1.00  0.00    -0.269 A  
HETATM    8  C   UNL     1      -6.639  16.881  69.473  1.00  0.00    -0.203 A  
HETATM    9  S   UNL     1      -6.039  14.735  70.396  1.00  0.00    -0.137 SA 
HETATM   10  N   UNL     1      -5.586  16.294  70.059  1.00  0.00    -0.174 NA 
ENDROOT
BRANCH   3  11
HETATM   11  N   UNL     1     -10.101  15.464  68.586  1.00  0.00    -0.207 NA 
HETATM   12  H   UNL     1     -10.199  15.038  67.664  1.00  0.00     0.000 HD 
BRANCH  11  13
HETATM   13  C   UNL     1     -10.997  15.063  69.529  1.00  0.00    -0.269 C  
HETATM   14  C   UNL     1     -12.357  13.466  70.421  1.00  0.00    -0.312 C  
HETATM   15  N   UNL     1     -11.405  13.765  69.367  1.00  0.00    -0.261 NA 
HETATM   16  C   UNL     1     -12.243  14.703  71.309  1.00  0.00    -0.348 C  
HETATM   17  N   UNL     1     -11.542  15.726  70.504  1.00  0.00    -0.343 NA 
ENDBRANCH  11  13
ENDBRANCH   3  11
TORSDOF 2
ENDMDL
MODEL      102
REMARK 921   NORMALIZED FREE ENERGY PREDICTED BY IDOCK:   -3.62 KCAL/MOL
REMARK 922        TOTAL FREE ENERGY PREDICTED BY IDOCK:   -4.38 KCAL/MOL
REMARK 923 INTER-LIGAND FREE ENERGY PREDICTED BY IDOCK:   -4.11 KCAL/MOL
REMARK 924 INTRA-LIGAND FREE ENERGY PREDICTED BY IDOCK:   -0.28 KCAL/MOL
REMARK 927      BINDING AFFINITY PREDICTED BY RF-SCORE:    0.00 PKD
ROOT
HETATM    1 CL   UNL     1     -11.348  12.310  68.987  1.00  0.00    -0.311 Cl 
HETATM    2  C   UNL     1     -10.622  13.850  68.628  1.00  0.00    -0.257 A  
HETATM    3  C   UNL     1      -9.523  13.981  67.733  1.00  0.00    -0.209 A  
HETATM    4  C   UNL     1      -8.875  15.256  67.831  1.00  0.00    -0.165 A  
HETATM    5  C   UNL     1     -11.132  14.914  69.429  1.00  0.00    -0.296 A  
HETATM    6  N   UNL     1      -7.756  15.606  67.168  1.00  0.00    -0.206 NA 
HETATM    7  C   UNL     1     -10.557  16.190  69.493  1.00  0.00    -0.306 A  
HETATM    8  C   UNL     1      -9.392  16.358  68.720  1.00  0.00    -0.245 A  
HETATM    9  S   UNL     1      -7.381  17.151  67.650  1.00  0.00    -0.167 SA 
HETATM   10  N   UNL     1      -8.636  17.465  68.687  1.00  0.00    -0.274 NA 
ENDROOT
BRANCH   3  11
HETATM   11  N   UNL     1      -8.998  13.020  66.853  1.00  0.00    -0.266 NA 
HETATM   12  H   UNL     1      -8.033  12.736  67.020  1.00  0.00     0.000 HD 
BRANCH  11  13
HETATM   13  C   UNL     1      -9.625  12.423  65.803  1.00  0.00    -0.156 C  
HETATM   14  C   UNL     1     -11.189  12.460  64.146  1.00  0.00    -0.376 C  
HETATM   15  N   UNL     1     -10.595  13.208  65.238  1.00  0.00    -0.304 NA 
HETATM   16  C   UNL     1     -10.261  11.251  64.050  1.00  0.00    -0.348 C  
HETATM   17  N   UNL     1      -9.476  11.233  65.303  1.00  0.00    -0.223 NA 
ENDBRANCH  11  13
ENDBRANCH   3  11
TORSDOF 2
ENDMDL
MODEL      103
REMARK 921   NORMALIZED FREE ENERGY PREDICTED BY IDOCK:   -3.61 KCAL/MOL
REMARK 922        TOTAL FREE ENERGY PREDICTED BY IDOCK:   -4.37 KCAL/MOL
REMARK 923 INTER-LIGAND FREE ENERGY PREDICTED BY IDOCK:   -4.02 KCAL/MOL
REMARK 924 INTRA-LIGAND FREE ENERGY PREDICTED BY IDOCK:   -0.36 KCAL/MOL
REMARK 927      BINDING AFFINITY PREDICTED BY RF-SCORE:    0.00 PKD
ROOT
HETATM    1 CL   UNL     1     -11.492  10.824  68.913  1.00  0.00    -0.341 Cl 
HETATM    2  C   UNL     1     -11.719  12.465  69.445  1.00  0.00    -0.322 A  
HETATM    3  C   UNL     1     -11.099  13.568  68.794  1.00  0.00    -0.264 A  
HETATM    4  C   UNL     1     -11.144  14.771  69.572  1.00  0.00    -0.279 A  
HETATM    5  C   UNL     1     -12.446  12.565  70.668  1.00  0.00    -0.323 A  
HETATM    6  N   UNL     1     -10.551  15.932  69.234  1.00  0.00    -0.231 NA 
HETATM    7  C   UNL     1     -12.561  13.744  71.416  1.00  0.00    -0.433 A  
HETATM    8  C   UNL     1     -11.872  14.853  70.889  1.00  0.00    -0.321 A  
HETATM    9  S   UNL     1     -10.853  16.999  70.470  1.00  0.00     0.939 SA 
HETATM   10  N   UNL     1     -11.780  16.057  71.472  1.00  0.00    -0.461 NA 
ENDROOT
BRANCH   3  11
HETATM   11  N   UNL     1     -10.431  13.585  67.559  1.00  0.00    -0.236 NA 
HETATM   12  H   UNL     1      -9.438  13.819  67.587  1.00  0.00     0.000 HD 
BRANCH  11  13
HETATM   13  C   UNL     1     -10.950  13.325  66.328  1.00  0.00    -0.284 C  
HETATM   14  C   UNL     1     -12.129  13.986  64.493  1.00  0.00    -0.459 C  
HETATM   15  N   UNL     1     -11.620  14.392  65.790  1.00  0.00    -0.349 NA 
HETATM   16  C   UNL     1     -11.455  12.630  64.300  1.00  0.00    -0.363 C  
HETATM   17  N   UNL     1     -10.944  12.230  65.628  1.00  0.00    -0.289 NA 
ENDBRANCH  11  13
ENDBRANCH   3  11
TORSDOF 2
ENDMDL
MODEL      104
REMARK 921   NORMALIZED FREE ENERGY PREDICTED BY IDOCK:   -3.59 KCAL/MOL
REMARK 922        TOTAL FREE ENERGY PREDICTED BY IDOCK:   -4.36 KCAL/MOL
REMARK 923 INTER-LIGAND FREE ENERGY PREDICTED BY IDOCK:   -4.07 KCAL/MOL
REMARK 924 INTRA-LIGAND FREE ENERGY PREDICTED BY IDOCK:   -0.28 KCAL/MOL
REMARK 927      BINDING AFFINITY PREDICTED BY RF-SCORE:    0.00 PKD
ROOT
HETATM    1 CL   UNL     1     -10.837   6.949  73.676  1.00  0.00    -0.293 Cl 
HETATM    2  C   UNL     1     -11.254   8.012  72.362  1.00  0.00    -0.369 A  
HETATM    3  C   UNL     1     -10.328   8.348  71.335  1.00  0.00    -0.222 A  
HETATM    4  C   UNL     1     -10.750   9.472  70.552  1.00  0.00    -0.298 A  
HETATM    5  C   UNL     1     -12.536   8.619  72.512  1.00  0.00    -0.372 A  
HETATM    6  N   UNL     1     -10.020  10.054  69.581  1.00  0.00    -0.225 NA 
HETATM    7  C   UNL     1     -12.999   9.676  71.719  1.00  0.00    -0.514 A  
HETATM    8  C   UNL     1     -12.087  10.139  70.752  1.00  0.00    -0.343 A  
HETATM    9  S   UNL     1     -10.917  11.331  69.011  1.00  0.00    -0.252 SA 
HETATM   10  N   UNL     1     -12.285  11.185  69.936  1.00  0.00    -0.321 NA 
ENDROOT
BRANCH   3  11
HETATM   11  N   UNL     1      -9.083   7.759  71.060  1.00  0.00    -0.146 NA 
HETATM   12  H   UNL     1      -8.949   7.413  70.110  1.00  0.00     0.000 HD 
BRANCH  11  13
HETATM   13  C   UNL     1      -8.034   7.596  71.911  1.00  0.00    -0.096 C  
HETATM   14  C   UNL     1      -6.558   8.445  73.425  1.00  0.00    -0.103 C  
HETATM   15  N   UNL     1      -7.685   8.749  72.563  1.00  0.00    -0.366 NA 
HETATM   16  C   UNL     1      -6.482   6.924  73.323  1.00  0.00    -0.063 C  
HETATM   17  N   UNL     1      -7.304   6.548  72.152  1.00  0.00    -0.089 NA 
ENDBRANCH  11  13
ENDBRANCH   3  11
TORSDOF 2
ENDMDL
MODEL      105
REMARK 921   NORMALIZED FREE ENERGY PREDICTED BY IDOCK:   -3.59 KCAL/MOL
REMARK 922        TOTAL FREE ENERGY PREDICTED BY IDOCK:   -4.35 KCAL/MOL
REMARK 923 INTER-LIGAND FREE ENERGY PREDICTED BY IDOCK:   -4.05 KCAL/MOL
REMARK 924 INTRA-LIGAND FREE ENERGY PREDICTED BY IDOCK:   -0.30 KCAL/MOL
REMARK 927      BINDING AFFINITY PREDICTED BY RF-SCORE:    0.00 PKD
ROOT
HETATM    1 CL   UNL     1      -8.380   8.589  72.401  1.00  0.00    -0.211 Cl 
HETATM    2  C   UNL     1      -8.936   8.247  70.788  1.00  0.00    -0.149 A  
HETATM    3  C   UNL     1     -10.089   7.454  70.535  1.00  0.00    -0.191 A  
HETATM    4  C   UNL     1     -10.180   7.024  69.170  1.00  0.00    -0.187 A  
HETATM    5  C   UNL     1      -8.041   8.703  69.775  1.00  0.00    -0.114 A  
HETATM    6  N   UNL     1     -11.119   6.188  68.685  1.00  0.00    -0.347 NA 
HETATM    7  C   UNL     1      -8.145   8.351  68.423  1.00  0.00    -0.123 A  
HETATM    8  C   UNL     1      -9.200   7.471  68.116  1.00  0.00    -0.137 A  
HETATM    9  S   UNL     1     -10.771   5.964  67.077  1.00  0.00    -0.299 SA 
HETATM   10  N   UNL     1      -9.443   6.943  66.908  1.00  0.00    -0.152 NA 
ENDROOT
BRANCH   3  11
HETATM   11  N   UNL     1     -11.066   7.022  71.448  1.00  0.00    -0.240 NA 
HETATM   12  H   UNL     1     -10.818   6.218  72.025  1.00  0.00     0.000 HD 
BRANCH  11  13
HETATM   13  C   UNL     1     -12.303   7.549  71.654  1.00  0.00    -0.333 C  
HETATM   14  C   UNL     1     -13.647   9.183  72.499  1.00  0.00    -0.436 C  
HETATM   15  N   UNL     1     -12.276   8.735  72.338  1.00  0.00    -0.358 NA 
HETATM   16  C   UNL     1     -14.408   8.196  71.618  1.00  0.00    -0.469 C  
HETATM   17  N   UNL     1     -13.476   7.080  71.348  1.00  0.00    -0.307 NA 
ENDBRANCH  11  13
ENDBRANCH   3  11
TORSDOF 2
ENDMDL
MODEL      106
REMARK 921   NORMALIZED FREE ENERGY PREDICTED BY IDOCK:   -3.59 KCAL/MOL
REMARK 922        TOTAL FREE ENERGY PREDICTED BY IDOCK:   -4.35 KCAL/MOL
REMARK 923 INTER-LIGAND FREE ENERGY PREDICTED BY IDOCK:   -4.05 KCAL/MOL
REMARK 924 INTRA-LIGAND FREE ENERGY PREDICTED BY IDOCK:   -0.30 KCAL/MOL
REMARK 927      BINDING AFFINITY PREDICTED BY RF-SCORE:    0.00 PKD
ROOT
HETATM    1 CL   UNL     1     -10.416   9.142  71.642  1.00  0.00    -0.421 Cl 
HETATM    2  C   UNL     1      -9.996   8.077  70.332  1.00  0.00    -0.188 A  
HETATM    3  C   UNL     1     -10.592   8.185  69.044  1.00  0.00    -0.151 A  
HETATM    4  C   UNL     1     -10.360   7.032  68.225  1.00  0.00    -0.194 A  
HETATM    5  C   UNL     1      -9.131   7.013  70.725  1.00  0.00    -0.154 A  
HETATM    6  N   UNL     1     -10.889   6.835  67.002  1.00  0.00    -0.376 NA 
HETATM    7  C   UNL     1      -8.835   5.906  69.919  1.00  0.00    -0.130 A  
HETATM    8  C   UNL     1      -9.485   5.889  68.670  1.00  0.00    -0.122 A  
HETATM    9  S   UNL     1     -10.363   5.345  66.491  1.00  0.00    -0.272 SA 
HETATM   10  N   UNL     1      -9.412   4.896  67.772  1.00  0.00    -0.132 NA 
ENDROOT
BRANCH   3  11
HETATM   11  N   UNL     1     -11.390   9.225  68.540  1.00  0.00    -0.322 NA 
HETATM   12  H   UNL     1     -12.349   8.978  68.296  1.00  0.00     0.000 HD 
BRANCH  11  13
HETATM   13  C   UNL     1     -11.036  10.524  68.339  1.00  0.00    -0.281 C  
HETATM   14  C   UNL     1     -11.595  12.724  68.147  1.00  0.00    -0.336 C  
HETATM   15  N   UNL     1     -12.100  11.385  68.384  1.00  0.00    -0.585 NA 
HETATM   16  C   UNL     1     -10.085  12.505  68.191  1.00  0.00    -0.225 C  
HETATM   17  N   UNL     1      -9.876  11.046  68.071  1.00  0.00    -0.167 NA 
ENDBRANCH  11  13
ENDBRANCH   3  11
TORSDOF 2
ENDMDL
MODEL      107
REMARK 921   NORMALIZED FREE ENERGY PREDICTED BY IDOCK:   -3.58 KCAL/MOL
REMARK 922        TOTAL FREE ENERGY PREDICTED BY IDOCK:   -4.34 KCAL/MOL
REMARK 923 INTER-LIGAND FREE ENERGY PREDICTED BY IDOCK:   -3.99 KCAL/MOL
REMARK 924 INTRA-LIGAND FREE ENERGY PREDICTED BY IDOCK:   -0.35 KCAL/MOL
REMARK 927      BINDING AFFINITY PREDICTED BY RF-SCORE:    0.00 PKD
ROOT
HETATM    1 CL   UNL     1     -11.262   5.214  72.807  1.00  0.00    -0.328 Cl 
HETATM    2  C   UNL     1     -10.562   5.209  71.214  1.00  0.00    -0.133 A  
HETATM    3  C   UNL     1     -11.161   5.894  70.119  1.00  0.00    -0.325 A  
HETATM    4  C   UNL     1     -10.620   5.496  68.852  1.00  0.00    -0.188 A  
HETATM    5  C   UNL     1      -9.441   4.335  71.094  1.00  0.00    -0.233 A  
HETATM    6  N   UNL     1     -11.071   5.918  67.655  1.00  0.00    -0.144 NA 
HETATM    7  C   UNL     1      -8.852   3.982  69.873  1.00  0.00    -0.138 A  
HETATM    8  C   UNL     1      -9.468   4.533  68.733  1.00  0.00    -0.157 A  
HETATM    9  S   UNL     1     -10.157   5.145  66.504  1.00  0.00    -0.265 SA 
HETATM   10  N   UNL     1      -9.124   4.273  67.463  1.00  0.00    -0.125 NA 
ENDROOT
BRANCH   3  11
HETATM   11  N   UNL     1     -12.211   6.826  70.146  1.00  0.00    -0.605 NA 
HETATM   12  H   UNL     1     -13.060   6.562  69.645  1.00  0.00     0.000 HD 
BRANCH  11  13
HETATM   13  C   UNL     1     -12.231   8.040  70.761  1.00  0.00    -0.017 C  
HETATM   14  C   UNL     1     -11.411  10.152  71.008  1.00  0.00    -0.354 C  
HETATM   15  N   UNL     1     -11.294   8.909  70.269  1.00  0.00    -0.210 NA 
HETATM   16  C   UNL     1     -12.686   9.920  71.815  1.00  0.00    -0.428 C  
HETATM   17  N   UNL     1     -12.957   8.467  71.751  1.00  0.00    -0.338 NA 
ENDBRANCH  11  13
ENDBRANCH   3  11
TORSDOF 2
ENDMDL
MODEL      108
REMARK 921   NORMALIZED FREE ENERGY PREDICTED BY IDOCK:   -3.58 KCAL/MOL
REMARK 922        TOTAL FREE ENERGY PREDICTED BY IDOCK:   -4.34 KCAL/MOL
REMARK 923 INTER-LIGAND FREE ENERGY PREDICTED BY IDOCK:   -3.99 KCAL/MOL
REMARK 924 INTRA-LIGAND FREE ENERGY PREDICTED BY IDOCK:   -0.35 KCAL/MOL
REMARK 927      BINDING AFFINITY PREDICTED BY RF-SCORE:    0.00 PKD
ROOT
HETATM    1 CL   UNL     1     -11.124   6.344  67.785  1.00  0.00    -0.415 Cl 
HETATM    2  C   UNL     1     -10.221   7.775  67.380  1.00  0.00    -0.251 A  
HETATM    3  C   UNL     1     -10.424   9.015  68.048  1.00  0.00    -0.216 A  
HETATM    4  C   UNL     1      -9.834  10.123  67.355  1.00  0.00    -0.187 A  
HETATM    5  C   UNL     1      -9.394   7.613  66.230  1.00  0.00    -0.189 A  
HETATM    6  N   UNL     1      -9.957  11.414  67.718  1.00  0.00    -0.175 NA 
HETATM    7  C   UNL     1      -8.753   8.670  65.571  1.00  0.00    -0.219 A  
HETATM    8  C   UNL     1      -9.003   9.947  66.111  1.00  0.00    -0.150 A  
HETATM    9  S   UNL     1      -9.140  12.308  66.582  1.00  0.00    -0.181 SA 
HETATM   10  N   UNL     1      -8.559  11.105  65.601  1.00  0.00    -0.133 NA 
ENDROOT
BRANCH   3  11
HETATM   11  N   UNL     1     -11.153   9.261  69.223  1.00  0.00    -0.434 NA 
HETATM   12  H   UNL     1     -11.937   9.908  69.139  1.00  0.00     0.000 HD 
BRANCH  11  13
HETATM   13  C   UNL     1     -10.938   8.739  70.461  1.00  0.00    -0.239 C  
HETATM   14  C   UNL     1      -9.686   8.587  72.359  1.00  0.00    -0.287 C  
HETATM   15  N   UNL     1      -9.806   9.224  71.061  1.00  0.00    -0.290 NA 
HETATM   16  C   UNL     1     -11.023   7.859  72.479  1.00  0.00    -0.350 C  
HETATM   17  N   UNL     1     -11.604   7.837  71.119  1.00  0.00    -0.278 NA 
ENDBRANCH  11  13
ENDBRANCH   3  11
TORSDOF 2
ENDMDL
MODEL      109
REMARK 921   NORMALIZED FREE ENERGY PREDICTED BY IDOCK:   -3.54 KCAL/MOL
REMARK 922        TOTAL FREE ENERGY PREDICTED BY IDOCK:   -4.29 KCAL/MOL
REMARK 923 INTER-LIGAND FREE ENERGY PREDICTED BY IDOCK:   -4.04 KCAL/MOL
REMARK 924 INTRA-LIGAND FREE ENERGY PREDICTED BY IDOCK:   -0.25 KCAL/MOL
REMARK 927      BINDING AFFINITY PREDICTED BY RF-SCORE:    0.00 PKD
ROOT
HETATM    1 CL   UNL     1     -11.104   8.532  69.602  1.00  0.00    -0.095 Cl 
HETATM    2  C   UNL     1     -11.775  10.110  69.897  1.00  0.00    -0.179 A  
HETATM    3  C   UNL     1     -11.686  11.163  68.944  1.00  0.00    -0.337 A  
HETATM    4  C   UNL     1     -11.997  12.447  69.503  1.00  0.00    -0.261 A  
HETATM    5  C   UNL     1     -12.266  10.274  71.226  1.00  0.00    -0.496 A  
HETATM    6  N   UNL     1     -11.900  13.618  68.846  1.00  0.00    -0.346 NA 
HETATM    7  C   UNL     1     -12.639  11.507  71.776  1.00  0.00    -0.225 A  
HETATM    8  C   UNL     1     -12.468  12.615  70.924  1.00  0.00    -0.278 A  
HETATM    9  S   UNL     1     -12.322  14.806  69.927  1.00  0.00    -0.247 SA 
HETATM   10  N   UNL     1     -12.686  13.895  71.262  1.00  0.00    -0.351 NA 
ENDROOT
BRANCH   3  11
HETATM   11  N   UNL     1     -11.291  11.088  67.599  1.00  0.00    -0.434 NA 
HETATM   12  H   UNL     1     -11.995  11.344  66.907  1.00  0.00     0.000 HD 
BRANCH  11  13
HETATM   13  C   UNL     1     -10.078  10.712  67.108  1.00  0.00    -0.207 C  
HETATM   14  C   UNL     1      -7.819  10.526  67.333  1.00  0.00    -0.106 C  
HETATM   15  N   UNL     1      -9.046  10.959  67.974  1.00  0.00    -0.148 NA 
HETATM   16  C   UNL     1      -8.345   9.806  66.095  1.00  0.00    -0.120 C  
HETATM   17  N   UNL     1      -9.760  10.212  65.951  1.00  0.00    -0.215 NA 
ENDBRANCH  11  13
ENDBRANCH   3  11
TORSDOF 2
ENDMDL
MODEL      110
REMARK 921   NORMALIZED FREE ENERGY PREDICTED BY IDOCK:   -3.54 KCAL/MOL
REMARK 922        TOTAL FREE ENERGY PREDICTED BY IDOCK:   -4.29 KCAL/MOL
REMARK 923 INTER-LIGAND FREE ENERGY PREDICTED BY IDOCK:   -3.96 KCAL/MOL
REMARK 924 INTRA-LIGAND FREE ENERGY PREDICTED BY IDOCK:   -0.33 KCAL/MOL
REMARK 927      BINDING AFFINITY PREDICTED BY RF-SCORE:    0.00 PKD
ROOT
HETATM    1 CL   UNL     1      -7.071  12.960  68.684  1.00  0.00    -0.100 Cl 
HETATM    2  C   UNL     1      -8.350  13.025  67.506  1.00  0.00    -0.184 A  
HETATM    3  C   UNL     1      -9.387  13.998  67.563  1.00  0.00    -0.209 A  
HETATM    4  C   UNL     1     -10.498  13.677  66.716  1.00  0.00    -0.270 A  
HETATM    5  C   UNL     1      -8.335  11.926  66.596  1.00  0.00    -0.117 A  
HETATM    6  N   UNL     1     -11.647  14.377  66.652  1.00  0.00    -0.371 NA 
HETATM    7  C   UNL     1      -9.379  11.628  65.711  1.00  0.00    -0.220 A  
HETATM    8  C   UNL     1     -10.493  12.485  65.794  1.00  0.00    -0.271 A  
HETATM    9  S   UNL     1     -12.627  13.586  65.570  1.00  0.00    -0.436 SA 
HETATM   10  N   UNL     1     -11.632  12.345  65.101  1.00  0.00    -0.349 NA 
ENDROOT
BRANCH   3  11
HETATM   11  N   UNL     1      -9.456  15.149  68.365  1.00  0.00    -0.202 NA 
HETATM   12  H   UNL     1      -9.868  15.028  69.291  1.00  0.00     0.000 HD 
BRANCH  11  13
HETATM   13  C   UNL     1      -9.039  16.406  68.054  1.00  0.00    -0.200 C  
HETATM   14  C   UNL     1      -7.586  18.139  68.334  1.00  0.00    -0.283 C  
HETATM   15  N   UNL     1      -7.920  16.788  68.746  1.00  0.00    -0.243 NA 
HETATM   16  C   UNL     1      -8.540  18.358  67.163  1.00  0.00    -0.262 C  
HETATM   17  N   UNL     1      -9.559  17.290  67.256  1.00  0.00    -0.249 NA 
ENDBRANCH  11  13
ENDBRANCH   3  11
TORSDOF 2
ENDMDL
MODEL      111
REMARK 921   NORMALIZED FREE ENERGY PREDICTED BY IDOCK:   -3.53 KCAL/MOL
REMARK 922        TOTAL FREE ENERGY PREDICTED BY IDOCK:   -4.29 KCAL/MOL
REMARK 923 INTER-LIGAND FREE ENERGY PREDICTED BY IDOCK:   -4.12 KCAL/MOL
REMARK 924 INTRA-LIGAND FREE ENERGY PREDICTED BY IDOCK:   -0.17 KCAL/MOL
REMARK 927      BINDING AFFINITY PREDICTED BY RF-SCORE:    0.00 PKD
ROOT
HETATM    1 CL   UNL     1     -12.199  11.215  69.155  1.00  0.00    -0.342 Cl 
HETATM    2  C   UNL     1     -11.398  10.767  67.676  1.00  0.00    -0.252 A  
HETATM    3  C   UNL     1     -10.826   9.478  67.482  1.00  0.00    -0.170 A  
HETATM    4  C   UNL     1      -9.943   9.425  66.354  1.00  0.00    -0.276 A  
HETATM    5  C   UNL     1     -11.241  11.855  66.768  1.00  0.00    -0.384 A  
HETATM    6  N   UNL     1      -9.202   8.357  66.004  1.00  0.00    -0.200 NA 
HETATM    7  C   UNL     1     -10.436  11.809  65.623  1.00  0.00    -0.308 A  
HETATM    8  C   UNL     1      -9.745  10.598  65.429  1.00  0.00    -0.252 A  
HETATM    9  S   UNL     1      -8.321   8.806  64.669  1.00  0.00    -0.148 SA 
HETATM   10  N   UNL     1      -8.864  10.356  64.447  1.00  0.00    -0.195 NA 
ENDROOT
BRANCH   3  11
HETATM   11  N   UNL     1     -10.984   8.329  68.274  1.00  0.00    -0.435 NA 
HETATM   12  H   UNL     1     -11.327   7.496  67.795  1.00  0.00     0.000 HD 
BRANCH  11  13
HETATM   13  C   UNL     1     -10.734   8.194  69.605  1.00  0.00    -0.195 C  
HETATM   14  C   UNL     1      -9.546   8.757  71.466  1.00  0.00    -0.284 C  
HETATM   15  N   UNL     1      -9.719   9.001  70.047  1.00  0.00    -0.176 NA 
HETATM   16  C   UNL     1     -10.752   7.876  71.785  1.00  0.00    -0.232 C  
HETATM   17  N   UNL     1     -11.270   7.401  70.484  1.00  0.00    -0.272 NA 
ENDBRANCH  11  13
ENDBRANCH   3  11
TORSDOF 2
ENDMDL
MODEL      112
REMARK 921   NORMALIZED FREE ENERGY PREDICTED BY IDOCK:   -3.52 KCAL/MOL
REMARK 922        TOTAL FREE ENERGY PREDICTED BY IDOCK:   -4.27 KCAL/MOL
REMARK 923 INTER-LIGAND FREE ENERGY PREDICTED BY IDOCK:   -4.00 KCAL/MOL
REMARK 924 INTRA-LIGAND FREE ENERGY PREDICTED BY IDOCK:   -0.27 KCAL/MOL
REMARK 927      BINDING AFFINITY PREDICTED BY RF-SCORE:    0.00 PKD
ROOT
HETATM    1 CL   UNL     1     -14.259   7.645  71.852  1.00  0.00    -0.486 Cl 
HETATM    2  C   UNL     1     -12.563   7.259  71.807  1.00  0.00    -0.341 A  
HETATM    3  C   UNL     1     -11.668   7.876  70.889  1.00  0.00    -0.257 A  
HETATM    4  C   UNL     1     -10.412   7.191  70.791  1.00  0.00    -0.212 A  
HETATM    5  C   UNL     1     -12.210   6.171  72.659  1.00  0.00     0.075 A  
HETATM    6  N   UNL     1      -9.426   7.508  69.931  1.00  0.00    -0.161 NA 
HETATM    7  C   UNL     1     -10.967   5.526  72.630  1.00  0.00    -0.320 A  
HETATM    8  C   UNL     1     -10.067   6.010  71.661  1.00  0.00    -0.190 A  
HETATM    9  S   UNL     1      -8.210   6.402  70.173  1.00  0.00    -0.130 SA 
HETATM   10  N   UNL     1      -8.855   5.497  71.403  1.00  0.00    -0.135 NA 
ENDROOT
BRANCH   3  11
HETATM   11  N   UNL     1     -11.897   8.992  70.068  1.00  0.00    -0.408 NA 
HETATM   12  H   UNL     1     -11.887   8.821  69.063  1.00  0.00     0.000 HD 
BRANCH  11  13
HETATM   13  C   UNL     1     -12.130  10.276  70.455  1.00  0.00    -0.310 C  
HETATM   14  C   UNL     1     -12.164  12.509  70.002  1.00  0.00    -0.192 C  
HETATM   15  N   UNL     1     -11.890  11.190  69.464  1.00  0.00    -0.323 NA 
HETATM   16  C   UNL     1     -12.801  12.174  71.349  1.00  0.00    -0.276 C  
HETATM   17  N   UNL     1     -12.491  10.752  71.610  1.00  0.00    -0.330 NA 
ENDBRANCH  11  13
ENDBRANCH   3  11
TORSDOF 2
ENDMDL
MODEL      113
REMARK 921   NORMALIZED FREE ENERGY PREDICTED BY IDOCK:   -3.49 KCAL/MOL
REMARK 922        TOTAL FREE ENERGY PREDICTED BY IDOCK:   -4.25 KCAL/MOL
REMARK 923 INTER-LIGAND FREE ENERGY PREDICTED BY IDOCK:   -3.89 KCAL/MOL
REMARK 924 INTRA-LIGAND FREE ENERGY PREDICTED BY IDOCK:   -0.35 KCAL/MOL
REMARK 927      BINDING AFFINITY PREDICTED BY RF-SCORE:    0.00 PKD
ROOT
HETATM    1 CL   UNL     1     -11.416   7.876  72.795  1.00  0.00    -0.455 Cl 
HETATM    2  C   UNL     1     -11.296   8.399  71.140  1.00  0.00    -0.268 A  
HETATM    3  C   UNL     1     -11.029   7.493  70.075  1.00  0.00    -0.240 A  
HETATM    4  C   UNL     1     -10.646   8.157  68.863  1.00  0.00    -0.140 A  
HETATM    5  C   UNL     1     -11.333   9.817  70.992  1.00  0.00    -0.460 A  
HETATM    6  N   UNL     1     -10.250   7.536  67.736  1.00  0.00    -0.188 NA 
HETATM    7  C   UNL     1     -11.028  10.488  69.801  1.00  0.00    -0.350 A  
HETATM    8  C   UNL     1     -10.640   9.658  68.732  1.00  0.00    -0.216 A  
HETATM    9  S   UNL     1      -9.874   8.728  66.642  1.00  0.00    -0.285 SA 
HETATM   10  N   UNL     1     -10.232  10.083  67.528  1.00  0.00    -0.198 NA 
ENDROOT
BRANCH   3  11
HETATM   11  N   UNL     1     -11.044   6.089  70.103  1.00  0.00    -0.361 NA 
HETATM   12  H   UNL     1     -11.804   5.637  69.595  1.00  0.00     0.000 HD 
BRANCH  11  13
HETATM   13  C   UNL     1     -10.166   5.260  70.729  1.00  0.00    -0.246 C  
HETATM   14  C   UNL     1      -8.163   4.174  70.791  1.00  0.00    -0.070 C  
HETATM   15  N   UNL     1      -9.003   5.078  70.028  1.00  0.00    -0.108 NA 
HETATM   16  C   UNL     1      -8.930   4.065  72.107  1.00  0.00    -0.114 C  
HETATM   17  N   UNL     1     -10.284   4.595  71.840  1.00  0.00    -0.196 NA 
ENDBRANCH  11  13
ENDBRANCH   3  11
TORSDOF 2
ENDMDL
MODEL      114
REMARK 921   NORMALIZED FREE ENERGY PREDICTED BY IDOCK:   -3.48 KCAL/MOL
REMARK 922        TOTAL FREE ENERGY PREDICTED BY IDOCK:   -4.23 KCAL/MOL
REMARK 923 INTER-LIGAND FREE ENERGY PREDICTED BY IDOCK:   -3.97 KCAL/MOL
REMARK 924 INTRA-LIGAND FREE ENERGY PREDICTED BY IDOCK:   -0.26 KCAL/MOL
REMARK 927      BINDING AFFINITY PREDICTED BY RF-SCORE:    0.00 PKD
ROOT
HETATM    1 CL   UNL     1      -9.940   4.693  70.343  1.00  0.00    -0.304 Cl 
HETATM    2  C   UNL     1     -10.749   6.231  70.443  1.00  0.00    -0.271 A  
HETATM    3  C   UNL     1     -10.460   7.301  69.550  1.00  0.00    -0.230 A  
HETATM    4  C   UNL     1     -10.980   8.558  70.002  1.00  0.00    -0.196 A  
HETATM    5  C   UNL     1     -11.593   6.350  71.586  1.00  0.00    -0.363 A  
HETATM    6  N   UNL     1     -10.769   9.742  69.397  1.00  0.00    -0.220 NA 
HETATM    7  C   UNL     1     -12.168   7.555  72.013  1.00  0.00    -0.314 A  
HETATM    8  C   UNL     1     -11.829   8.682  71.240  1.00  0.00    -0.295 A  
HETATM    9  S   UNL     1     -11.533  10.892  70.320  1.00  0.00    -0.265 SA 
HETATM   10  N   UNL     1     -12.200   9.943  71.505  1.00  0.00    -0.394 NA 
ENDROOT
BRANCH   3  11
HETATM   11  N   UNL     1      -9.707   7.265  68.365  1.00  0.00    -0.146 NA 
HETATM   12  H   UNL     1      -8.983   7.977  68.270  1.00  0.00     0.000 HD 
BRANCH  11  13
HETATM   13  C   UNL     1      -9.830   6.393  67.328  1.00  0.00    -0.138 C  
HETATM   14  C   UNL     1      -8.900   5.167  65.647  1.00  0.00    -0.146 C  
HETATM   15  N   UNL     1      -8.633   6.090  66.734  1.00  0.00    -0.109 NA 
HETATM   16  C   UNL     1     -10.373   4.833  65.869  1.00  0.00    -0.270 C  
HETATM   17  N   UNL     1     -10.891   5.857  66.802  1.00  0.00    -0.307 NA 
ENDBRANCH  11  13
ENDBRANCH   3  11
TORSDOF 2
ENDMDL
MODEL      115
REMARK 921   NORMALIZED FREE ENERGY PREDICTED BY IDOCK:   -3.47 KCAL/MOL
REMARK 922        TOTAL FREE ENERGY PREDICTED BY IDOCK:   -4.22 KCAL/MOL
REMARK 923 INTER-LIGAND FREE ENERGY PREDICTED BY IDOCK:   -4.18 KCAL/MOL
REMARK 924 INTRA-LIGAND FREE ENERGY PREDICTED BY IDOCK:   -0.04 KCAL/MOL
REMARK 927      BINDING AFFINITY PREDICTED BY RF-SCORE:    0.00 PKD
ROOT
HETATM    1 CL   UNL     1      -8.303   9.309  68.339  1.00  0.00    -0.118 Cl 
HETATM    2  C   UNL     1      -9.619   9.697  69.410  1.00  0.00    -0.191 A  
HETATM    3  C   UNL     1      -9.969   8.868  70.513  1.00  0.00    -0.201 A  
HETATM    4  C   UNL     1     -11.259   9.181  71.056  1.00  0.00    -0.312 A  
HETATM    5  C   UNL     1     -10.387  10.818  68.978  1.00  0.00    -0.235 A  
HETATM    6  N   UNL     1     -11.870   8.492  72.039  1.00  0.00    -0.336 NA 
HETATM    7  C   UNL     1     -11.619  11.185  69.534  1.00  0.00    -0.392 A  
HETATM    8  C   UNL     1     -12.085  10.338  70.557  1.00  0.00    -0.310 A  
HETATM    9  S   UNL     1     -13.347   9.212  72.277  1.00  0.00    -0.480 SA 
HETATM   10  N   UNL     1     -13.269  10.450  71.178  1.00  0.00    -0.358 NA 
ENDROOT
BRANCH   3  11
HETATM   11  N   UNL     1      -9.246   7.796  71.059  1.00  0.00    -0.150 NA 
HETATM   12  H   UNL     1      -8.943   7.076  70.402  1.00  0.00     0.000 HD 
BRANCH  11  13
HETATM   13  C   UNL     1      -8.900   7.602  72.361  1.00  0.00    -0.134 C  
HETATM   14  C   UNL     1      -7.822   8.283  74.249  1.00  0.00    -0.233 C  
HETATM   15  N   UNL     1      -8.127   8.611  72.870  1.00  0.00    -0.406 NA 
HETATM   16  C   UNL     1      -8.717   7.070  74.491  1.00  0.00    -0.195 C  
HETATM   17  N   UNL     1      -9.149   6.604  73.156  1.00  0.00    -0.127 NA 
ENDBRANCH  11  13
ENDBRANCH   3  11
TORSDOF 2
ENDMDL
MODEL      116
REMARK 921   NORMALIZED FREE ENERGY PREDICTED BY IDOCK:   -3.47 KCAL/MOL
REMARK 922        TOTAL FREE ENERGY PREDICTED BY IDOCK:   -4.22 KCAL/MOL
REMARK 923 INTER-LIGAND FREE ENERGY PREDICTED BY IDOCK:   -3.88 KCAL/MOL
REMARK 924 INTRA-LIGAND FREE ENERGY PREDICTED BY IDOCK:   -0.33 KCAL/MOL
REMARK 927      BINDING AFFINITY PREDICTED BY RF-SCORE:    0.00 PKD
ROOT
HETATM    1 CL   UNL     1     -12.495  13.276  69.751  1.00  0.00    -0.159 Cl 
HETATM    2  C   UNL     1     -11.803  11.707  70.048  1.00  0.00    -0.355 A  
HETATM    3  C   UNL     1     -10.932  11.072  69.119  1.00  0.00    -0.237 A  
HETATM    4  C   UNL     1     -10.745   9.678  69.395  1.00  0.00    -0.228 A  
HETATM    5  C   UNL     1     -12.318  11.077  71.220  1.00  0.00    -0.426 A  
HETATM    6  N   UNL     1     -10.048   8.825  68.620  1.00  0.00    -0.184 NA 
HETATM    7  C   UNL     1     -12.096   9.733  71.548  1.00  0.00    -0.493 A  
HETATM    8  C   UNL     1     -11.336   9.009  70.610  1.00  0.00    -0.265 A  
HETATM    9  S   UNL     1     -10.163   7.330  69.336  1.00  0.00    -0.196 SA 
HETATM   10  N   UNL     1     -11.064   7.698  70.678  1.00  0.00    -0.254 NA 
ENDROOT
BRANCH   3  11
HETATM   11  N   UNL     1     -10.316  11.627  67.985  1.00  0.00    -0.186 NA 
HETATM   12  H   UNL     1     -10.661  11.303  67.082  1.00  0.00     0.000 HD 
BRANCH  11  13
HETATM   13  C   UNL     1      -9.313  12.546  67.949  1.00  0.00    -0.200 C  
HETATM   14  C   UNL     1      -8.559  14.640  67.458  1.00  0.00    -0.187 C  
HETATM   15  N   UNL     1      -9.712  13.759  67.453  1.00  0.00    -0.230 NA 
HETATM   16  C   UNL     1      -7.534  13.814  68.232  1.00  0.00    -0.120 C  
HETATM   17  N   UNL     1      -8.057  12.431  68.263  1.00  0.00    -0.161 NA 
ENDBRANCH  11  13
ENDBRANCH   3  11
TORSDOF 2
ENDMDL
MODEL      117
REMARK 921   NORMALIZED FREE ENERGY PREDICTED BY IDOCK:   -3.45 KCAL/MOL
REMARK 922        TOTAL FREE ENERGY PREDICTED BY IDOCK:   -4.20 KCAL/MOL
REMARK 923 INTER-LIGAND FREE ENERGY PREDICTED BY IDOCK:   -3.87 KCAL/MOL
REMARK 924 INTRA-LIGAND FREE ENERGY PREDICTED BY IDOCK:   -0.33 KCAL/MOL
REMARK 927      BINDING AFFINITY PREDICTED BY RF-SCORE:    0.00 PKD
ROOT
HETATM    1 CL   UNL     1     -10.908  15.880  67.710  1.00  0.00    -0.319 Cl 
HETATM    2  C   UNL     1     -11.159  14.534  66.635  1.00  0.00    -0.333 A  
HETATM    3  C   UNL     1     -10.079  13.843  66.018  1.00  0.00    -0.313 A  
HETATM    4  C   UNL     1     -10.502  13.004  64.935  1.00  0.00    -0.339 A  
HETATM    5  C   UNL     1     -12.533  14.310  66.324  1.00  0.00    -0.329 A  
HETATM    6  N   UNL     1      -9.676  12.315  64.125  1.00  0.00    -0.103 NA 
HETATM    7  C   UNL     1     -12.976  13.446  65.314  1.00  0.00    -0.258 A  
HETATM    8  C   UNL     1     -11.954  12.813  64.581  1.00  0.00    -0.396 A  
HETATM    9  S   UNL     1     -10.636  11.542  63.012  1.00  0.00    -0.001 SA 
HETATM   10  N   UNL     1     -12.142  12.008  63.526  1.00  0.00    -0.531 NA 
ENDROOT
BRANCH   3  11
HETATM   11  N   UNL     1      -8.708  13.938  66.307  1.00  0.00    -0.364 NA 
HETATM   12  H   UNL     1      -8.162  14.553  65.703  1.00  0.00     0.000 HD 
BRANCH  11  13
HETATM   13  C   UNL     1      -8.021  13.306  67.296  1.00  0.00    -0.125 C  
HETATM   14  C   UNL     1      -6.582  13.367  69.063  1.00  0.00    -0.107 C  
HETATM   15  N   UNL     1      -7.267  14.159  68.058  1.00  0.00    -0.125 NA 
HETATM   16  C   UNL     1      -7.237  11.999  68.887  1.00  0.00    -0.089 C  
HETATM   17  N   UNL     1      -7.939  12.041  67.586  1.00  0.00    -0.140 NA 
ENDBRANCH  11  13
ENDBRANCH   3  11
TORSDOF 2
ENDMDL
MODEL      118
REMARK 921   NORMALIZED FREE ENERGY PREDICTED BY IDOCK:   -3.45 KCAL/MOL
REMARK 922        TOTAL FREE ENERGY PREDICTED BY IDOCK:   -4.19 KCAL/MOL
REMARK 923 INTER-LIGAND FREE ENERGY PREDICTED BY IDOCK:   -3.88 KCAL/MOL
REMARK 924 INTRA-LIGAND FREE ENERGY PREDICTED BY IDOCK:   -0.32 KCAL/MOL
REMARK 927      BINDING AFFINITY PREDICTED BY RF-SCORE:    0.00 PKD
ROOT
HETATM    1 CL   UNL     1      -9.937   6.043  69.666  1.00  0.00    -0.202 Cl 
HETATM    2  C   UNL     1     -11.099   7.254  70.127  1.00  0.00    -0.258 A  
HETATM    3  C   UNL     1     -10.893   8.639  69.876  1.00  0.00    -0.208 A  
HETATM    4  C   UNL     1     -11.790   9.478  70.615  1.00  0.00    -0.233 A  
HETATM    5  C   UNL     1     -12.176   6.734  70.905  1.00  0.00    -0.386 A  
HETATM    6  N   UNL     1     -11.748  10.824  70.635  1.00  0.00    -0.342 NA 
HETATM    7  C   UNL     1     -13.106   7.531  71.584  1.00  0.00    -0.401 A  
HETATM    8  C   UNL     1     -12.894   8.919  71.475  1.00  0.00    -0.334 A  
HETATM    9  S   UNL     1     -12.953  11.323  71.663  1.00  0.00    -0.349 SA 
HETATM   10  N   UNL     1     -13.610   9.865  72.100  1.00  0.00    -0.371 NA 
ENDROOT
BRANCH   3  11
HETATM   11  N   UNL     1      -9.914   9.240  69.067  1.00  0.00    -0.176 NA 
HETATM   12  H   UNL     1     -10.186   9.439  68.105  1.00  0.00     0.000 HD 
BRANCH  11  13
HETATM   13  C   UNL     1      -8.645   9.588  69.416  1.00  0.00    -0.159 C  
HETATM   14  C   UNL     1      -6.644  10.554  68.910  1.00  0.00    -0.054 C  
HETATM   15  N   UNL     1      -7.976  10.249  68.420  1.00  0.00    -0.104 NA 
HETATM   16  C   UNL     1      -6.753  10.168  70.383  1.00  0.00    -0.132 C  
HETATM   17  N   UNL     1      -7.979   9.350  70.506  1.00  0.00    -0.166 NA 
ENDBRANCH  11  13
ENDBRANCH   3  11
TORSDOF 2
ENDMDL
MODEL      119
REMARK 921   NORMALIZED FREE ENERGY PREDICTED BY IDOCK:   -3.38 KCAL/MOL
REMARK 922        TOTAL FREE ENERGY PREDICTED BY IDOCK:   -4.12 KCAL/MOL
REMARK 923 INTER-LIGAND FREE ENERGY PREDICTED BY IDOCK:   -4.46 KCAL/MOL
REMARK 924 INTRA-LIGAND FREE ENERGY PREDICTED BY IDOCK:    0.34 KCAL/MOL
REMARK 927      BINDING AFFINITY PREDICTED BY RF-SCORE:    0.00 PKD
ROOT
HETATM    1 CL   UNL     1     -10.979  11.648  65.403  1.00  0.00    -0.347 Cl 
HETATM    2  C   UNL     1     -10.737  13.356  65.174  1.00  0.00    -0.330 A  
HETATM    3  C   UNL     1      -9.667  14.061  65.792  1.00  0.00    -0.194 A  
HETATM    4  C   UNL     1      -9.838  15.484  65.747  1.00  0.00    -0.357 A  
HETATM    5  C   UNL     1     -11.793  13.983  64.449  1.00  0.00    -0.453 A  
HETATM    6  N   UNL     1      -9.023  16.379  66.337  1.00  0.00    -0.278 NA 
HETATM    7  C   UNL     1     -11.948  15.370  64.333  1.00  0.00    -0.235 A  
HETATM    8  C   UNL     1     -10.986  16.136  65.020  1.00  0.00    -0.344 A  
HETATM    9  S   UNL     1      -9.666  17.880  66.036  1.00  0.00    -0.039 SA 
HETATM   10  N   UNL     1     -10.981  17.474  65.112  1.00  0.00    -0.606 NA 
ENDROOT
BRANCH   3  11
HETATM   11  N   UNL     1      -8.548  13.534  66.459  1.00  0.00    -0.429 NA 
HETATM   12  H   UNL     1      -8.138  12.693  66.053  1.00  0.00     0.000 HD 
BRANCH  11  13
HETATM   13  C   UNL     1      -7.947  14.013  67.581  1.00  0.00    -0.178 C  
HETATM   14  C   UNL     1      -6.119  14.867  68.641  1.00  0.00    -0.087 C  
HETATM   15  N   UNL     1      -6.645  14.388  67.377  1.00  0.00    -0.294 NA 
HETATM   16  C   UNL     1      -7.374  14.912  69.509  1.00  0.00    -0.178 C  
HETATM   17  N   UNL     1      -8.398  14.118  68.796  1.00  0.00    -0.114 NA 
ENDBRANCH  11  13
ENDBRANCH   3  11
TORSDOF 2
ENDMDL
MODEL      120
REMARK 921   NORMALIZED FREE ENERGY PREDICTED BY IDOCK:   -3.37 KCAL/MOL
REMARK 922        TOTAL FREE ENERGY PREDICTED BY IDOCK:   -4.11 KCAL/MOL
REMARK 923 INTER-LIGAND FREE ENERGY PREDICTED BY IDOCK:   -3.93 KCAL/MOL
REMARK 924 INTRA-LIGAND FREE ENERGY PREDICTED BY IDOCK:   -0.18 KCAL/MOL
REMARK 927      BINDING AFFINITY PREDICTED BY RF-SCORE:    0.00 PKD
ROOT
HETATM    1 CL   UNL     1     -11.205  10.866  66.350  1.00  0.00    -0.077 Cl 
HETATM    2  C   UNL     1     -10.980  12.469  65.712  1.00  0.00    -0.292 A  
HETATM    3  C   UNL     1     -10.212  13.456  66.390  1.00  0.00    -0.293 A  
HETATM    4  C   UNL     1     -10.424  14.777  65.875  1.00  0.00    -0.312 A  
HETATM    5  C   UNL     1     -11.761  12.727  64.546  1.00  0.00    -0.420 A  
HETATM    6  N   UNL     1      -9.895  15.902  66.395  1.00  0.00    -0.263 NA 
HETATM    7  C   UNL     1     -11.932  13.998  63.983  1.00  0.00    -0.388 A  
HETATM    8  C   UNL     1     -11.292  15.045  64.673  1.00  0.00    -0.352 A  
HETATM    9  S   UNL     1     -10.469  17.164  65.480  1.00  0.00    -0.018 SA 
HETATM   10  N   UNL     1     -11.379  16.347  64.361  1.00  0.00    -0.876 NA 
ENDROOT
BRANCH   3  11
HETATM   11  N   UNL     1      -9.358  13.287  67.492  1.00  0.00    -0.209 NA 
HETATM   12  H   UNL     1      -9.503  13.924  68.276  1.00  0.00     0.000 HD 
BRANCH  11  13
HETATM   13  C   UNL     1      -8.359  12.375  67.638  1.00  0.00    -0.169 C  
HETATM   14  C   UNL     1      -6.704  11.086  66.748  1.00  0.00    -0.128 C  
HETATM   15  N   UNL     1      -7.733  12.067  66.459  1.00  0.00     0.071 NA 
HETATM   16  C   UNL     1      -6.703  11.068  68.274  1.00  0.00    -0.059 C  
HETATM   17  N   UNL     1      -7.954  11.736  68.696  1.00  0.00    -0.140 NA 
ENDBRANCH  11  13
ENDBRANCH   3  11
TORSDOF 2
ENDMDL
MODEL      121
REMARK 921   NORMALIZED FREE ENERGY PREDICTED BY IDOCK:   -3.37 KCAL/MOL
REMARK 922        TOTAL FREE ENERGY PREDICTED BY IDOCK:   -4.10 KCAL/MOL
REMARK 923 INTER-LIGAND FREE ENERGY PREDICTED BY IDOCK:   -3.77 KCAL/MOL
REMARK 924 INTRA-LIGAND FREE ENERGY PREDICTED BY IDOCK:   -0.33 KCAL/MOL
REMARK 927      BINDING AFFINITY PREDICTED BY RF-SCORE:    0.00 PKD
ROOT
HETATM    1 CL   UNL     1      -9.508   8.196  73.171  1.00  0.00    -0.337 Cl 
HETATM    2  C   UNL     1      -9.977   8.145  71.496  1.00  0.00    -0.182 A  
HETATM    3  C   UNL     1     -10.666   7.035  70.933  1.00  0.00    -0.235 A  
HETATM    4  C   UNL     1     -10.662   7.046  69.500  1.00  0.00    -0.241 A  
HETATM    5  C   UNL     1      -9.465   9.238  70.734  1.00  0.00    -0.336 A  
HETATM    6  N   UNL     1     -11.159   6.067  68.719  1.00  0.00    -0.322 NA 
HETATM    7  C   UNL     1      -9.507   9.304  69.336  1.00  0.00    -0.169 A  
HETATM    8  C   UNL     1     -10.074   8.181  68.703  1.00  0.00    -0.196 A  
HETATM    9  S   UNL     1     -10.876   6.522  67.147  1.00  0.00    -0.405 SA 
HETATM   10  N   UNL     1     -10.148   7.994  67.377  1.00  0.00    -0.205 NA 
ENDROOT
BRANCH   3  11
HETATM   11  N   UNL     1     -11.268   5.956  71.601  1.00  0.00    -0.263 NA 
HETATM   12  H   UNL     1     -12.284   5.989  71.685  1.00  0.00     0.000 HD 
BRANCH  11  13
HETATM   13  C   UNL     1     -10.657   4.872  72.151  1.00  0.00    -0.164 C  
HETATM   14  C   UNL     1     -10.562   3.243  73.741  1.00  0.00    -0.191 C  
HETATM   15  N   UNL     1     -11.314   4.381  73.248  1.00  0.00    -0.274 NA 
HETATM   16  C   UNL     1      -9.531   3.041  72.634  1.00  0.00    -0.106 C  
HETATM   17  N   UNL     1      -9.547   4.279  71.824  1.00  0.00    -0.145 NA 
ENDBRANCH  11  13
ENDBRANCH   3  11
TORSDOF 2
ENDMDL
MODEL      122
REMARK 921   NORMALIZED FREE ENERGY PREDICTED BY IDOCK:   -3.37 KCAL/MOL
REMARK 922        TOTAL FREE ENERGY PREDICTED BY IDOCK:   -4.10 KCAL/MOL
REMARK 923 INTER-LIGAND FREE ENERGY PREDICTED BY IDOCK:   -3.78 KCAL/MOL
REMARK 924 INTRA-LIGAND FREE ENERGY PREDICTED BY IDOCK:   -0.32 KCAL/MOL
REMARK 927      BINDING AFFINITY PREDICTED BY RF-SCORE:    0.00 PKD
ROOT
HETATM    1 CL   UNL     1     -12.870   8.191  71.776  1.00  0.00    -0.337 Cl 
HETATM    2  C   UNL     1     -11.635   7.009  71.454  1.00  0.00    -0.292 A  
HETATM    3  C   UNL     1     -11.045   6.858  70.168  1.00  0.00    -0.299 A  
HETATM    4  C   UNL     1     -10.309   5.635  70.034  1.00  0.00    -0.275 A  
HETATM    5  C   UNL     1     -11.402   6.125  72.549  1.00  0.00    -0.328 A  
HETATM    6  N   UNL     1      -9.733   5.202  68.897  1.00  0.00    -0.144 NA 
HETATM    7  C   UNL     1     -10.633   4.957  72.463  1.00  0.00    -0.271 A  
HETATM    8  C   UNL     1     -10.110   4.682  71.185  1.00  0.00    -0.173 A  
HETATM    9  S   UNL     1      -9.048   3.729  69.240  1.00  0.00    -0.151 SA 
HETATM   10  N   UNL     1      -9.412   3.587  70.851  1.00  0.00    -0.155 NA 
ENDROOT
BRANCH   3  11
HETATM   11  N   UNL     1     -11.152   7.710  69.057  1.00  0.00    -0.424 NA 
HETATM   12  H   UNL     1     -11.715   7.367  68.279  1.00  0.00     0.000 HD 
BRANCH  11  13
HETATM   13  C   UNL     1     -10.593   8.940  68.895  1.00  0.00    -0.165 C  
HETATM   14  C   UNL     1      -9.397  10.426  67.649  1.00  0.00    -0.148 C  
HETATM   15  N   UNL     1      -9.953   9.087  67.693  1.00  0.00    -0.187 NA 
HETATM   16  C   UNL     1     -10.011  11.065  68.892  1.00  0.00    -0.188 C  
HETATM   17  N   UNL     1     -10.538   9.952  69.710  1.00  0.00    -0.245 NA 
ENDBRANCH  11  13
ENDBRANCH   3  11
TORSDOF 2
ENDMDL
MODEL      123
REMARK 921   NORMALIZED FREE ENERGY PREDICTED BY IDOCK:   -3.37 KCAL/MOL
REMARK 922        TOTAL FREE ENERGY PREDICTED BY IDOCK:   -4.10 KCAL/MOL
REMARK 923 INTER-LIGAND FREE ENERGY PREDICTED BY IDOCK:   -3.82 KCAL/MOL
REMARK 924 INTRA-LIGAND FREE ENERGY PREDICTED BY IDOCK:   -0.28 KCAL/MOL
REMARK 927      BINDING AFFINITY PREDICTED BY RF-SCORE:    0.00 PKD
ROOT
HETATM    1 CL   UNL     1     -10.265   9.531  67.943  1.00  0.00    -0.235 Cl 
HETATM    2  C   UNL     1      -9.455   8.708  69.245  1.00  0.00    -0.158 A  
HETATM    3  C   UNL     1      -9.798   8.922  70.609  1.00  0.00    -0.212 A  
HETATM    4  C   UNL     1      -8.811   8.414  71.517  1.00  0.00    -0.185 A  
HETATM    5  C   UNL     1      -8.334   7.938  68.814  1.00  0.00    -0.128 A  
HETATM    6  N   UNL     1      -8.842   8.567  72.855  1.00  0.00    -0.359 NA 
HETATM    7  C   UNL     1      -7.391   7.374  69.683  1.00  0.00    -0.091 A  
HETATM    8  C   UNL     1      -7.604   7.645  71.048  1.00  0.00    -0.083 A  
HETATM    9  S   UNL     1      -7.468   7.848  73.448  1.00  0.00    -0.150 SA 
HETATM   10  N   UNL     1      -6.790   7.274  72.048  1.00  0.00    -0.055 NA 
ENDROOT
BRANCH   3  11
HETATM   11  N   UNL     1     -10.915   9.596  71.130  1.00  0.00    -0.360 NA 
HETATM   12  H   UNL     1     -10.770  10.571  71.394  1.00  0.00     0.000 HD 
BRANCH  11  13
HETATM   13  C   UNL     1     -12.168   9.103  71.324  1.00  0.00    -0.327 C  
HETATM   14  C   UNL     1     -13.603   7.341  71.485  1.00  0.00    -0.356 C  
HETATM   15  N   UNL     1     -12.223   7.736  71.275  1.00  0.00    -0.311 NA 
HETATM   16  C   UNL     1     -14.255   8.664  71.878  1.00  0.00    -0.427 C  
HETATM   17  N   UNL     1     -13.297   9.725  71.496  1.00  0.00    -0.390 NA 
ENDBRANCH  11  13
ENDBRANCH   3  11
TORSDOF 2
ENDMDL
MODEL      124
REMARK 921   NORMALIZED FREE ENERGY PREDICTED BY IDOCK:   -3.36 KCAL/MOL
REMARK 922        TOTAL FREE ENERGY PREDICTED BY IDOCK:   -4.09 KCAL/MOL
REMARK 923 INTER-LIGAND FREE ENERGY PREDICTED BY IDOCK:   -3.75 KCAL/MOL
REMARK 924 INTRA-LIGAND FREE ENERGY PREDICTED BY IDOCK:   -0.34 KCAL/MOL
REMARK 927      BINDING AFFINITY PREDICTED BY RF-SCORE:    0.00 PKD
ROOT
HETATM    1 CL   UNL     1     -10.328   4.751  69.815  1.00  0.00    -0.224 Cl 
HETATM    2  C   UNL     1      -9.611   5.351  71.283  1.00  0.00    -0.157 A  
HETATM    3  C   UNL     1      -9.791   6.692  71.723  1.00  0.00    -0.161 A  
HETATM    4  C   UNL     1      -8.866   7.068  72.752  1.00  0.00    -0.122 A  
HETATM    5  C   UNL     1      -8.717   4.422  71.894  1.00  0.00    -0.131 A  
HETATM    6  N   UNL     1      -8.758   8.303  73.278  1.00  0.00    -0.279 NA 
HETATM    7  C   UNL     1      -7.849   4.746  72.945  1.00  0.00    -0.093 A  
HETATM    8  C   UNL     1      -7.890   6.092  73.357  1.00  0.00    -0.099 A  
HETATM    9  S   UNL     1      -7.525   8.241  74.389  1.00  0.00    -0.205 SA 
HETATM   10  N   UNL     1      -7.098   6.643  74.288  1.00  0.00    -0.094 NA 
ENDROOT
BRANCH   3  11
HETATM   11  N   UNL     1     -10.694   7.652  71.239  1.00  0.00    -0.227 NA 
HETATM   12  H   UNL     1     -10.312   8.345  70.596  1.00  0.00     0.000 HD 
BRANCH  11  13
HETATM   13  C   UNL     1     -12.019   7.768  71.527  1.00  0.00    -0.300 C  
HETATM   14  C   UNL     1     -13.787   9.001  72.266  1.00  0.00    -0.484 C  
HETATM   15  N   UNL     1     -12.363   9.011  71.990  1.00  0.00    -0.373 NA 
HETATM   16  C   UNL     1     -14.214   7.657  71.681  1.00  0.00    -0.454 C  
HETATM   17  N   UNL     1     -12.970   6.884  71.474  1.00  0.00    -0.347 NA 
ENDBRANCH  11  13
ENDBRANCH   3  11
TORSDOF 2
ENDMDL
MODEL      125
REMARK 921   NORMALIZED FREE ENERGY PREDICTED BY IDOCK:   -3.33 KCAL/MOL
REMARK 922        TOTAL FREE ENERGY PREDICTED BY IDOCK:   -4.07 KCAL/MOL
REMARK 923 INTER-LIGAND FREE ENERGY PREDICTED BY IDOCK:   -4.10 KCAL/MOL
REMARK 924 INTRA-LIGAND FREE ENERGY PREDICTED BY IDOCK:    0.04 KCAL/MOL
REMARK 927      BINDING AFFINITY PREDICTED BY RF-SCORE:    0.00 PKD
ROOT
HETATM    1 CL   UNL     1     -10.455  10.410  66.496  1.00  0.00    -0.285 Cl 
HETATM    2  C   UNL     1     -10.764  11.853  65.573  1.00  0.00    -0.283 A  
HETATM    3  C   UNL     1     -10.068  13.071  65.812  1.00  0.00    -0.287 A  
HETATM    4  C   UNL     1     -10.692  14.200  65.187  1.00  0.00    -0.388 A  
HETATM    5  C   UNL     1     -11.874  11.728  64.686  1.00  0.00    -0.203 A  
HETATM    6  N   UNL     1     -10.294  15.478  65.330  1.00  0.00    -0.379 NA 
HETATM    7  C   UNL     1     -12.462  12.805  64.011  1.00  0.00    -0.445 A  
HETATM    8  C   UNL     1     -11.895  14.063  64.291  1.00  0.00    -0.410 A  
HETATM    9  S   UNL     1     -11.355  16.408  64.454  1.00  0.00     0.315 SA 
HETATM   10  N   UNL     1     -12.342  15.237  63.821  1.00  0.00    -0.534 NA 
ENDROOT
BRANCH   3  11
HETATM   11  N   UNL     1      -8.926  13.278  66.604  1.00  0.00    -0.417 NA 
HETATM   12  H   UNL     1      -8.114  12.703  66.382  1.00  0.00     0.000 HD 
BRANCH  11  13
HETATM   13  C   UNL     1      -8.775  14.157  67.632  1.00  0.00    -0.187 C  
HETATM   14  C   UNL     1      -9.441  14.983  69.649  1.00  0.00    -0.014 C  
HETATM   15  N   UNL     1      -9.703  13.989  68.625  1.00  0.00    -0.211 NA 
HETATM   16  C   UNL     1      -8.109  15.570  69.185  1.00  0.00    -0.244 C  
HETATM   17  N   UNL     1      -7.932  15.135  67.783  1.00  0.00    -0.132 NA 
ENDBRANCH  11  13
ENDBRANCH   3  11
TORSDOF 2
ENDMDL
MODEL      126
REMARK 921   NORMALIZED FREE ENERGY PREDICTED BY IDOCK:   -3.31 KCAL/MOL
REMARK 922        TOTAL FREE ENERGY PREDICTED BY IDOCK:   -4.04 KCAL/MOL
REMARK 923 INTER-LIGAND FREE ENERGY PREDICTED BY IDOCK:   -3.72 KCAL/MOL
REMARK 924 INTRA-LIGAND FREE ENERGY PREDICTED BY IDOCK:   -0.32 KCAL/MOL
REMARK 927      BINDING AFFINITY PREDICTED BY RF-SCORE:    0.00 PKD
ROOT
HETATM    1 CL   UNL     1     -10.759   8.591  67.159  1.00  0.00    -0.299 Cl 
HETATM    2  C   UNL     1      -9.686   9.623  68.062  1.00  0.00    -0.146 A  
HETATM    3  C   UNL     1      -9.175  10.839  67.529  1.00  0.00    -0.143 A  
HETATM    4  C   UNL     1      -8.073  11.358  68.285  1.00  0.00    -0.143 A  
HETATM    5  C   UNL     1      -9.260   9.050  69.297  1.00  0.00    -0.145 A  
HETATM    6  N   UNL     1      -7.347  12.441  67.947  1.00  0.00    -0.100 NA 
HETATM    7  C   UNL     1      -8.229   9.572  70.087  1.00  0.00    -0.192 A  
HETATM    8  C   UNL     1      -7.597  10.716  69.562  1.00  0.00    -0.124 A  
HETATM    9  S   UNL     1      -6.167  12.603  69.104  1.00  0.00    -0.104 SA 
HETATM   10  N   UNL     1      -6.541  11.338  70.107  1.00  0.00    -0.183 NA 
ENDROOT
BRANCH   3  11
HETATM   11  N   UNL     1      -9.581  11.518  66.369  1.00  0.00    -0.203 NA 
HETATM   12  H   UNL     1      -9.064  11.301  65.516  1.00  0.00     0.000 HD 
BRANCH  11  13
HETATM   13  C   UNL     1     -10.581  12.433  66.246  1.00  0.00    -0.249 C  
HETATM   14  C   UNL     1     -11.299  14.596  66.221  1.00  0.00    -0.347 C  
HETATM   15  N   UNL     1     -10.145  13.727  66.359  1.00  0.00    -0.287 NA 
HETATM   16  C   UNL     1     -12.386  13.612  65.793  1.00  0.00    -0.482 C  
HETATM   17  N   UNL     1     -11.860  12.262  66.089  1.00  0.00    -0.574 NA 
ENDBRANCH  11  13
ENDBRANCH   3  11
TORSDOF 2
ENDMDL
MODEL      127
REMARK 921   NORMALIZED FREE ENERGY PREDICTED BY IDOCK:   -3.30 KCAL/MOL
REMARK 922        TOTAL FREE ENERGY PREDICTED BY IDOCK:   -4.03 KCAL/MOL
REMARK 923 INTER-LIGAND FREE ENERGY PREDICTED BY IDOCK:   -3.75 KCAL/MOL
REMARK 924 INTRA-LIGAND FREE ENERGY PREDICTED BY IDOCK:   -0.28 KCAL/MOL
REMARK 927      BINDING AFFINITY PREDICTED BY RF-SCORE:    0.00 PKD
ROOT
HETATM    1 CL   UNL     1     -11.152   6.416  70.638  1.00  0.00    -0.350 Cl 
HETATM    2  C   UNL     1     -10.381   5.558  69.335  1.00  0.00    -0.278 A  
HETATM    3  C   UNL     1     -10.511   5.962  67.977  1.00  0.00    -0.234 A  
HETATM    4  C   UNL     1     -10.085   4.951  67.053  1.00  0.00    -0.205 A  
HETATM    5  C   UNL     1      -9.753   4.346  69.752  1.00  0.00    -0.291 A  
HETATM    6  N   UNL     1     -10.190   5.038  65.713  1.00  0.00    -0.153 NA 
HETATM    7  C   UNL     1      -9.269   3.372  68.870  1.00  0.00    -0.229 A  
HETATM    8  C   UNL     1      -9.469   3.652  67.505  1.00  0.00    -0.191 A  
HETATM    9  S   UNL     1      -9.607   3.610  65.097  1.00  0.00    -0.151 SA 
HETATM   10  N   UNL     1      -9.158   2.832  66.491  1.00  0.00    -0.149 NA 
ENDROOT
BRANCH   3  11
HETATM   11  N   UNL     1     -11.041   7.161  67.473  1.00  0.00    -0.568 NA 
HETATM   12  H   UNL     1     -12.019   7.135  67.184  1.00  0.00     0.000 HD 
BRANCH  11  13
HETATM   13  C   UNL     1     -10.404   8.354  67.325  1.00  0.00    -0.299 C  
HETATM   14  C   UNL     1      -8.484   9.575  67.190  1.00  0.00    -0.131 C  
HETATM   15  N   UNL     1      -9.039   8.243  67.347  1.00  0.00    -0.139 NA 
HETATM   16  C   UNL     1      -9.726  10.397  66.855  1.00  0.00    -0.181 C  
HETATM   17  N   UNL     1     -10.888   9.556  67.215  1.00  0.00    -0.202 NA 
ENDBRANCH  11  13
ENDBRANCH   3  11
TORSDOF 2
ENDMDL
MODEL      128
REMARK 921   NORMALIZED FREE ENERGY PREDICTED BY IDOCK:   -3.30 KCAL/MOL
REMARK 922        TOTAL FREE ENERGY PREDICTED BY IDOCK:   -4.02 KCAL/MOL
REMARK 923 INTER-LIGAND FREE ENERGY PREDICTED BY IDOCK:   -3.77 KCAL/MOL
REMARK 924 INTRA-LIGAND FREE ENERGY PREDICTED BY IDOCK:   -0.26 KCAL/MOL
REMARK 927      BINDING AFFINITY PREDICTED BY RF-SCORE:    0.00 PKD
ROOT
HETATM    1 CL   UNL     1     -10.404   8.698  72.537  1.00  0.00    -0.317 Cl 
HETATM    2  C   UNL     1     -10.915   9.555  71.111  1.00  0.00    -0.368 A  
HETATM    3  C   UNL     1     -10.152   9.554  69.910  1.00  0.00    -0.232 A  
HETATM    4  C   UNL     1     -10.568  10.568  68.986  1.00  0.00    -0.222 A  
HETATM    5  C   UNL     1     -12.069  10.366  71.324  1.00  0.00    -0.461 A  
HETATM    6  N   UNL     1      -9.957  10.846  67.818  1.00  0.00    -0.173 NA 
HETATM    7  C   UNL     1     -12.535  11.319  70.409  1.00  0.00    -0.355 A  
HETATM    8  C   UNL     1     -11.759  11.455  69.243  1.00  0.00    -0.337 A  
HETATM    9  S   UNL     1     -10.780  12.119  67.141  1.00  0.00    -0.241 SA 
HETATM   10  N   UNL     1     -11.971  12.353  68.270  1.00  0.00    -0.333 NA 
ENDROOT
BRANCH   3  11
HETATM   11  N   UNL     1      -9.054   8.743  69.578  1.00  0.00    -0.144 NA 
HETATM   12  H   UNL     1      -9.272   7.798  69.263  1.00  0.00     0.000 HD 
BRANCH  11  13
HETATM   13  C   UNL     1      -7.734   9.070  69.627  1.00  0.00    -0.075 C  
HETATM   14  C   UNL     1      -5.969  10.041  70.692  1.00  0.00    -0.094 C  
HETATM   15  N   UNL     1      -7.388   9.746  70.766  1.00  0.00    -0.318 NA 
HETATM   16  C   UNL     1      -5.544   9.239  69.464  1.00  0.00    -0.034 C  
HETATM   17  N   UNL     1      -6.790   8.881  68.753  1.00  0.00    -0.061 NA 
ENDBRANCH  11  13
ENDBRANCH   3  11
TORSDOF 2
ENDMDL
MODEL      129
REMARK 921   NORMALIZED FREE ENERGY PREDICTED BY IDOCK:   -3.29 KCAL/MOL
REMARK 922        TOTAL FREE ENERGY PREDICTED BY IDOCK:   -4.02 KCAL/MOL
REMARK 923 INTER-LIGAND FREE ENERGY PREDICTED BY IDOCK:   -3.77 KCAL/MOL
REMARK 924 INTRA-LIGAND FREE ENERGY PREDICTED BY IDOCK:   -0.25 KCAL/MOL
REMARK 927      BINDING AFFINITY PREDICTED BY RF-SCORE:    0.00 PKD
ROOT
HETATM    1 CL   UNL     1      -9.755  11.873  67.155  1.00  0.00    -0.189 Cl 
HETATM    2  C   UNL     1     -10.499  11.472  68.676  1.00  0.00    -0.202 A  
HETATM    3  C   UNL     1     -10.550  10.139  69.170  1.00  0.00    -0.224 A  
HETATM    4  C   UNL     1     -11.478   9.980  70.251  1.00  0.00    -0.300 A  
HETATM    5  C   UNL     1     -11.176  12.574  69.280  1.00  0.00    -0.256 A  
HETATM    6  N   UNL     1     -11.787   8.807  70.836  1.00  0.00    -0.265 NA 
HETATM    7  C   UNL     1     -12.037  12.456  70.378  1.00  0.00    -0.381 A  
HETATM    8  C   UNL     1     -12.226  11.143  70.849  1.00  0.00    -0.364 A  
HETATM    9  S   UNL     1     -12.932   9.140  71.992  1.00  0.00    -0.451 SA 
HETATM   10  N   UNL     1     -13.061  10.785  71.836  1.00  0.00    -0.494 NA 
ENDROOT
BRANCH   3  11
HETATM   11  N   UNL     1      -9.864   9.009  68.694  1.00  0.00    -0.161 NA 
HETATM   12  H   UNL     1     -10.213   8.603  67.826  1.00  0.00     0.000 HD 
BRANCH  11  13
HETATM   13  C   UNL     1      -8.788   8.392  69.253  1.00  0.00    -0.142 C  
HETATM   14  C   UNL     1      -6.731   8.491  70.229  1.00  0.00    -0.039 C  
HETATM   15  N   UNL     1      -7.818   9.268  69.665  1.00  0.00    -0.082 NA 
HETATM   16  C   UNL     1      -7.334   7.089  70.274  1.00  0.00    -0.084 C  
HETATM   17  N   UNL     1      -8.531   7.127  69.407  1.00  0.00    -0.133 NA 
ENDBRANCH  11  13
ENDBRANCH   3  11
TORSDOF 2
ENDMDL
MODEL      130
REMARK 921   NORMALIZED FREE ENERGY PREDICTED BY IDOCK:   -3.23 KCAL/MOL
REMARK 922        TOTAL FREE ENERGY PREDICTED BY IDOCK:   -3.95 KCAL/MOL
REMARK 923 INTER-LIGAND FREE ENERGY PREDICTED BY IDOCK:   -3.64 KCAL/MOL
REMARK 924 INTRA-LIGAND FREE ENERGY PREDICTED BY IDOCK:   -0.31 KCAL/MOL
REMARK 927      BINDING AFFINITY PREDICTED BY RF-SCORE:    0.00 PKD
ROOT
HETATM    1 CL   UNL     1      -7.982   7.287  69.446  1.00  0.00    -0.122 Cl 
HETATM    2  C   UNL     1      -9.196   8.469  69.842  1.00  0.00    -0.154 A  
HETATM    3  C   UNL     1      -9.881   8.466  71.090  1.00  0.00    -0.192 A  
HETATM    4  C   UNL     1     -11.049   9.297  71.085  1.00  0.00    -0.341 A  
HETATM    5  C   UNL     1      -9.534   9.319  68.747  1.00  0.00    -0.150 A  
HETATM    6  N   UNL     1     -11.926   9.401  72.102  1.00  0.00    -0.269 NA 
HETATM    7  C   UNL     1     -10.632  10.189  68.741  1.00  0.00    -0.236 A  
HETATM    8  C   UNL     1     -11.425  10.154  69.904  1.00  0.00    -0.254 A  
HETATM    9  S   UNL     1     -13.118  10.441  71.598  1.00  0.00    -0.441 SA 
HETATM   10  N   UNL     1     -12.562  10.841  70.088  1.00  0.00    -0.299 NA 
ENDROOT
BRANCH   3  11
HETATM   11  N   UNL     1      -9.579   7.727  72.245  1.00  0.00    -0.163 NA 
HETATM   12  H   UNL     1      -8.969   8.182  72.924  1.00  0.00     0.000 HD 
BRANCH  11  13
HETATM   13  C   UNL     1     -10.004   6.475  72.567  1.00  0.00    -0.170 C  
HETATM   14  C   UNL     1      -9.557   4.312  73.126  1.00  0.00    -0.123 C  
HETATM   15  N   UNL     1      -8.976   5.602  72.807  1.00  0.00    -0.125 NA 
HETATM   16  C   UNL     1     -11.040   4.654  73.248  1.00  0.00    -0.321 C  
HETATM   17  N   UNL     1     -11.208   5.988  72.632  1.00  0.00    -0.278 NA 
ENDBRANCH  11  13
ENDBRANCH   3  11
TORSDOF 2
ENDMDL
MODEL      131
REMARK 921   NORMALIZED FREE ENERGY PREDICTED BY IDOCK:   -3.23 KCAL/MOL
REMARK 922        TOTAL FREE ENERGY PREDICTED BY IDOCK:   -3.95 KCAL/MOL
REMARK 923 INTER-LIGAND FREE ENERGY PREDICTED BY IDOCK:   -3.65 KCAL/MOL
REMARK 924 INTRA-LIGAND FREE ENERGY PREDICTED BY IDOCK:   -0.29 KCAL/MOL
REMARK 927      BINDING AFFINITY PREDICTED BY RF-SCORE:    0.00 PKD
ROOT
HETATM    1 CL   UNL     1      -9.946  10.579  69.376  1.00  0.00    -0.239 Cl 
HETATM    2  C   UNL     1      -9.972   9.196  68.319  1.00  0.00    -0.175 A  
HETATM    3  C   UNL     1     -10.595   7.971  68.686  1.00  0.00    -0.109 A  
HETATM    4  C   UNL     1     -10.222   6.880  67.834  1.00  0.00    -0.174 A  
HETATM    5  C   UNL     1      -9.182   9.371  67.144  1.00  0.00    -0.159 A  
HETATM    6  N   UNL     1     -10.592   5.598  68.015  1.00  0.00    -0.213 NA 
HETATM    7  C   UNL     1      -8.857   8.335  66.259  1.00  0.00    -0.192 A  
HETATM    8  C   UNL     1      -9.345   7.065  66.622  1.00  0.00    -0.165 A  
HETATM    9  S   UNL     1      -9.874   4.719  66.803  1.00  0.00    -0.226 SA 
HETATM   10  N   UNL     1      -9.095   5.921  65.969  1.00  0.00    -0.155 NA 
ENDROOT
BRANCH   3  11
HETATM   11  N   UNL     1     -11.447   7.721  69.774  1.00  0.00    -0.444 NA 
HETATM   12  H   UNL     1     -12.439   7.904  69.621  1.00  0.00     0.000 HD 
BRANCH  11  13
HETATM   13  C   UNL     1     -11.107   7.263  71.009  1.00  0.00    -0.258 C  
HETATM   14  C   UNL     1     -10.306   7.634  73.110  1.00  0.00    -0.352 C  
HETATM   15  N   UNL     1     -10.640   8.248  71.839  1.00  0.00    -0.259 NA 
HETATM   16  C   UNL     1     -10.863   6.223  72.936  1.00  0.00    -0.256 C  
HETATM   17  N   UNL     1     -11.115   6.055  71.488  1.00  0.00    -0.278 NA 
ENDBRANCH  11  13
ENDBRANCH   3  11
TORSDOF 2
ENDMDL
MODEL      132
REMARK 921   NORMALIZED FREE ENERGY PREDICTED BY IDOCK:   -3.21 KCAL/MOL
REMARK 922        TOTAL FREE ENERGY PREDICTED BY IDOCK:   -3.93 KCAL/MOL
REMARK 923 INTER-LIGAND FREE ENERGY PREDICTED BY IDOCK:   -3.60 KCAL/MOL
REMARK 924 INTRA-LIGAND FREE ENERGY PREDICTED BY IDOCK:   -0.33 KCAL/MOL
REMARK 927      BINDING AFFINITY PREDICTED BY RF-SCORE:    0.00 PKD
ROOT
HETATM    1 CL   UNL     1      -7.119   6.389  69.831  1.00  0.00    -0.070 Cl 
HETATM    2  C   UNL     1      -8.560   6.851  70.690  1.00  0.00    -0.141 A  
HETATM    3  C   UNL     1      -9.821   6.242  70.441  1.00  0.00    -0.176 A  
HETATM    4  C   UNL     1     -10.916   6.980  71.000  1.00  0.00    -0.251 A  
HETATM    5  C   UNL     1      -8.373   7.987  71.533  1.00  0.00    -0.139 A  
HETATM    6  N   UNL     1     -12.217   6.676  70.831  1.00  0.00    -0.337 NA 
HETATM    7  C   UNL     1      -9.421   8.687  72.145  1.00  0.00    -0.373 A  
HETATM    8  C   UNL     1     -10.711   8.208  71.848  1.00  0.00    -0.265 A  
HETATM    9  S   UNL     1     -13.085   7.845  71.629  1.00  0.00    -0.310 SA 
HETATM   10  N   UNL     1     -11.859   8.766  72.259  1.00  0.00    -0.356 NA 
ENDROOT
BRANCH   3  11
HETATM   11  N   UNL     1     -10.095   5.085  69.693  1.00  0.00    -0.241 NA 
HETATM   12  H   UNL     1     -10.402   4.269  70.222  1.00  0.00     0.000 HD 
BRANCH  11  13
HETATM   13  C   UNL     1     -10.000   4.923  68.345  1.00  0.00    -0.115 C  
HETATM   14  C   UNL     1      -9.244   3.763  66.535  1.00  0.00    -0.167 C  
HETATM   15  N   UNL     1      -9.279   3.816  67.985  1.00  0.00    -0.152 NA 
HETATM   16  C   UNL     1     -10.231   4.863  66.155  1.00  0.00    -0.277 C  
HETATM   17  N   UNL     1     -10.440   5.670  67.377  1.00  0.00    -0.233 NA 
ENDBRANCH  11  13
ENDBRANCH   3  11
TORSDOF 2
ENDMDL
MODEL      133
REMARK 921   NORMALIZED FREE ENERGY PREDICTED BY IDOCK:   -3.20 KCAL/MOL
REMARK 922        TOTAL FREE ENERGY PREDICTED BY IDOCK:   -3.92 KCAL/MOL
REMARK 923 INTER-LIGAND FREE ENERGY PREDICTED BY IDOCK:   -3.58 KCAL/MOL
REMARK 924 INTRA-LIGAND FREE ENERGY PREDICTED BY IDOCK:   -0.33 KCAL/MOL
REMARK 927      BINDING AFFINITY PREDICTED BY RF-SCORE:    0.00 PKD
ROOT
HETATM    1 CL   UNL     1      -7.028  13.481  67.416  1.00  0.00    -0.152 Cl 
HETATM    2  C   UNL     1      -7.316  11.780  67.188  1.00  0.00    -0.146 A  
HETATM    3  C   UNL     1      -8.425  11.290  66.444  1.00  0.00    -0.169 A  
HETATM    4  C   UNL     1      -8.662   9.892  66.653  1.00  0.00    -0.128 A  
HETATM    5  C   UNL     1      -6.432  10.952  67.943  1.00  0.00    -0.062 A  
HETATM    6  N   UNL     1      -9.701   9.201  66.146  1.00  0.00    -0.270 NA 
HETATM    7  C   UNL     1      -6.604   9.572  68.110  1.00  0.00    -0.062 A  
HETATM    8  C   UNL     1      -7.751   9.036  67.495  1.00  0.00    -0.096 A  
HETATM    9  S   UNL     1      -9.557   7.645  66.708  1.00  0.00    -0.218 SA 
HETATM   10  N   UNL     1      -8.156   7.760  67.585  1.00  0.00    -0.123 NA 
ENDROOT
BRANCH   3  11
HETATM   11  N   UNL     1      -9.301  12.010  65.615  1.00  0.00    -0.412 NA 
HETATM   12  H   UNL     1      -9.110  11.967  64.613  1.00  0.00     0.000 HD 
BRANCH  11  13
HETATM   13  C   UNL     1     -10.375  12.757  65.988  1.00  0.00    -0.276 C  
HETATM   14  C   UNL     1     -12.466  13.567  65.580  1.00  0.00    -0.479 C  
HETATM   15  N   UNL     1     -11.394  12.731  65.072  1.00  0.00    -0.301 NA 
HETATM   16  C   UNL     1     -11.986  13.871  66.997  1.00  0.00    -0.424 C  
HETATM   17  N   UNL     1     -10.553  13.508  67.034  1.00  0.00    -0.268 NA 
ENDBRANCH  11  13
ENDBRANCH   3  11
TORSDOF 2
ENDMDL
MODEL      134
REMARK 921   NORMALIZED FREE ENERGY PREDICTED BY IDOCK:   -3.14 KCAL/MOL
REMARK 922        TOTAL FREE ENERGY PREDICTED BY IDOCK:   -3.85 KCAL/MOL
REMARK 923 INTER-LIGAND FREE ENERGY PREDICTED BY IDOCK:   -3.55 KCAL/MOL
REMARK 924 INTRA-LIGAND FREE ENERGY PREDICTED BY IDOCK:   -0.30 KCAL/MOL
REMARK 927      BINDING AFFINITY PREDICTED BY RF-SCORE:    0.00 PKD
ROOT
HETATM    1 CL   UNL     1     -10.812   9.689  67.199  1.00  0.00    -0.260 Cl 
HETATM    2  C   UNL     1      -9.464   9.122  68.142  1.00  0.00    -0.142 A  
HETATM    3  C   UNL     1      -9.246   9.542  69.484  1.00  0.00    -0.189 A  
HETATM    4  C   UNL     1      -7.930   9.229  69.958  1.00  0.00    -0.121 A  
HETATM    5  C   UNL     1      -8.538   8.340  67.390  1.00  0.00    -0.125 A  
HETATM    6  N   UNL     1      -7.433   9.597  71.155  1.00  0.00    -0.295 NA 
HETATM    7  C   UNL     1      -7.271   7.965  67.854  1.00  0.00    -0.091 A  
HETATM    8  C   UNL     1      -6.941   8.445  69.135  1.00  0.00    -0.059 A  
HETATM    9  S   UNL     1      -5.869   9.041  71.213  1.00  0.00    -0.060 SA 
HETATM   10  N   UNL     1      -5.759   8.276  69.746  1.00  0.00    -0.026 NA 
ENDROOT
BRANCH   3  11
HETATM   11  N   UNL     1     -10.122  10.244  70.329  1.00  0.00    -0.410 NA 
HETATM   12  H   UNL     1      -9.903  11.228  70.485  1.00  0.00     0.000 HD 
BRANCH  11  13
HETATM   13  C   UNL     1     -11.228   9.768  70.963  1.00  0.00    -0.381 C  
HETATM   14  C   UNL     1     -13.305  10.094  71.840  1.00  0.00    -0.402 C  
HETATM   15  N   UNL     1     -12.193  10.722  71.152  1.00  0.00    -0.358 NA 
HETATM   16  C   UNL     1     -12.911   8.620  71.801  1.00  0.00    -0.359 C  
HETATM   17  N   UNL     1     -11.476   8.586  71.444  1.00  0.00    -0.273 NA 
ENDBRANCH  11  13
ENDBRANCH   3  11
TORSDOF 2
ENDMDL
MODEL      135
REMARK 921   NORMALIZED FREE ENERGY PREDICTED BY IDOCK:   -3.08 KCAL/MOL
REMARK 922        TOTAL FREE ENERGY PREDICTED BY IDOCK:   -3.78 KCAL/MOL
REMARK 923 INTER-LIGAND FREE ENERGY PREDICTED BY IDOCK:   -3.63 KCAL/MOL
REMARK 924 INTRA-LIGAND FREE ENERGY PREDICTED BY IDOCK:   -0.16 KCAL/MOL
REMARK 927      BINDING AFFINITY PREDICTED BY RF-SCORE:    0.00 PKD
ROOT
HETATM    1 CL   UNL     1     -10.469  10.506  69.387  1.00  0.00    -0.251 Cl 
HETATM    2  C   UNL     1     -10.766  10.827  67.703  1.00  0.00    -0.258 A  
HETATM    3  C   UNL     1     -10.123  10.096  66.665  1.00  0.00    -0.223 A  
HETATM    4  C   UNL     1     -10.247  10.725  65.383  1.00  0.00    -0.276 A  
HETATM    5  C   UNL     1     -11.579  11.979  67.484  1.00  0.00    -0.401 A  
HETATM    6  N   UNL     1      -9.655  10.295  64.252  1.00  0.00    -0.301 NA 
HETATM    7  C   UNL     1     -11.770  12.575  66.231  1.00  0.00    -0.462 A  
HETATM    8  C   UNL     1     -11.068  11.971  65.171  1.00  0.00    -0.318 A  
HETATM    9  S   UNL     1     -10.064  11.376  63.060  1.00  0.00    -0.232 SA 
HETATM   10  N   UNL     1     -11.040  12.415  63.906  1.00  0.00    -0.378 NA 
ENDROOT
BRANCH   3  11
HETATM   11  N   UNL     1      -9.370   8.916  66.771  1.00  0.00    -0.163 NA 
HETATM   12  H   UNL     1      -9.901   8.052  66.887  1.00  0.00     0.000 HD 
BRANCH  11  13
HETATM   13  C   UNL     1      -8.016   8.786  66.738  1.00  0.00    -0.097 C  
HETATM   14  C   UNL     1      -5.932   9.682  66.962  1.00  0.00    -0.055 C  
HETATM   15  N   UNL     1      -7.356   9.949  67.040  1.00  0.00    -0.091 NA 
HETATM   16  C   UNL     1      -5.903   8.164  66.797  1.00  0.00    -0.048 C  
HETATM   17  N   UNL     1      -7.277   7.763  66.426  1.00  0.00    -0.074 NA 
ENDBRANCH  11  13
ENDBRANCH   3  11
TORSDOF 2
ENDMDL
MODEL      136
REMARK 921   NORMALIZED FREE ENERGY PREDICTED BY IDOCK:   -3.07 KCAL/MOL
REMARK 922        TOTAL FREE ENERGY PREDICTED BY IDOCK:   -3.77 KCAL/MOL
REMARK 923 INTER-LIGAND FREE ENERGY PREDICTED BY IDOCK:   -3.43 KCAL/MOL
REMARK 924 INTRA-LIGAND FREE ENERGY PREDICTED BY IDOCK:   -0.33 KCAL/MOL
REMARK 927      BINDING AFFINITY PREDICTED BY RF-SCORE:    0.00 PKD
ROOT
HETATM    1 CL   UNL     1     -10.355   8.698  67.658  1.00  0.00    -0.302 Cl 
HETATM    2  C   UNL     1     -10.212   8.120  69.293  1.00  0.00    -0.214 A  
HETATM    3  C   UNL     1     -10.422   6.755  69.637  1.00  0.00    -0.214 A  
HETATM    4  C   UNL     1     -10.582   6.555  71.048  1.00  0.00    -0.231 A  
HETATM    5  C   UNL     1     -10.026   9.165  70.246  1.00  0.00    -0.246 A  
HETATM    6  N   UNL     1     -10.885   5.380  71.631  1.00  0.00    -0.203 NA 
HETATM    7  C   UNL     1     -10.112   8.984  71.633  1.00  0.00    -0.405 A  
HETATM    8  C   UNL     1     -10.433   7.676  72.044  1.00  0.00    -0.213 A  
HETATM    9  S   UNL     1     -11.006   5.674  73.261  1.00  0.00    -0.241 SA 
HETATM   10  N   UNL     1     -10.642   7.291  73.311  1.00  0.00    -0.351 NA 
ENDROOT
BRANCH   3  11
HETATM   11  N   UNL     1     -10.539   5.650  68.778  1.00  0.00    -0.230 NA 
HETATM   12  H   UNL     1     -11.477   5.447  68.432  1.00  0.00     0.000 HD 
BRANCH  11  13
HETATM   13  C   UNL     1      -9.550   4.818  68.353  1.00  0.00    -0.151 C  
HETATM   14  C   UNL     1      -7.748   4.396  67.023  1.00  0.00    -0.089 C  
HETATM   15  N   UNL     1      -8.748   5.380  67.396  1.00  0.00    -0.108 NA 
HETATM   16  C   UNL     1      -7.976   3.303  68.065  1.00  0.00    -0.070 C  
HETATM   17  N   UNL     1      -9.293   3.586  68.678  1.00  0.00    -0.165 NA 
ENDBRANCH  11  13
ENDBRANCH   3  11
TORSDOF 2
ENDMDL
MODEL      137
REMARK 921   NORMALIZED FREE ENERGY PREDICTED BY IDOCK:   -3.06 KCAL/MOL
REMARK 922        TOTAL FREE ENERGY PREDICTED BY IDOCK:   -3.76 KCAL/MOL
REMARK 923 INTER-LIGAND FREE ENERGY PREDICTED BY IDOCK:   -3.51 KCAL/MOL
REMARK 924 INTRA-LIGAND FREE ENERGY PREDICTED BY IDOCK:   -0.25 KCAL/MOL
REMARK 927      BINDING AFFINITY PREDICTED BY RF-SCORE:    0.00 PKD
ROOT
HETATM    1 CL   UNL     1      -8.527   8.484  70.516  1.00  0.00    -0.129 Cl 
HETATM    2  C   UNL     1      -9.685   9.648  69.940  1.00  0.00    -0.231 A  
HETATM    3  C   UNL     1      -9.406  10.524  68.854  1.00  0.00    -0.187 A  
HETATM    4  C   UNL     1     -10.341  11.606  68.757  1.00  0.00    -0.195 A  
HETATM    5  C   UNL     1     -10.851   9.736  70.758  1.00  0.00    -0.403 A  
HETATM    6  N   UNL     1     -10.254  12.625  67.881  1.00  0.00    -0.215 NA 
HETATM    7  C   UNL     1     -11.814  10.745  70.641  1.00  0.00    -0.460 A  
HETATM    8  C   UNL     1     -11.543  11.717  69.659  1.00  0.00    -0.330 A  
HETATM    9  S   UNL     1     -11.536  13.633  68.194  1.00  0.00    -0.335 SA 
HETATM   10  N   UNL     1     -12.283  12.810  69.424  1.00  0.00    -0.157 NA 
ENDROOT
BRANCH   3  11
HETATM   11  N   UNL     1      -8.332  10.473  67.950  1.00  0.00    -0.114 NA 
HETATM   12  H   UNL     1      -7.437  10.824  68.294  1.00  0.00     0.000 HD 
BRANCH  11  13
HETATM   13  C   UNL     1      -8.342  10.012  66.670  1.00  0.00    -0.125 C  
HETATM   14  C   UNL     1      -7.448   9.956  64.575  1.00  0.00    -0.140 C  
HETATM   15  N   UNL     1      -7.320  10.512  65.908  1.00  0.00    -0.142 NA 
HETATM   16  C   UNL     1      -8.545   8.912  64.772  1.00  0.00    -0.158 C  
HETATM   17  N   UNL     1      -9.184   9.225  66.068  1.00  0.00    -0.189 NA 
ENDBRANCH  11  13
ENDBRANCH   3  11
TORSDOF 2
ENDMDL
MODEL      138
REMARK 921   NORMALIZED FREE ENERGY PREDICTED BY IDOCK:   -2.99 KCAL/MOL
REMARK 922        TOTAL FREE ENERGY PREDICTED BY IDOCK:   -3.68 KCAL/MOL
REMARK 923 INTER-LIGAND FREE ENERGY PREDICTED BY IDOCK:   -3.33 KCAL/MOL
REMARK 924 INTRA-LIGAND FREE ENERGY PREDICTED BY IDOCK:   -0.35 KCAL/MOL
REMARK 927      BINDING AFFINITY PREDICTED BY RF-SCORE:    0.00 PKD
ROOT
HETATM    1 CL   UNL     1      -8.303   8.168  70.272  1.00  0.00    -0.122 Cl 
HETATM    2  C   UNL     1      -9.465   9.045  69.319  1.00  0.00    -0.157 A  
HETATM    3  C   UNL     1      -9.222   9.400  67.963  1.00  0.00    -0.130 A  
HETATM    4  C   UNL     1     -10.140  10.387  67.473  1.00  0.00    -0.192 A  
HETATM    5  C   UNL     1     -10.588   9.497  70.075  1.00  0.00    -0.280 A  
HETATM    6  N   UNL     1     -10.076  10.965  66.258  1.00  0.00    -0.226 NA 
HETATM    7  C   UNL     1     -11.536  10.411  69.597  1.00  0.00    -0.326 A  
HETATM    8  C   UNL     1     -11.294  10.896  68.298  1.00  0.00    -0.308 A  
HETATM    9  S   UNL     1     -11.321  12.062  66.186  1.00  0.00    -0.329 SA 
HETATM   10  N   UNL     1     -12.023  11.830  67.670  1.00  0.00    -0.606 NA 
ENDROOT
BRANCH   3  11
HETATM   11  N   UNL     1      -8.195   8.951  67.117  1.00  0.00    -0.103 NA 
HETATM   12  H   UNL     1      -7.447   9.617  66.923  1.00  0.00     0.000 HD 
BRANCH  11  13
HETATM   13  C   UNL     1      -8.079   7.731  66.524  1.00  0.00    -0.111 C  
HETATM   14  C   UNL     1      -8.073   6.427  64.656  1.00  0.00    -0.100 C  
HETATM   15  N   UNL     1      -8.206   7.780  65.161  1.00  0.00    -0.140 NA 
HETATM   16  C   UNL     1      -7.634   5.665  65.904  1.00  0.00    -0.086 C  
HETATM   17  N   UNL     1      -7.917   6.554  67.051  1.00  0.00    -0.111 NA 
ENDBRANCH  11  13
ENDBRANCH   3  11
TORSDOF 2
ENDMDL
MODEL      139
REMARK 921   NORMALIZED FREE ENERGY PREDICTED BY IDOCK:   -2.99 KCAL/MOL
REMARK 922        TOTAL FREE ENERGY PREDICTED BY IDOCK:   -3.68 KCAL/MOL
REMARK 923 INTER-LIGAND FREE ENERGY PREDICTED BY IDOCK:   -3.53 KCAL/MOL
REMARK 924 INTRA-LIGAND FREE ENERGY PREDICTED BY IDOCK:   -0.15 KCAL/MOL
REMARK 927      BINDING AFFINITY PREDICTED BY RF-SCORE:    0.00 PKD
ROOT
HETATM    1 CL   UNL     1      -7.435  10.989  66.471  1.00  0.00    -0.144 Cl 
HETATM    2  C   UNL     1      -8.067   9.389  66.213  1.00  0.00    -0.111 A  
HETATM    3  C   UNL     1      -9.442   9.075  66.404  1.00  0.00    -0.226 A  
HETATM    4  C   UNL     1      -9.688   7.664  66.463  1.00  0.00    -0.181 A  
HETATM    5  C   UNL     1      -7.055   8.418  65.951  1.00  0.00    -0.072 A  
HETATM    6  N   UNL     1     -10.881   7.099  66.729  1.00  0.00    -0.255 NA 
HETATM    7  C   UNL     1      -7.281   7.036  65.937  1.00  0.00    -0.074 A  
HETATM    8  C   UNL     1      -8.601   6.645  66.235  1.00  0.00    -0.138 A  
HETATM    9  S   UNL     1     -10.640   5.455  66.729  1.00  0.00    -0.216 SA 
HETATM   10  N   UNL     1      -9.027   5.379  66.352  1.00  0.00    -0.127 NA 
ENDROOT
BRANCH   3  11
HETATM   11  N   UNL     1     -10.518   9.959  66.591  1.00  0.00    -0.200 NA 
HETATM   12  H   UNL     1     -10.962  10.312  65.744  1.00  0.00     0.000 HD 
BRANCH  11  13
HETATM   13  C   UNL     1     -11.038  10.400  67.769  1.00  0.00    -0.299 C  
HETATM   14  C   UNL     1     -11.087  10.377  70.047  1.00  0.00    -0.314 C  
HETATM   15  N   UNL     1     -10.442   9.836  68.866  1.00  0.00    -0.207 NA 
HETATM   16  C   UNL     1     -11.962  11.479  69.453  1.00  0.00    -0.325 C  
HETATM   17  N   UNL     1     -12.021  11.219  67.998  1.00  0.00    -0.641 NA 
ENDBRANCH  11  13
ENDBRANCH   3  11
TORSDOF 2
ENDMDL
MODEL      140
REMARK 921   NORMALIZED FREE ENERGY PREDICTED BY IDOCK:   -2.98 KCAL/MOL
REMARK 922        TOTAL FREE ENERGY PREDICTED BY IDOCK:   -3.67 KCAL/MOL
REMARK 923 INTER-LIGAND FREE ENERGY PREDICTED BY IDOCK:   -3.40 KCAL/MOL
REMARK 924 INTRA-LIGAND FREE ENERGY PREDICTED BY IDOCK:   -0.27 KCAL/MOL
REMARK 927      BINDING AFFINITY PREDICTED BY RF-SCORE:    0.00 PKD
ROOT
HETATM    1 CL   UNL     1     -11.209   6.490  67.509  1.00  0.00    -0.382 Cl 
HETATM    2  C   UNL     1     -10.236   7.514  68.526  1.00  0.00    -0.197 A  
HETATM    3  C   UNL     1      -9.288   8.432  67.994  1.00  0.00    -0.136 A  
HETATM    4  C   UNL     1      -8.375   8.926  68.983  1.00  0.00    -0.124 A  
HETATM    5  C   UNL     1     -10.375   7.224  69.916  1.00  0.00    -0.226 A  
HETATM    6  N   UNL     1      -7.326   9.731  68.732  1.00  0.00    -0.072 NA 
HETATM    7  C   UNL     1      -9.537   7.744  70.911  1.00  0.00    -0.173 A  
HETATM    8  C   UNL     1      -8.500   8.573  70.443  1.00  0.00    -0.137 A  
HETATM    9  S   UNL     1      -6.559   9.981  70.183  1.00  0.00    -0.133 SA 
HETATM   10  N   UNL     1      -7.539   9.117  71.204  1.00  0.00    -0.257 NA 
ENDROOT
BRANCH   3  11
HETATM   11  N   UNL     1      -9.126   8.839  66.659  1.00  0.00    -0.149 NA 
HETATM   12  H   UNL     1      -8.423   8.335  66.117  1.00  0.00     0.000 HD 
BRANCH  11  13
HETATM   13  C   UNL     1      -9.794   9.826  66.003  1.00  0.00    -0.274 C  
HETATM   14  C   UNL     1     -11.059  11.721  66.029  1.00  0.00    -0.312 C  
HETATM   15  N   UNL     1     -10.377  10.735  66.845  1.00  0.00    -0.231 NA 
HETATM   16  C   UNL     1     -10.582  11.354  64.625  1.00  0.00    -0.318 C  
HETATM   17  N   UNL     1      -9.994  10.001  64.730  1.00  0.00    -0.278 NA 
ENDBRANCH  11  13
ENDBRANCH   3  11
TORSDOF 2
ENDMDL
MODEL      141
REMARK 921   NORMALIZED FREE ENERGY PREDICTED BY IDOCK:   -2.98 KCAL/MOL
REMARK 922        TOTAL FREE ENERGY PREDICTED BY IDOCK:   -3.67 KCAL/MOL
REMARK 923 INTER-LIGAND FREE ENERGY PREDICTED BY IDOCK:   -3.38 KCAL/MOL
REMARK 924 INTRA-LIGAND FREE ENERGY PREDICTED BY IDOCK:   -0.29 KCAL/MOL
REMARK 927      BINDING AFFINITY PREDICTED BY RF-SCORE:    0.00 PKD
ROOT
HETATM    1 CL   UNL     1     -12.835   7.414  71.334  1.00  0.00    -0.407 Cl 
HETATM    2  C   UNL     1     -11.565   6.702  72.286  1.00  0.00    -0.278 A  
HETATM    3  C   UNL     1     -10.324   7.360  72.511  1.00  0.00    -0.227 A  
HETATM    4  C   UNL     1      -9.314   6.483  73.027  1.00  0.00    -0.135 A  
HETATM    5  C   UNL     1     -11.836   5.355  72.670  1.00  0.00    -0.145 A  
HETATM    6  N   UNL     1      -8.029   6.826  73.239  1.00  0.00    -0.102 NA 
HETATM    7  C   UNL     1     -10.885   4.496  73.236  1.00  0.00    -0.346 A  
HETATM    8  C   UNL     1      -9.598   5.046  73.382  1.00  0.00    -0.136 A  
HETATM    9  S   UNL     1      -7.258   5.463  73.792  1.00  0.00    -0.087 SA 
HETATM   10  N   UNL     1      -8.518   4.387  73.828  1.00  0.00    -0.100 NA 
ENDROOT
BRANCH   3  11
HETATM   11  N   UNL     1      -9.987   8.697  72.241  1.00  0.00    -0.311 NA 
HETATM   12  H   UNL     1     -10.169   9.367  72.988  1.00  0.00     0.000 HD 
BRANCH  11  13
HETATM   13  C   UNL     1      -9.448   9.204  71.100  1.00  0.00    -0.261 C  
HETATM   14  C   UNL     1      -9.671   9.917  68.947  1.00  0.00    -0.175 C  
HETATM   15  N   UNL     1     -10.369   9.384  70.102  1.00  0.00    -0.215 NA 
HETATM   16  C   UNL     1      -8.288  10.213  69.521  1.00  0.00    -0.168 C  
HETATM   17  N   UNL     1      -8.213   9.491  70.810  1.00  0.00    -0.288 NA 
ENDBRANCH  11  13
ENDBRANCH   3  11
TORSDOF 2
ENDMDL
MODEL      142
REMARK 921   NORMALIZED FREE ENERGY PREDICTED BY IDOCK:   -2.97 KCAL/MOL
REMARK 922        TOTAL FREE ENERGY PREDICTED BY IDOCK:   -3.66 KCAL/MOL
REMARK 923 INTER-LIGAND FREE ENERGY PREDICTED BY IDOCK:   -3.58 KCAL/MOL
REMARK 924 INTRA-LIGAND FREE ENERGY PREDICTED BY IDOCK:   -0.08 KCAL/MOL
REMARK 927      BINDING AFFINITY PREDICTED BY RF-SCORE:    0.00 PKD
ROOT
HETATM    1 CL   UNL     1     -11.952  12.733  70.184  1.00  0.00    -0.407 Cl 
HETATM    2  C   UNL     1     -11.147  14.032  69.350  1.00  0.00    -0.203 A  
HETATM    3  C   UNL     1     -10.122  13.800  68.392  1.00  0.00    -0.241 A  
HETATM    4  C   UNL     1      -9.376  14.984  68.078  1.00  0.00    -0.185 A  
HETATM    5  C   UNL     1     -11.508  15.324  69.838  1.00  0.00    -0.325 A  
HETATM    6  N   UNL     1      -8.295  15.024  67.275  1.00  0.00    -0.190 NA 
HETATM    7  C   UNL     1     -10.837  16.505  69.496  1.00  0.00    -0.315 A  
HETATM    8  C   UNL     1      -9.734  16.336  68.638  1.00  0.00    -0.235 A  
HETATM    9  S   UNL     1      -7.768  16.599  67.266  1.00  0.00    -0.185 SA 
HETATM   10  N   UNL     1      -8.903  17.311  68.241  1.00  0.00    -0.250 NA 
ENDROOT
BRANCH   3  11
HETATM   11  N   UNL     1      -9.746  12.584  67.798  1.00  0.00    -0.196 NA 
HETATM   12  H   UNL     1      -9.691  12.579  66.779  1.00  0.00     0.000 HD 
BRANCH  11  13
HETATM   13  C   UNL     1      -9.447  11.411  68.419  1.00  0.00    -0.194 C  
HETATM   14  C   UNL     1     -10.044   9.321  69.102  1.00  0.00    -0.199 C  
HETATM   15  N   UNL     1     -10.483  10.515  68.406  1.00  0.00    -0.176 NA 
HETATM   16  C   UNL     1      -8.556   9.600  69.301  1.00  0.00    -0.153 C  
HETATM   17  N   UNL     1      -8.370  11.045  69.048  1.00  0.00    -0.125 NA 
ENDBRANCH  11  13
ENDBRANCH   3  11
TORSDOF 2
ENDMDL
MODEL      143
REMARK 921   NORMALIZED FREE ENERGY PREDICTED BY IDOCK:   -2.95 KCAL/MOL
REMARK 922        TOTAL FREE ENERGY PREDICTED BY IDOCK:   -3.64 KCAL/MOL
REMARK 923 INTER-LIGAND FREE ENERGY PREDICTED BY IDOCK:   -3.37 KCAL/MOL
REMARK 924 INTRA-LIGAND FREE ENERGY PREDICTED BY IDOCK:   -0.27 KCAL/MOL
REMARK 927      BINDING AFFINITY PREDICTED BY RF-SCORE:    0.00 PKD
ROOT
HETATM    1 CL   UNL     1      -6.257  12.835  68.052  1.00  0.00    -0.089 Cl 
HETATM    2  C   UNL     1      -7.246  11.529  68.638  1.00  0.00    -0.102 A  
HETATM    3  C   UNL     1      -8.609  11.378  68.257  1.00  0.00    -0.156 A  
HETATM    4  C   UNL     1      -9.321  10.455  69.092  1.00  0.00    -0.199 A  
HETATM    5  C   UNL     1      -6.604  10.740  69.638  1.00  0.00    -0.114 A  
HETATM    6  N   UNL     1     -10.641  10.201  69.010  1.00  0.00    -0.210 NA 
HETATM    7  C   UNL     1      -7.263   9.785  70.423  1.00  0.00    -0.149 A  
HETATM    8  C   UNL     1      -8.644   9.664  70.181  1.00  0.00    -0.214 A  
HETATM    9  S   UNL     1     -10.991   9.107  70.209  1.00  0.00    -0.244 SA 
HETATM   10  N   UNL     1      -9.485   8.872  70.862  1.00  0.00    -0.214 NA 
ENDROOT
BRANCH   3  11
HETATM   11  N   UNL     1      -9.307  12.049  67.239  1.00  0.00    -0.176 NA 
HETATM   12  H   UNL     1      -9.202  11.671  66.298  1.00  0.00     0.000 HD 
BRANCH  11  13
HETATM   13  C   UNL     1     -10.105  13.144  67.360  1.00  0.00    -0.229 C  
HETATM   14  C   UNL     1     -11.955  14.327  66.749  1.00  0.00    -0.436 C  
HETATM   15  N   UNL     1     -11.197  13.109  66.533  1.00  0.00    -0.301 NA 
HETATM   16  C   UNL     1     -11.252  14.926  67.965  1.00  0.00    -0.308 C  
HETATM   17  N   UNL     1      -9.963  14.211  68.090  1.00  0.00    -0.226 NA 
ENDBRANCH  11  13
ENDBRANCH   3  11
TORSDOF 2
ENDMDL
MODEL      144
REMARK 921   NORMALIZED FREE ENERGY PREDICTED BY IDOCK:   -2.92 KCAL/MOL
REMARK 922        TOTAL FREE ENERGY PREDICTED BY IDOCK:   -3.60 KCAL/MOL
REMARK 923 INTER-LIGAND FREE ENERGY PREDICTED BY IDOCK:   -3.31 KCAL/MOL
REMARK 924 INTRA-LIGAND FREE ENERGY PREDICTED BY IDOCK:   -0.29 KCAL/MOL
REMARK 927      BINDING AFFINITY PREDICTED BY RF-SCORE:    0.00 PKD
ROOT
HETATM    1 CL   UNL     1     -11.001   7.092  66.977  1.00  0.00    -0.435 Cl 
HETATM    2  C   UNL     1      -9.920   7.044  68.340  1.00  0.00    -0.154 A  
HETATM    3  C   UNL     1      -9.902   8.064  69.332  1.00  0.00    -0.181 A  
HETATM    4  C   UNL     1      -8.738   8.008  70.167  1.00  0.00    -0.135 A  
HETATM    5  C   UNL     1      -8.971   5.981  68.270  1.00  0.00    -0.113 A  
HETATM    6  N   UNL     1      -8.427   8.909  71.118  1.00  0.00    -0.189 NA 
HETATM    7  C   UNL     1      -7.861   5.866  69.116  1.00  0.00    -0.095 A  
HETATM    8  C   UNL     1      -7.714   6.909  70.051  1.00  0.00    -0.101 A  
HETATM    9  S   UNL     1      -6.974   8.433  71.767  1.00  0.00    -0.093 SA 
HETATM   10  N   UNL     1      -6.690   7.046  70.905  1.00  0.00    -0.052 NA 
ENDROOT
BRANCH   3  11
HETATM   11  N   UNL     1     -10.829   9.101  69.529  1.00  0.00    -0.332 NA 
HETATM   12  H   UNL     1     -11.480   8.981  70.305  1.00  0.00     0.000 HD 
BRANCH  11  13
HETATM   13  C   UNL     1     -10.960  10.248  68.808  1.00  0.00    -0.243 C  
HETATM   14  C   UNL     1     -10.053  11.903  67.532  1.00  0.00    -0.193 C  
HETATM   15  N   UNL     1      -9.781  10.678  68.261  1.00  0.00    -0.156 NA 
HETATM   16  C   UNL     1     -11.578  11.961  67.569  1.00  0.00    -0.304 C  
HETATM   17  N   UNL     1     -12.003  10.998  68.609  1.00  0.00    -0.536 NA 
ENDBRANCH  11  13
ENDBRANCH   3  11
TORSDOF 2
ENDMDL
MODEL      145
REMARK 921   NORMALIZED FREE ENERGY PREDICTED BY IDOCK:   -2.89 KCAL/MOL
REMARK 922        TOTAL FREE ENERGY PREDICTED BY IDOCK:   -3.57 KCAL/MOL
REMARK 923 INTER-LIGAND FREE ENERGY PREDICTED BY IDOCK:   -3.27 KCAL/MOL
REMARK 924 INTRA-LIGAND FREE ENERGY PREDICTED BY IDOCK:   -0.30 KCAL/MOL
REMARK 927      BINDING AFFINITY PREDICTED BY RF-SCORE:    0.00 PKD
ROOT
HETATM    1 CL   UNL     1     -10.606   8.911  66.845  1.00  0.00    -0.306 Cl 
HETATM    2  C   UNL     1      -9.072   9.704  67.065  1.00  0.00    -0.135 A  
HETATM    3  C   UNL     1      -8.810  10.559  68.172  1.00  0.00    -0.134 A  
HETATM    4  C   UNL     1      -7.633  11.356  67.993  1.00  0.00    -0.110 A  
HETATM    5  C   UNL     1      -8.186   9.534  65.960  1.00  0.00    -0.115 A  
HETATM    6  N   UNL     1      -7.212  12.312  68.843  1.00  0.00    -0.098 NA 
HETATM    7  C   UNL     1      -6.996  10.253  65.793  1.00  0.00    -0.128 A  
HETATM    8  C   UNL     1      -6.730  11.205  66.796  1.00  0.00    -0.135 A  
HETATM    9  S   UNL     1      -5.842  12.972  68.176  1.00  0.00    -0.105 SA 
HETATM   10  N   UNL     1      -5.693  12.055  66.803  1.00  0.00    -0.280 NA 
ENDROOT
BRANCH   3  11
HETATM   11  N   UNL     1      -9.578  10.735  69.334  1.00  0.00    -0.410 NA 
HETATM   12  H   UNL     1      -9.945  11.674  69.494  1.00  0.00     0.000 HD 
BRANCH  11  13
HETATM   13  C   UNL     1      -9.892   9.803  70.274  1.00  0.00    -0.240 C  
HETATM   14  C   UNL     1     -11.365   8.905  71.763  1.00  0.00    -0.361 C  
HETATM   15  N   UNL     1     -11.160   9.944  70.772  1.00  0.00    -0.327 NA 
HETATM   16  C   UNL     1     -10.120   8.041  71.577  1.00  0.00    -0.180 C  
HETATM   17  N   UNL     1      -9.168   8.853  70.789  1.00  0.00    -0.202 NA 
ENDBRANCH  11  13
ENDBRANCH   3  11
TORSDOF 2
ENDMDL
MODEL      146
REMARK 921   NORMALIZED FREE ENERGY PREDICTED BY IDOCK:   -2.84 KCAL/MOL
REMARK 922        TOTAL FREE ENERGY PREDICTED BY IDOCK:   -3.51 KCAL/MOL
REMARK 923 INTER-LIGAND FREE ENERGY PREDICTED BY IDOCK:   -3.16 KCAL/MOL
REMARK 924 INTRA-LIGAND FREE ENERGY PREDICTED BY IDOCK:   -0.35 KCAL/MOL
REMARK 927      BINDING AFFINITY PREDICTED BY RF-SCORE:    0.00 PKD
ROOT
HETATM    1 CL   UNL     1      -5.976  14.903  67.013  1.00  0.00     0.699 Cl 
HETATM    2  C   UNL     1      -7.040  16.187  67.511  1.00  0.00    -0.163 A  
HETATM    3  C   UNL     1      -8.427  16.190  67.196  1.00  0.00    -0.191 A  
HETATM    4  C   UNL     1      -9.042  17.468  67.403  1.00  0.00    -0.237 A  
HETATM    5  C   UNL     1      -6.355  17.284  68.113  1.00  0.00    -0.155 A  
HETATM    6  N   UNL     1     -10.318  17.770  67.095  1.00  0.00    -0.347 NA 
HETATM    7  C   UNL     1      -6.949  18.523  68.387  1.00  0.00    -0.278 A  
HETATM    8  C   UNL     1      -8.296  18.637  67.994  1.00  0.00    -0.277 A  
HETATM    9  S   UNL     1     -10.534  19.371  67.477  1.00  0.00    -0.475 SA 
HETATM   10  N   UNL     1      -9.040  19.749  68.087  1.00  0.00    -0.331 NA 
ENDROOT
BRANCH   3  11
HETATM   11  N   UNL     1      -9.203  15.141  66.676  1.00  0.00    -0.252 NA 
HETATM   12  H   UNL     1      -9.292  15.108  65.660  1.00  0.00     0.000 HD 
BRANCH  11  13
HETATM   13  C   UNL     1      -9.849  14.162  67.365  1.00  0.00    -0.239 C  
HETATM   14  C   UNL     1      -9.924  12.044  68.203  1.00  0.00    -0.203 C  
HETATM   15  N   UNL     1      -9.127  13.002  67.460  1.00  0.00    -0.181 NA 
HETATM   16  C   UNL     1     -11.082  12.910  68.694  1.00  0.00    -0.269 C  
HETATM   17  N   UNL     1     -11.038  14.152  67.892  1.00  0.00    -0.260 NA 
ENDBRANCH  11  13
ENDBRANCH   3  11
TORSDOF 2
ENDMDL
MODEL      147
REMARK 921   NORMALIZED FREE ENERGY PREDICTED BY IDOCK:   -2.83 KCAL/MOL
REMARK 922        TOTAL FREE ENERGY PREDICTED BY IDOCK:   -3.50 KCAL/MOL
REMARK 923 INTER-LIGAND FREE ENERGY PREDICTED BY IDOCK:   -3.25 KCAL/MOL
REMARK 924 INTRA-LIGAND FREE ENERGY PREDICTED BY IDOCK:   -0.25 KCAL/MOL
REMARK 927      BINDING AFFINITY PREDICTED BY RF-SCORE:    0.00 PKD
ROOT
HETATM    1 CL   UNL     1     -11.741   5.219  72.612  1.00  0.00    -0.250 Cl 
HETATM    2  C   UNL     1     -10.471   6.366  72.297  1.00  0.00    -0.197 A  
HETATM    3  C   UNL     1      -9.504   6.166  71.273  1.00  0.00    -0.163 A  
HETATM    4  C   UNL     1      -8.374   7.040  71.396  1.00  0.00    -0.113 A  
HETATM    5  C   UNL     1     -10.412   7.419  73.258  1.00  0.00    -0.424 A  
HETATM    6  N   UNL     1      -7.277   6.997  70.617  1.00  0.00    -0.067 NA 
HETATM    7  C   UNL     1      -9.350   8.328  73.358  1.00  0.00    -0.186 A  
HETATM    8  C   UNL     1      -8.298   8.118  72.447  1.00  0.00    -0.170 A  
HETATM    9  S   UNL     1      -6.246   8.170  71.181  1.00  0.00    -0.036 SA 
HETATM   10  N   UNL     1      -7.153   8.814  72.410  1.00  0.00    -0.314 NA 
ENDROOT
BRANCH   3  11
HETATM   11  N   UNL     1      -9.514   5.212  70.242  1.00  0.00    -0.161 NA 
HETATM   12  H   UNL     1      -9.126   4.297  70.472  1.00  0.00     0.000 HD 
BRANCH  11  13
HETATM   13  C   UNL     1      -9.978   5.364  68.972  1.00  0.00    -0.190 C  
HETATM   14  C   UNL     1     -11.150   6.548  67.417  1.00  0.00    -0.327 C  
HETATM   15  N   UNL     1     -10.708   6.510  68.799  1.00  0.00    -0.244 NA 
HETATM   16  C   UNL     1     -10.376   5.383  66.805  1.00  0.00    -0.272 C  
HETATM   17  N   UNL     1      -9.874   4.579  67.941  1.00  0.00    -0.135 NA 
ENDBRANCH  11  13
ENDBRANCH   3  11
TORSDOF 2
ENDMDL
MODEL      148
REMARK 921   NORMALIZED FREE ENERGY PREDICTED BY IDOCK:   -2.82 KCAL/MOL
REMARK 922        TOTAL FREE ENERGY PREDICTED BY IDOCK:   -3.50 KCAL/MOL
REMARK 923 INTER-LIGAND FREE ENERGY PREDICTED BY IDOCK:   -3.18 KCAL/MOL
REMARK 924 INTRA-LIGAND FREE ENERGY PREDICTED BY IDOCK:   -0.31 KCAL/MOL
REMARK 927      BINDING AFFINITY PREDICTED BY RF-SCORE:    0.00 PKD
ROOT
HETATM    1 CL   UNL     1      -6.111  14.315  68.851  1.00  0.00    -0.085 Cl 
HETATM    2  C   UNL     1      -7.233  13.023  68.535  1.00  0.00    -0.104 A  
HETATM    3  C   UNL     1      -8.518  13.254  67.969  1.00  0.00    -0.170 A  
HETATM    4  C   UNL     1      -9.394  12.126  68.099  1.00  0.00    -0.204 A  
HETATM    5  C   UNL     1      -6.797  11.762  69.041  1.00  0.00    -0.106 A  
HETATM    6  N   UNL     1     -10.690  12.111  67.735  1.00  0.00    -0.204 NA 
HETATM    7  C   UNL     1      -7.613  10.626  69.118  1.00  0.00    -0.131 A  
HETATM    8  C   UNL     1      -8.938  10.814  68.681  1.00  0.00    -0.162 A  
HETATM    9  S   UNL     1     -11.276  10.606  68.125  1.00  0.00    -0.281 SA 
HETATM   10  N   UNL     1      -9.910   9.891  68.735  1.00  0.00    -0.165 NA 
ENDROOT
BRANCH   3  11
HETATM   11  N   UNL     1      -9.010  14.430  67.381  1.00  0.00    -0.189 NA 
HETATM   12  H   UNL     1      -8.903  14.506  66.369  1.00  0.00     0.000 HD 
BRANCH  11  13
HETATM   13  C   UNL     1      -9.612  15.482  68.000  1.00  0.00    -0.203 C  
HETATM   14  C   UNL     1     -10.618  17.525  67.910  1.00  0.00    -0.390 C  
HETATM   15  N   UNL     1     -10.003  16.467  67.131  1.00  0.00    -0.254 NA 
HETATM   16  C   UNL     1     -10.712  16.886  69.293  1.00  0.00    -0.288 C  
HETATM   17  N   UNL     1      -9.823  15.704  69.263  1.00  0.00    -0.250 NA 
ENDBRANCH  11  13
ENDBRANCH   3  11
TORSDOF 2
ENDMDL
MODEL      149
REMARK 921   NORMALIZED FREE ENERGY PREDICTED BY IDOCK:   -2.81 KCAL/MOL
REMARK 922        TOTAL FREE ENERGY PREDICTED BY IDOCK:   -3.48 KCAL/MOL
REMARK 923 INTER-LIGAND FREE ENERGY PREDICTED BY IDOCK:   -3.12 KCAL/MOL
REMARK 924 INTRA-LIGAND FREE ENERGY PREDICTED BY IDOCK:   -0.35 KCAL/MOL
REMARK 927      BINDING AFFINITY PREDICTED BY RF-SCORE:    0.00 PKD
ROOT
HETATM    1 CL   UNL     1      -6.669   7.640  69.763  1.00  0.00    -0.039 Cl 
HETATM    2  C   UNL     1      -7.416   8.664  68.571  1.00  0.00    -0.093 A  
HETATM    3  C   UNL     1      -8.439   9.595  68.904  1.00  0.00    -0.125 A  
HETATM    4  C   UNL     1      -9.138  10.089  67.754  1.00  0.00    -0.131 A  
HETATM    5  C   UNL     1      -7.014   8.362  67.236  1.00  0.00    -0.075 A  
HETATM    6  N   UNL     1     -10.208  10.906  67.793  1.00  0.00    -0.176 NA 
HETATM    7  C   UNL     1      -7.638   8.882  66.095  1.00  0.00    -0.091 A  
HETATM    8  C   UNL     1      -8.738   9.724  66.348  1.00  0.00    -0.131 A  
HETATM    9  S   UNL     1     -10.677  11.151  66.219  1.00  0.00    -0.203 SA 
HETATM   10  N   UNL     1      -9.528  10.270  65.412  1.00  0.00    -0.211 NA 
ENDROOT
BRANCH   3  11
HETATM   11  N   UNL     1      -8.852  10.014  70.180  1.00  0.00    -0.358 NA 
HETATM   12  H   UNL     1      -8.548  10.944  70.468  1.00  0.00     0.000 HD 
BRANCH  11  13
HETATM   13  C   UNL     1      -9.610   9.327  71.076  1.00  0.00    -0.259 C  
HETATM   14  C   UNL     1     -11.631   8.866  72.024  1.00  0.00    -0.364 C  
HETATM   15  N   UNL     1     -10.939   9.654  71.021  1.00  0.00    -0.341 NA 
HETATM   16  C   UNL     1     -10.536   7.904  72.480  1.00  0.00    -0.315 C  
HETATM   17  N   UNL     1      -9.261   8.465  71.985  1.00  0.00    -0.211 NA 
ENDBRANCH  11  13
ENDBRANCH   3  11
TORSDOF 2
ENDMDL
MODEL      150
REMARK 921   NORMALIZED FREE ENERGY PREDICTED BY IDOCK:   -2.73 KCAL/MOL
REMARK 922        TOTAL FREE ENERGY PREDICTED BY IDOCK:   -3.39 KCAL/MOL
REMARK 923 INTER-LIGAND FREE ENERGY PREDICTED BY IDOCK:   -3.11 KCAL/MOL
REMARK 924 INTRA-LIGAND FREE ENERGY PREDICTED BY IDOCK:   -0.28 KCAL/MOL
REMARK 927      BINDING AFFINITY PREDICTED BY RF-SCORE:    0.00 PKD
ROOT
HETATM    1 CL   UNL     1      -8.682   6.653  73.270  1.00  0.00    -0.131 Cl 
HETATM    2  C   UNL     1      -8.484   7.654  71.861  1.00  0.00    -0.109 A  
HETATM    3  C   UNL     1      -9.421   7.653  70.791  1.00  0.00    -0.162 A  
HETATM    4  C   UNL     1      -8.914   8.281  69.606  1.00  0.00    -0.149 A  
HETATM    5  C   UNL     1      -7.231   8.336  71.825  1.00  0.00    -0.095 A  
HETATM    6  N   UNL     1      -9.558   8.333  68.424  1.00  0.00    -0.143 NA 
HETATM    7  C   UNL     1      -6.741   9.014  70.702  1.00  0.00    -0.064 A  
HETATM    8  C   UNL     1      -7.567   8.956  69.563  1.00  0.00    -0.080 A  
HETATM    9  S   UNL     1      -8.547   9.117  67.365  1.00  0.00    -0.114 SA 
HETATM   10  N   UNL     1      -7.266   9.464  68.360  1.00  0.00    -0.075 NA 
ENDROOT
BRANCH   3  11
HETATM   11  N   UNL     1     -10.703   7.079  70.758  1.00  0.00    -0.223 NA 
HETATM   12  H   UNL     1     -10.775   6.163  70.315  1.00  0.00     0.000 HD 
BRANCH  11  13
HETATM   13  C   UNL     1     -11.861   7.600  71.247  1.00  0.00    -0.292 C  
HETATM   14  C   UNL     1     -13.125   9.395  71.860  1.00  0.00    -0.424 C  
HETATM   15  N   UNL     1     -11.848   8.968  71.319  1.00  0.00    -0.296 NA 
HETATM   16  C   UNL     1     -13.918   8.090  71.864  1.00  0.00    -0.367 C  
HETATM   17  N   UNL     1     -12.929   7.005  71.688  1.00  0.00    -0.381 NA 
ENDBRANCH  11  13
ENDBRANCH   3  11
TORSDOF 2
ENDMDL
MODEL      151
REMARK 921   NORMALIZED FREE ENERGY PREDICTED BY IDOCK:   -2.72 KCAL/MOL
REMARK 922        TOTAL FREE ENERGY PREDICTED BY IDOCK:   -3.38 KCAL/MOL
REMARK 923 INTER-LIGAND FREE ENERGY PREDICTED BY IDOCK:   -3.17 KCAL/MOL
REMARK 924 INTRA-LIGAND FREE ENERGY PREDICTED BY IDOCK:   -0.20 KCAL/MOL
REMARK 927      BINDING AFFINITY PREDICTED BY RF-SCORE:    0.00 PKD
ROOT
HETATM    1 CL   UNL     1     -11.292   8.384  70.577  1.00  0.00    -0.254 Cl 
HETATM    2  C   UNL     1     -10.302   7.863  69.244  1.00  0.00    -0.220 A  
HETATM    3  C   UNL     1      -9.713   8.782  68.330  1.00  0.00    -0.162 A  
HETATM    4  C   UNL     1      -9.226   8.148  67.141  1.00  0.00    -0.145 A  
HETATM    5  C   UNL     1     -10.279   6.446  69.079  1.00  0.00    -0.216 A  
HETATM    6  N   UNL     1      -8.711   8.795  66.078  1.00  0.00    -0.156 NA 
HETATM    7  C   UNL     1      -9.749   5.798  67.956  1.00  0.00    -0.142 A  
HETATM    8  C   UNL     1      -9.252   6.653  66.954  1.00  0.00    -0.142 A  
HETATM    9  S   UNL     1      -8.337   7.634  64.950  1.00  0.00     0.019 SA 
HETATM   10  N   UNL     1      -8.770   6.258  65.766  1.00  0.00    -0.154 NA 
ENDROOT
BRANCH   3  11
HETATM   11  N   UNL     1      -9.619  10.179  68.442  1.00  0.00    -0.141 NA 
HETATM   12  H   UNL     1      -8.915  10.532  69.091  1.00  0.00     0.000 HD 
BRANCH  11  13
HETATM   13  C   UNL     1     -10.354  11.118  67.787  1.00  0.00    -0.187 C  
HETATM   14  C   UNL     1     -10.593  13.228  66.962  1.00  0.00    -0.259 C  
HETATM   15  N   UNL     1      -9.707  12.319  67.664  1.00  0.00    -0.190 NA 
HETATM   16  C   UNL     1     -11.720  12.296  66.523  1.00  0.00    -0.352 C  
HETATM   17  N   UNL     1     -11.564  11.058  67.317  1.00  0.00    -0.474 NA 
ENDBRANCH  11  13
ENDBRANCH   3  11
TORSDOF 2
ENDMDL
MODEL      152
REMARK 921   NORMALIZED FREE ENERGY PREDICTED BY IDOCK:   -2.72 KCAL/MOL
REMARK 922        TOTAL FREE ENERGY PREDICTED BY IDOCK:   -3.37 KCAL/MOL
REMARK 923 INTER-LIGAND FREE ENERGY PREDICTED BY IDOCK:   -3.21 KCAL/MOL
REMARK 924 INTRA-LIGAND FREE ENERGY PREDICTED BY IDOCK:   -0.16 KCAL/MOL
REMARK 927      BINDING AFFINITY PREDICTED BY RF-SCORE:    0.00 PKD
ROOT
HETATM    1 CL   UNL     1     -11.759  14.194  66.830  1.00  0.00    -0.413 Cl 
HETATM    2  C   UNL     1     -10.023  14.070  66.827  1.00  0.00    -0.268 A  
HETATM    3  C   UNL     1      -9.351  12.816  66.794  1.00  0.00    -0.241 A  
HETATM    4  C   UNL     1      -7.960  12.922  67.128  1.00  0.00    -0.099 A  
HETATM    5  C   UNL     1      -9.368  15.323  67.018  1.00  0.00    -0.238 A  
HETATM    6  N   UNL     1      -7.118  11.879  67.262  1.00  0.00    -0.132 NA 
HETATM    7  C   UNL     1      -7.999  15.459  67.281  1.00  0.00    -0.231 A  
HETATM    8  C   UNL     1      -7.289  14.247  67.378  1.00  0.00    -0.128 A  
HETATM    9  S   UNL     1      -5.645  12.511  67.697  1.00  0.00    -0.131 SA 
HETATM   10  N   UNL     1      -5.991  14.132  67.696  1.00  0.00    -0.330 NA 
ENDROOT
BRANCH   3  11
HETATM   11  N   UNL     1      -9.892  11.546  66.538  1.00  0.00    -0.198 NA 
HETATM   12  H   UNL     1     -10.049  11.312  65.558  1.00  0.00     0.000 HD 
BRANCH  11  13
HETATM   13  C   UNL     1     -10.233  10.589  67.444  1.00  0.00    -0.211 C  
HETATM   14  C   UNL     1     -10.679   9.956  69.587  1.00  0.00    -0.252 C  
HETATM   15  N   UNL     1     -10.321  11.067  68.725  1.00  0.00    -0.192 NA 
HETATM   16  C   UNL     1     -10.994   8.858  68.574  1.00  0.00     0.117 C  
HETATM   17  N   UNL     1     -10.436   9.315  67.283  1.00  0.00    -0.266 NA 
ENDBRANCH  11  13
ENDBRANCH   3  11
TORSDOF 2
ENDMDL
MODEL      153
REMARK 921   NORMALIZED FREE ENERGY PREDICTED BY IDOCK:   -2.67 KCAL/MOL
REMARK 922        TOTAL FREE ENERGY PREDICTED BY IDOCK:   -3.32 KCAL/MOL
REMARK 923 INTER-LIGAND FREE ENERGY PREDICTED BY IDOCK:   -3.00 KCAL/MOL
REMARK 924 INTRA-LIGAND FREE ENERGY PREDICTED BY IDOCK:   -0.32 KCAL/MOL
REMARK 927      BINDING AFFINITY PREDICTED BY RF-SCORE:    0.00 PKD
ROOT
HETATM    1 CL   UNL     1     -11.727   7.019  70.559  1.00  0.00    -0.369 Cl 
HETATM    2  C   UNL     1     -10.865   5.950  69.489  1.00  0.00    -0.372 A  
HETATM    3  C   UNL     1     -10.022   4.910  69.971  1.00  0.00    -0.253 A  
HETATM    4  C   UNL     1      -9.164   4.374  68.956  1.00  0.00    -0.140 A  
HETATM    5  C   UNL     1     -10.967   6.324  68.116  1.00  0.00    -0.412 A  
HETATM    6  N   UNL     1      -8.207   3.450  69.164  1.00  0.00    -0.059 NA 
HETATM    7  C   UNL     1     -10.187   5.770  67.094  1.00  0.00    -0.250 A  
HETATM    8  C   UNL     1      -9.245   4.812  67.516  1.00  0.00    -0.127 A  
HETATM    9  S   UNL     1      -7.465   3.194  67.699  1.00  0.00    -0.061 SA 
HETATM   10  N   UNL     1      -8.345   4.209  66.727  1.00  0.00    -0.101 NA 
ENDROOT
BRANCH   3  11
HETATM   11  N   UNL     1      -9.908   4.421  71.283  1.00  0.00    -0.185 NA 
HETATM   12  H   UNL     1     -10.260   3.477  71.443  1.00  0.00     0.000 HD 
BRANCH  11  13
HETATM   13  C   UNL     1      -9.384   5.056  72.366  1.00  0.00    -0.137 C  
HETATM   14  C   UNL     1      -9.492   5.643  74.565  1.00  0.00    -0.156 C  
HETATM   15  N   UNL     1     -10.149   4.919  73.494  1.00  0.00    -0.155 NA 
HETATM   16  C   UNL     1      -8.154   6.007  73.926  1.00  0.00    -0.107 C  
HETATM   17  N   UNL     1      -8.319   5.794  72.472  1.00  0.00    -0.117 NA 
ENDBRANCH  11  13
ENDBRANCH   3  11
TORSDOF 2
ENDMDL
MODEL      154
REMARK 921   NORMALIZED FREE ENERGY PREDICTED BY IDOCK:   -2.66 KCAL/MOL
REMARK 922        TOTAL FREE ENERGY PREDICTED BY IDOCK:   -3.31 KCAL/MOL
REMARK 923 INTER-LIGAND FREE ENERGY PREDICTED BY IDOCK:   -3.05 KCAL/MOL
REMARK 924 INTRA-LIGAND FREE ENERGY PREDICTED BY IDOCK:   -0.26 KCAL/MOL
REMARK 927      BINDING AFFINITY PREDICTED BY RF-SCORE:    0.00 PKD
ROOT
HETATM    1 CL   UNL     1     -10.730   8.349  67.085  1.00  0.00    -0.311 Cl 
HETATM    2  C   UNL     1      -9.669   9.230  68.146  1.00  0.00    -0.150 A  
HETATM    3  C   UNL     1      -8.903  10.344  67.702  1.00  0.00    -0.124 A  
HETATM    4  C   UNL     1      -7.867  10.710  68.622  1.00  0.00    -0.121 A  
HETATM    5  C   UNL     1      -9.532   8.629  69.433  1.00  0.00    -0.161 A  
HETATM    6  N   UNL     1      -6.943  11.665  68.404  1.00  0.00    -0.073 NA 
HETATM    7  C   UNL     1      -8.570   9.011  70.377  1.00  0.00    -0.215 A  
HETATM    8  C   UNL     1      -7.699  10.035  69.959  1.00  0.00    -0.169 A  
HETATM    9  S   UNL     1      -5.947  11.677  69.733  1.00  0.00    -0.138 SA 
HETATM   10  N   UNL     1      -6.660  10.505  70.664  1.00  0.00    -0.340 NA 
ENDROOT
BRANCH   3  11
HETATM   11  N   UNL     1      -9.016  11.049  66.492  1.00  0.00    -0.167 NA 
HETATM   12  H   UNL     1      -9.207  12.048  66.569  1.00  0.00     0.000 HD 
BRANCH  11  13
HETATM   13  C   UNL     1      -8.899  10.557  65.229  1.00  0.00    -0.188 C  
HETATM   14  C   UNL     1      -9.496  10.579  63.030  1.00  0.00    -0.335 C  
HETATM   15  N   UNL     1      -9.705  11.198  64.325  1.00  0.00    -0.254 NA 
HETATM   16  C   UNL     1      -8.305   9.664  63.305  1.00  0.00    -0.173 C  
HETATM   17  N   UNL     1      -8.192   9.565  64.776  1.00  0.00    -0.133 NA 
ENDBRANCH  11  13
ENDBRANCH   3  11
TORSDOF 2
ENDMDL
MODEL      155
REMARK 921   NORMALIZED FREE ENERGY PREDICTED BY IDOCK:   -2.65 KCAL/MOL
REMARK 922        TOTAL FREE ENERGY PREDICTED BY IDOCK:   -3.30 KCAL/MOL
REMARK 923 INTER-LIGAND FREE ENERGY PREDICTED BY IDOCK:   -3.08 KCAL/MOL
REMARK 924 INTRA-LIGAND FREE ENERGY PREDICTED BY IDOCK:   -0.22 KCAL/MOL
REMARK 927      BINDING AFFINITY PREDICTED BY RF-SCORE:    0.00 PKD
ROOT
HETATM    1 CL   UNL     1     -10.052  10.689  67.408  1.00  0.00    -0.219 Cl 
HETATM    2  C   UNL     1     -10.568   9.821  68.825  1.00  0.00    -0.219 A  
HETATM    3  C   UNL     1     -10.585   8.399  68.880  1.00  0.00    -0.140 A  
HETATM    4  C   UNL     1     -11.342   7.894  69.988  1.00  0.00    -0.027 A  
HETATM    5  C   UNL     1     -11.109  10.666  69.839  1.00  0.00    -0.364 A  
HETATM    6  N   UNL     1     -11.597   6.592  70.219  1.00  0.00    -0.412 NA 
HETATM    7  C   UNL     1     -11.796  10.196  70.965  1.00  0.00    -0.475 A  
HETATM    8  C   UNL     1     -11.953   8.798  71.027  1.00  0.00    -0.251 A  
HETATM    9  S   UNL     1     -12.541   6.527  71.584  1.00  0.00    -0.025 SA 
HETATM   10  N   UNL     1     -12.639   8.136  71.969  1.00  0.00    -0.326 NA 
ENDROOT
BRANCH   3  11
HETATM   11  N   UNL     1     -10.017   7.487  67.976  1.00  0.00    -0.165 NA 
HETATM   12  H   UNL     1     -10.641   7.113  67.260  1.00  0.00     0.000 HD 
BRANCH  11  13
HETATM   13  C   UNL     1      -8.731   7.042  67.940  1.00  0.00    -0.125 C  
HETATM   14  C   UNL     1      -6.515   7.346  68.372  1.00  0.00    -0.045 C  
HETATM   15  N   UNL     1      -7.838   7.931  68.478  1.00  0.00    -0.117 NA 
HETATM   16  C   UNL     1      -6.832   5.927  67.909  1.00  0.00    -0.060 C  
HETATM   17  N   UNL     1      -8.235   5.948  67.443  1.00  0.00    -0.106 NA 
ENDBRANCH  11  13
ENDBRANCH   3  11
TORSDOF 2
ENDMDL
MODEL      156
REMARK 921   NORMALIZED FREE ENERGY PREDICTED BY IDOCK:   -2.64 KCAL/MOL
REMARK 922        TOTAL FREE ENERGY PREDICTED BY IDOCK:   -3.29 KCAL/MOL
REMARK 923 INTER-LIGAND FREE ENERGY PREDICTED BY IDOCK:   -3.29 KCAL/MOL
REMARK 924 INTRA-LIGAND FREE ENERGY PREDICTED BY IDOCK:   -0.00 KCAL/MOL
REMARK 927      BINDING AFFINITY PREDICTED BY RF-SCORE:    0.00 PKD
ROOT
HETATM    1 CL   UNL     1      -9.893  14.668  67.913  1.00  0.00    -0.215 Cl 
HETATM    2  C   UNL     1      -9.793  12.978  67.512  1.00  0.00    -0.209 A  
HETATM    3  C   UNL     1      -8.589  12.376  67.051  1.00  0.00    -0.191 A  
HETATM    4  C   UNL     1      -8.800  11.082  66.471  1.00  0.00    -0.169 A  
HETATM    5  C   UNL     1     -11.056  12.315  67.543  1.00  0.00    -0.326 A  
HETATM    6  N   UNL     1      -7.847  10.340  65.875  1.00  0.00    -0.133 NA 
HETATM    7  C   UNL     1     -11.276  11.026  67.042  1.00  0.00    -0.255 A  
HETATM    8  C   UNL     1     -10.149  10.412  66.463  1.00  0.00    -0.228 A  
HETATM    9  S   UNL     1      -8.592   8.959  65.330  1.00  0.00    -0.184 SA 
HETATM   10  N   UNL     1     -10.143   9.216  65.856  1.00  0.00    -0.188 NA 
ENDROOT
BRANCH   3  11
HETATM   11  N   UNL     1      -7.292  12.916  67.052  1.00  0.00    -0.369 NA 
HETATM   12  H   UNL     1      -6.601  12.428  66.481  1.00  0.00     0.000 HD 
BRANCH  11  13
HETATM   13  C   UNL     1      -6.847  14.012  67.724  1.00  0.00    -0.175 C  
HETATM   14  C   UNL     1      -6.211  15.026  69.663  1.00  0.00    -0.134 C  
HETATM   15  N   UNL     1      -6.674  13.789  69.065  1.00  0.00    -0.107 NA 
HETATM   16  C   UNL     1      -5.940  15.890  68.434  1.00  0.00    -0.106 C  
HETATM   17  N   UNL     1      -6.614  15.219  67.301  1.00  0.00    -0.300 NA 
ENDBRANCH  11  13
ENDBRANCH   3  11
TORSDOF 2
ENDMDL
MODEL      157
REMARK 921   NORMALIZED FREE ENERGY PREDICTED BY IDOCK:   -2.63 KCAL/MOL
REMARK 922        TOTAL FREE ENERGY PREDICTED BY IDOCK:   -3.28 KCAL/MOL
REMARK 923 INTER-LIGAND FREE ENERGY PREDICTED BY IDOCK:   -3.00 KCAL/MOL
REMARK 924 INTRA-LIGAND FREE ENERGY PREDICTED BY IDOCK:   -0.28 KCAL/MOL
REMARK 927      BINDING AFFINITY PREDICTED BY RF-SCORE:    0.00 PKD
ROOT
HETATM    1 CL   UNL     1     -12.284   6.521  70.756  1.00  0.00    -0.316 Cl 
HETATM    2  C   UNL     1     -11.053   7.054  69.648  1.00  0.00    -0.219 A  
HETATM    3  C   UNL     1     -10.023   7.957  70.034  1.00  0.00    -0.191 A  
HETATM    4  C   UNL     1      -9.325   8.516  68.913  1.00  0.00    -0.146 A  
HETATM    5  C   UNL     1     -11.277   6.624  68.306  1.00  0.00    -0.208 A  
HETATM    6  N   UNL     1      -8.372   9.465  68.993  1.00  0.00    -0.120 NA 
HETATM    7  C   UNL     1     -10.565   7.106  67.200  1.00  0.00    -0.417 A  
HETATM    8  C   UNL     1      -9.604   8.092  67.495  1.00  0.00    -0.157 A  
HETATM    9  S   UNL     1      -7.910   9.808  67.435  1.00  0.00    -0.098 SA 
HETATM   10  N   UNL     1      -8.863   8.747  66.589  1.00  0.00    -0.127 NA 
ENDROOT
BRANCH   3  11
HETATM   11  N   UNL     1      -9.676   8.378  71.328  1.00  0.00    -0.176 NA 
HETATM   12  H   UNL     1     -10.205   9.166  71.701  1.00  0.00     0.000 HD 
BRANCH  11  13
HETATM   13  C   UNL     1      -8.717   7.861  72.143  1.00  0.00    -0.142 C  
HETATM   14  C   UNL     1      -7.300   8.064  73.916  1.00  0.00    -0.155 C  
HETATM   15  N   UNL     1      -8.323   8.726  73.129  1.00  0.00    -0.345 NA 
HETATM   16  C   UNL     1      -7.349   6.641  73.365  1.00  0.00    -0.080 C  
HETATM   17  N   UNL     1      -8.104   6.715  72.096  1.00  0.00    -0.105 NA 
ENDBRANCH  11  13
ENDBRANCH   3  11
TORSDOF 2
ENDMDL
MODEL      158
REMARK 921   NORMALIZED FREE ENERGY PREDICTED BY IDOCK:   -2.58 KCAL/MOL
REMARK 922        TOTAL FREE ENERGY PREDICTED BY IDOCK:   -3.22 KCAL/MOL
REMARK 923 INTER-LIGAND FREE ENERGY PREDICTED BY IDOCK:   -2.98 KCAL/MOL
REMARK 924 INTRA-LIGAND FREE ENERGY PREDICTED BY IDOCK:   -0.24 KCAL/MOL
REMARK 927      BINDING AFFINITY PREDICTED BY RF-SCORE:    0.00 PKD
ROOT
HETATM    1 CL   UNL     1     -11.168   5.080  73.216  1.00  0.00    -0.397 Cl 
HETATM    2  C   UNL     1     -10.138   4.313  72.041  1.00  0.00    -0.174 A  
HETATM    3  C   UNL     1     -10.235   4.592  70.649  1.00  0.00    -0.141 A  
HETATM    4  C   UNL     1      -9.543   3.632  69.840  1.00  0.00    -0.168 A  
HETATM    5  C   UNL     1      -9.320   3.284  72.595  1.00  0.00    -0.147 A  
HETATM    6  N   UNL     1      -9.554   3.607  68.493  1.00  0.00    -0.139 NA 
HETATM    7  C   UNL     1      -8.582   2.373  71.828  1.00  0.00    -0.091 A  
HETATM    8  C   UNL     1      -8.722   2.517  70.434  1.00  0.00    -0.070 A  
HETATM    9  S   UNL     1      -8.651   2.291  68.034  1.00  0.00    -0.096 SA 
HETATM   10  N   UNL     1      -8.172   1.713  69.513  1.00  0.00    -0.044 NA 
ENDROOT
BRANCH   3  11
HETATM   11  N   UNL     1     -10.948   5.623  70.016  1.00  0.00    -0.305 NA 
HETATM   12  H   UNL     1     -11.525   5.349  69.220  1.00  0.00     0.000 HD 
BRANCH  11  13
HETATM   13  C   UNL     1     -10.962   6.945  70.339  1.00  0.00    -0.274 C  
HETATM   14  C   UNL     1     -12.060   8.787  71.111  1.00  0.00    -0.267 C  
HETATM   15  N   UNL     1     -12.173   7.371  70.815  1.00  0.00    -0.224 NA 
HETATM   16  C   UNL     1     -10.561   9.025  70.943  1.00  0.00    -0.250 C  
HETATM   17  N   UNL     1     -10.034   7.848  70.220  1.00  0.00    -0.188 NA 
ENDBRANCH  11  13
ENDBRANCH   3  11
TORSDOF 2
ENDMDL
MODEL      159
REMARK 921   NORMALIZED FREE ENERGY PREDICTED BY IDOCK:   -2.55 KCAL/MOL
REMARK 922        TOTAL FREE ENERGY PREDICTED BY IDOCK:   -3.19 KCAL/MOL
REMARK 923 INTER-LIGAND FREE ENERGY PREDICTED BY IDOCK:   -3.14 KCAL/MOL
REMARK 924 INTRA-LIGAND FREE ENERGY PREDICTED BY IDOCK:   -0.06 KCAL/MOL
REMARK 927      BINDING AFFINITY PREDICTED BY RF-SCORE:    0.00 PKD
ROOT
HETATM    1 CL   UNL     1      -5.946  16.444  69.531  1.00  0.00    -0.164 Cl 
HETATM    2  C   UNL     1      -6.676  15.051  68.786  1.00  0.00    -0.099 A  
HETATM    3  C   UNL     1      -7.689  15.163  67.793  1.00  0.00    -0.149 A  
HETATM    4  C   UNL     1      -8.376  13.927  67.558  1.00  0.00    -0.196 A  
HETATM    5  C   UNL     1      -6.272  13.818  69.380  1.00  0.00    -0.107 A  
HETATM    6  N   UNL     1      -9.436  13.778  66.740  1.00  0.00    -0.267 NA 
HETATM    7  C   UNL     1      -6.884  12.586  69.118  1.00  0.00    -0.062 A  
HETATM    8  C   UNL     1      -7.974  12.640  68.229  1.00  0.00    -0.153 A  
HETATM    9  S   UNL     1      -9.896  12.185  66.844  1.00  0.00    -0.206 SA 
HETATM   10  N   UNL     1      -8.754  11.601  67.894  1.00  0.00    -0.147 NA 
ENDROOT
BRANCH   3  11
HETATM   11  N   UNL     1      -8.102  16.312  67.098  1.00  0.00    -0.171 NA 
HETATM   12  H   UNL     1      -7.971  16.298  66.087  1.00  0.00     0.000 HD 
BRANCH  11  13
HETATM   13  C   UNL     1      -8.656  17.442  67.615  1.00  0.00    -0.217 C  
HETATM   14  C   UNL     1      -9.727  19.434  67.331  1.00  0.00    -0.328 C  
HETATM   15  N   UNL     1      -9.179  18.271  66.658  1.00  0.00    -0.288 NA 
HETATM   16  C   UNL     1      -9.632  19.023  68.799  1.00  0.00    -0.396 C  
HETATM   17  N   UNL     1      -8.719  17.861  68.844  1.00  0.00    -0.183 NA 
ENDBRANCH  11  13
ENDBRANCH   3  11
TORSDOF 2
ENDMDL
MODEL      160
REMARK 921   NORMALIZED FREE ENERGY PREDICTED BY IDOCK:   -2.54 KCAL/MOL
REMARK 922        TOTAL FREE ENERGY PREDICTED BY IDOCK:   -3.17 KCAL/MOL
REMARK 923 INTER-LIGAND FREE ENERGY PREDICTED BY IDOCK:   -2.84 KCAL/MOL
REMARK 924 INTRA-LIGAND FREE ENERGY PREDICTED BY IDOCK:   -0.34 KCAL/MOL
REMARK 927      BINDING AFFINITY PREDICTED BY RF-SCORE:    0.00 PKD
ROOT
HETATM    1 CL   UNL     1     -10.049   5.217  67.335  1.00  0.00    -0.208 Cl 
HETATM    2  C   UNL     1      -9.863   5.930  68.911  1.00  0.00    -0.145 A  
HETATM    3  C   UNL     1      -9.088   7.104  69.128  1.00  0.00    -0.137 A  
HETATM    4  C   UNL     1      -8.795   7.329  70.513  1.00  0.00    -0.153 A  
HETATM    5  C   UNL     1     -10.426   5.140  69.957  1.00  0.00    -0.305 A  
HETATM    6  N   UNL     1      -8.002   8.311  70.984  1.00  0.00    -0.093 NA 
HETATM    7  C   UNL     1     -10.209   5.378  71.321  1.00  0.00    -0.287 A  
HETATM    8  C   UNL     1      -9.353   6.458  71.608  1.00  0.00    -0.143 A  
HETATM    9  S   UNL     1      -7.942   8.124  72.633  1.00  0.00    -0.140 SA 
HETATM   10  N   UNL     1      -8.945   6.820  72.833  1.00  0.00    -0.127 NA 
ENDROOT
BRANCH   3  11
HETATM   11  N   UNL     1      -8.558   7.984  68.170  1.00  0.00    -0.126 NA 
HETATM   12  H   UNL     1      -7.601   7.800  67.869  1.00  0.00     0.000 HD 
BRANCH  11  13
HETATM   13  C   UNL     1      -9.171   9.056  67.596  1.00  0.00    -0.136 C  
HETATM   14  C   UNL     1      -9.974  10.128  65.753  1.00  0.00    -0.271 C  
HETATM   15  N   UNL     1      -9.323   8.927  66.241  1.00  0.00    -0.200 NA 
HETATM   16  C   UNL     1     -10.358  10.830  67.054  1.00  0.00    -0.228 C  
HETATM   17  N   UNL     1      -9.577  10.172  68.124  1.00  0.00    -0.138 NA 
ENDBRANCH  11  13
ENDBRANCH   3  11
TORSDOF 2
ENDMDL
MODEL      161
REMARK 921   NORMALIZED FREE ENERGY PREDICTED BY IDOCK:   -2.50 KCAL/MOL
REMARK 922        TOTAL FREE ENERGY PREDICTED BY IDOCK:   -3.14 KCAL/MOL
REMARK 923 INTER-LIGAND FREE ENERGY PREDICTED BY IDOCK:   -2.86 KCAL/MOL
REMARK 924 INTRA-LIGAND FREE ENERGY PREDICTED BY IDOCK:   -0.28 KCAL/MOL
REMARK 927      BINDING AFFINITY PREDICTED BY RF-SCORE:    0.00 PKD
ROOT
HETATM    1 CL   UNL     1      -7.942   5.792  67.791  1.00  0.00    -0.098 Cl 
HETATM    2  C   UNL     1      -9.249   6.630  68.576  1.00  0.00    -0.127 A  
HETATM    3  C   UNL     1      -9.437   8.035  68.448  1.00  0.00    -0.145 A  
HETATM    4  C   UNL     1     -10.349   8.565  69.419  1.00  0.00    -0.215 A  
HETATM    5  C   UNL     1      -9.996   5.802  69.467  1.00  0.00    -0.250 A  
HETATM    6  N   UNL     1     -10.631   9.872  69.579  1.00  0.00    -0.226 NA 
HETATM    7  C   UNL     1     -10.940   6.287  70.380  1.00  0.00    -0.385 A  
HETATM    8  C   UNL     1     -11.095   7.687  70.390  1.00  0.00    -0.258 A  
HETATM    9  S   UNL     1     -11.697   9.977  70.849  1.00  0.00    -0.398 SA 
HETATM   10  N   UNL     1     -11.883   8.374  71.229  1.00  0.00    -0.286 NA 
ENDROOT
BRANCH   3  11
HETATM   11  N   UNL     1      -8.810   8.918  67.554  1.00  0.00    -0.130 NA 
HETATM   12  H   UNL     1      -9.206   8.963  66.615  1.00  0.00     0.000 HD 
BRANCH  11  13
HETATM   13  C   UNL     1      -7.737   9.720  67.791  1.00  0.00    -0.091 C  
HETATM   14  C   UNL     1      -5.510   9.985  68.194  1.00  0.00    -0.038 C  
HETATM   15  N   UNL     1      -6.566   9.024  67.938  1.00  0.00    -0.060 NA 
HETATM   16  C   UNL     1      -6.222  11.312  67.944  1.00  0.00    -0.050 C  
HETATM   17  N   UNL     1      -7.670  11.009  67.942  1.00  0.00    -0.102 NA 
ENDBRANCH  11  13
ENDBRANCH   3  11
TORSDOF 2
ENDMDL
MODEL      162
REMARK 921   NORMALIZED FREE ENERGY PREDICTED BY IDOCK:   -2.45 KCAL/MOL
REMARK 922        TOTAL FREE ENERGY PREDICTED BY IDOCK:   -3.08 KCAL/MOL
REMARK 923 INTER-LIGAND FREE ENERGY PREDICTED BY IDOCK:   -2.80 KCAL/MOL
REMARK 924 INTRA-LIGAND FREE ENERGY PREDICTED BY IDOCK:   -0.28 KCAL/MOL
REMARK 927      BINDING AFFINITY PREDICTED BY RF-SCORE:    0.00 PKD
ROOT
HETATM    1 CL   UNL     1     -10.289   8.198  68.369  1.00  0.00    -0.239 Cl 
HETATM    2  C   UNL     1      -9.938   8.716  66.745  1.00  0.00    -0.273 A  
HETATM    3  C   UNL     1      -8.920   8.108  65.957  1.00  0.00    -0.171 A  
HETATM    4  C   UNL     1      -8.574   8.883  64.802  1.00  0.00    -0.158 A  
HETATM    5  C   UNL     1     -10.653   9.888  66.360  1.00  0.00    -0.126 A  
HETATM    6  N   UNL     1      -7.581   8.585  63.942  1.00  0.00    -0.121 NA 
HETATM    7  C   UNL     1     -10.379  10.628  65.202  1.00  0.00    -0.331 A  
HETATM    8  C   UNL     1      -9.303  10.149  64.431  1.00  0.00    -0.293 A  
HETATM    9  S   UNL     1      -7.551   9.800  62.810  1.00  0.00    -0.126 SA 
HETATM   10  N   UNL     1      -8.816  10.738  63.329  1.00  0.00    -0.192 NA 
ENDROOT
BRANCH   3  11
HETATM   11  N   UNL     1      -8.217   6.920  66.212  1.00  0.00    -0.112 NA 
HETATM   12  H   UNL     1      -7.471   6.978  66.906  1.00  0.00     0.000 HD 
BRANCH  11  13
HETATM   13  C   UNL     1      -8.411   5.699  65.643  1.00  0.00    -0.135 C  
HETATM   14  C   UNL     1      -9.723   3.876  65.260  1.00  0.00    -0.187 C  
HETATM   15  N   UNL     1      -9.646   5.171  65.910  1.00  0.00    -0.159 NA 
HETATM   16  C   UNL     1      -8.449   3.868  64.419  1.00  0.00    -0.099 C  
HETATM   17  N   UNL     1      -7.602   4.961  64.943  1.00  0.00    -0.076 NA 
ENDBRANCH  11  13
ENDBRANCH   3  11
TORSDOF 2
ENDMDL
MODEL      163
REMARK 921   NORMALIZED FREE ENERGY PREDICTED BY IDOCK:   -2.41 KCAL/MOL
REMARK 922        TOTAL FREE ENERGY PREDICTED BY IDOCK:   -3.03 KCAL/MOL
REMARK 923 INTER-LIGAND FREE ENERGY PREDICTED BY IDOCK:   -2.69 KCAL/MOL
REMARK 924 INTRA-LIGAND FREE ENERGY PREDICTED BY IDOCK:   -0.35 KCAL/MOL
REMARK 927      BINDING AFFINITY PREDICTED BY RF-SCORE:    0.00 PKD
ROOT
HETATM    1 CL   UNL     1     -12.037   6.603  70.482  1.00  0.00    -0.400 Cl 
HETATM    2  C   UNL     1     -10.722   6.452  69.352  1.00  0.00    -0.289 A  
HETATM    3  C   UNL     1      -9.366   6.656  69.732  1.00  0.00    -0.145 A  
HETATM    4  C   UNL     1      -8.490   6.810  68.608  1.00  0.00    -0.123 A  
HETATM    5  C   UNL     1     -11.155   6.265  68.006  1.00  0.00    -0.365 A  
HETATM    6  N   UNL     1      -7.179   7.107  68.687  1.00  0.00    -0.091 NA 
HETATM    7  C   UNL     1     -10.308   6.345  66.893  1.00  0.00    -0.306 A  
HETATM    8  C   UNL     1      -8.968   6.661  67.187  1.00  0.00    -0.118 A  
HETATM    9  S   UNL     1      -6.623   7.222  67.126  1.00  0.00    -0.065 SA 
HETATM   10  N   UNL     1      -8.001   6.863  66.279  1.00  0.00    -0.104 NA 
ENDROOT
BRANCH   3  11
HETATM   11  N   UNL     1      -8.835   6.774  71.027  1.00  0.00    -0.141 NA 
HETATM   12  H   UNL     1      -8.714   7.723  71.379  1.00  0.00     0.000 HD 
BRANCH  11  13
HETATM   13  C   UNL     1      -8.462   5.771  71.868  1.00  0.00    -0.127 C  
HETATM   14  C   UNL     1      -8.783   4.552  73.766  1.00  0.00    -0.105 C  
HETATM   15  N   UNL     1      -9.291   5.639  72.950  1.00  0.00    -0.141 NA 
HETATM   16  C   UNL     1      -7.696   3.964  72.869  1.00  0.00    -0.075 C  
HETATM   17  N   UNL     1      -7.435   4.974  71.821  1.00  0.00    -0.092 NA 
ENDBRANCH  11  13
ENDBRANCH   3  11
TORSDOF 2
ENDMDL
MODEL      164
REMARK 921   NORMALIZED FREE ENERGY PREDICTED BY IDOCK:   -2.40 KCAL/MOL
REMARK 922        TOTAL FREE ENERGY PREDICTED BY IDOCK:   -3.02 KCAL/MOL
REMARK 923 INTER-LIGAND FREE ENERGY PREDICTED BY IDOCK:   -2.74 KCAL/MOL
REMARK 924 INTRA-LIGAND FREE ENERGY PREDICTED BY IDOCK:   -0.28 KCAL/MOL
REMARK 927      BINDING AFFINITY PREDICTED BY RF-SCORE:    0.00 PKD
ROOT
HETATM    1 CL   UNL     1     -10.900   7.358  66.938  1.00  0.00    -0.363 Cl 
HETATM    2  C   UNL     1      -9.986   5.992  67.511  1.00  0.00    -0.137 A  
HETATM    3  C   UNL     1      -9.274   6.018  68.743  1.00  0.00    -0.123 A  
HETATM    4  C   UNL     1      -8.337   4.940  68.866  1.00  0.00    -0.082 A  
HETATM    5  C   UNL     1      -9.901   4.932  66.561  1.00  0.00    -0.225 A  
HETATM    6  N   UNL     1      -7.472   4.783  69.886  1.00  0.00    -0.054 NA 
HETATM    7  C   UNL     1      -9.041   3.834  66.689  1.00  0.00    -0.167 A  
HETATM    8  C   UNL     1      -8.219   3.851  67.832  1.00  0.00    -0.092 A  
HETATM    9  S   UNL     1      -6.579   3.424  69.548  1.00  0.00    -0.034 SA 
HETATM   10  N   UNL     1      -7.271   2.947  68.119  1.00  0.00    -0.049 NA 
ENDROOT
BRANCH   3  11
HETATM   11  N   UNL     1      -9.349   6.973  69.771  1.00  0.00    -0.147 NA 
HETATM   12  H   UNL     1      -8.771   7.805  69.654  1.00  0.00     0.000 HD 
BRANCH  11  13
HETATM   13  C   UNL     1     -10.100   6.919  70.904  1.00  0.00    -0.194 C  
HETATM   14  C   UNL     1     -10.997   7.930  72.738  1.00  0.00    -0.393 C  
HETATM   15  N   UNL     1     -10.183   8.122  71.552  1.00  0.00    -0.197 NA 
HETATM   16  C   UNL     1     -11.531   6.515  72.530  1.00  0.00    -0.239 C  
HETATM   17  N   UNL     1     -10.695   5.911  71.470  1.00  0.00    -0.248 NA 
ENDBRANCH  11  13
ENDBRANCH   3  11
TORSDOF 2
ENDMDL
MODEL      165
REMARK 921   NORMALIZED FREE ENERGY PREDICTED BY IDOCK:   -2.39 KCAL/MOL
REMARK 922        TOTAL FREE ENERGY PREDICTED BY IDOCK:   -3.01 KCAL/MOL
REMARK 923 INTER-LIGAND FREE ENERGY PREDICTED BY IDOCK:   -2.69 KCAL/MOL
REMARK 924 INTRA-LIGAND FREE ENERGY PREDICTED BY IDOCK:   -0.32 KCAL/MOL
REMARK 927      BINDING AFFINITY PREDICTED BY RF-SCORE:    0.00 PKD
ROOT
HETATM    1 CL   UNL     1     -10.965  11.357  69.639  1.00  0.00    -0.224 Cl 
HETATM    2  C   UNL     1      -9.924  10.313  68.716  1.00  0.00    -0.179 A  
HETATM    3  C   UNL     1      -9.108   9.320  69.328  1.00  0.00    -0.151 A  
HETATM    4  C   UNL     1      -8.100   8.808  68.446  1.00  0.00    -0.117 A  
HETATM    5  C   UNL     1      -9.858  10.661  67.334  1.00  0.00    -0.198 A  
HETATM    6  N   UNL     1      -7.141   7.931  68.798  1.00  0.00    -0.070 NA 
HETATM    7  C   UNL     1      -8.926  10.126  66.436  1.00  0.00    -0.163 A  
HETATM    8  C   UNL     1      -8.008   9.219  67.000  1.00  0.00    -0.102 A  
HETATM    9  S   UNL     1      -6.201   7.687  67.451  1.00  0.00    -0.054 SA 
HETATM   10  N   UNL     1      -6.986   8.645  66.349  1.00  0.00    -0.077 NA 
ENDROOT
BRANCH   3  11
HETATM   11  N   UNL     1      -9.149   8.857  70.653  1.00  0.00    -0.187 NA 
HETATM   12  H   UNL     1      -8.433   9.222  71.280  1.00  0.00     0.000 HD 
BRANCH  11  13
HETATM   13  C   UNL     1     -10.032   7.977  71.200  1.00  0.00    -0.174 C  
HETATM   14  C   UNL     1     -10.992   5.912  71.263  1.00  0.00    -0.259 C  
HETATM   15  N   UNL     1     -10.008   6.746  70.599  1.00  0.00    -0.187 NA 
HETATM   16  C   UNL     1     -11.395   6.782  72.451  1.00  0.00    -0.268 C  
HETATM   17  N   UNL     1     -10.902   8.143  72.151  1.00  0.00    -0.279 NA 
ENDBRANCH  11  13
ENDBRANCH   3  11
TORSDOF 2
ENDMDL
MODEL      166
REMARK 921   NORMALIZED FREE ENERGY PREDICTED BY IDOCK:   -2.30 KCAL/MOL
REMARK 922        TOTAL FREE ENERGY PREDICTED BY IDOCK:   -2.91 KCAL/MOL
REMARK 923 INTER-LIGAND FREE ENERGY PREDICTED BY IDOCK:   -2.61 KCAL/MOL
REMARK 924 INTRA-LIGAND FREE ENERGY PREDICTED BY IDOCK:   -0.30 KCAL/MOL
REMARK 927      BINDING AFFINITY PREDICTED BY RF-SCORE:    0.00 PKD
ROOT
HETATM    1 CL   UNL     1      -8.218   7.954  74.362  1.00  0.00    -0.285 Cl 
HETATM    2  C   UNL     1      -7.608   7.770  72.742  1.00  0.00    -0.104 A  
HETATM    3  C   UNL     1      -8.398   7.228  71.690  1.00  0.00    -0.108 A  
HETATM    4  C   UNL     1      -7.620   6.860  70.543  1.00  0.00    -0.091 A  
HETATM    5  C   UNL     1      -6.216   8.063  72.627  1.00  0.00    -0.066 A  
HETATM    6  N   UNL     1      -8.104   6.241  69.450  1.00  0.00    -0.112 NA 
HETATM    7  C   UNL     1      -5.447   7.773  71.494  1.00  0.00    -0.035 A  
HETATM    8  C   UNL     1      -6.140   7.128  70.452  1.00  0.00    -0.027 A  
HETATM    9  S   UNL     1      -6.814   5.992  68.434  1.00  0.00    -0.076 SA 
HETATM   10  N   UNL     1      -5.591   6.690  69.309  1.00  0.00    -0.014 NA 
ENDROOT
BRANCH   3  11
HETATM   11  N   UNL     1      -9.780   6.977  71.681  1.00  0.00    -0.161 NA 
HETATM   12  H   UNL     1     -10.059   5.996  71.701  1.00  0.00     0.000 HD 
BRANCH  11  13
HETATM   13  C   UNL     1     -10.791   7.887  71.649  1.00  0.00    -0.232 C  
HETATM   14  C   UNL     1     -13.007   8.383  71.460  1.00  0.00    -0.301 C  
HETATM   15  N   UNL     1     -12.025   7.316  71.486  1.00  0.00    -0.298 NA 
HETATM   16  C   UNL     1     -12.167   9.596  71.854  1.00  0.00    -0.336 C  
HETATM   17  N   UNL     1     -10.754   9.185  71.702  1.00  0.00    -0.365 NA 
ENDBRANCH  11  13
ENDBRANCH   3  11
TORSDOF 2
ENDMDL
MODEL      167
REMARK 921   NORMALIZED FREE ENERGY PREDICTED BY IDOCK:   -2.28 KCAL/MOL
REMARK 922        TOTAL FREE ENERGY PREDICTED BY IDOCK:   -2.89 KCAL/MOL
REMARK 923 INTER-LIGAND FREE ENERGY PREDICTED BY IDOCK:   -2.58 KCAL/MOL
REMARK 924 INTRA-LIGAND FREE ENERGY PREDICTED BY IDOCK:   -0.31 KCAL/MOL
REMARK 927      BINDING AFFINITY PREDICTED BY RF-SCORE:    0.00 PKD
ROOT
HETATM    1 CL   UNL     1      -7.444   5.749  69.518  1.00  0.00    -0.074 Cl 
HETATM    2  C   UNL     1      -8.618   7.032  69.474  1.00  0.00    -0.134 A  
HETATM    3  C   UNL     1      -9.308   7.390  68.281  1.00  0.00    -0.140 A  
HETATM    4  C   UNL     1      -9.967   8.659  68.380  1.00  0.00    -0.184 A  
HETATM    5  C   UNL     1      -8.693   7.770  70.692  1.00  0.00    -0.139 A  
HETATM    6  N   UNL     1     -10.610   9.275  67.369  1.00  0.00    -0.278 NA 
HETATM    7  C   UNL     1      -9.385   8.980  70.833  1.00  0.00    -0.326 A  
HETATM    8  C   UNL     1      -9.998   9.456  69.658  1.00  0.00    -0.197 A  
HETATM    9  S   UNL     1     -11.158  10.724  67.967  1.00  0.00    -0.316 SA 
HETATM   10  N   UNL     1     -10.645  10.624  69.540  1.00  0.00    -0.236 NA 
ENDROOT
BRANCH   3  11
HETATM   11  N   UNL     1      -9.358   6.693  67.063  1.00  0.00    -0.136 NA 
HETATM   12  H   UNL     1     -10.240   6.229  66.846  1.00  0.00     0.000 HD 
BRANCH  11  13
HETATM   13  C   UNL     1      -8.368   6.562  66.138  1.00  0.00    -0.129 C  
HETATM   14  C   UNL     1      -6.712   7.470  64.864  1.00  0.00    -0.047 C  
HETATM   15  N   UNL     1      -7.729   7.741  65.862  1.00  0.00    -0.090 NA 
HETATM   16  C   UNL     1      -6.734   5.945  64.796  1.00  0.00    -0.046 C  
HETATM   17  N   UNL     1      -7.984   5.520  65.461  1.00  0.00    -0.106 NA 
ENDBRANCH  11  13
ENDBRANCH   3  11
TORSDOF 2
ENDMDL
MODEL      168
REMARK 921   NORMALIZED FREE ENERGY PREDICTED BY IDOCK:   -1.92 KCAL/MOL
REMARK 922        TOTAL FREE ENERGY PREDICTED BY IDOCK:   -2.49 KCAL/MOL
REMARK 923 INTER-LIGAND FREE ENERGY PREDICTED BY IDOCK:   -2.27 KCAL/MOL
REMARK 924 INTRA-LIGAND FREE ENERGY PREDICTED BY IDOCK:   -0.22 KCAL/MOL
REMARK 927      BINDING AFFINITY PREDICTED BY RF-SCORE:    0.00 PKD
ROOT
HETATM    1 CL   UNL     1     -11.094  13.334  67.058  1.00  0.00    -0.291 Cl 
HETATM    2  C   UNL     1      -9.441  13.318  67.602  1.00  0.00    -0.211 A  
HETATM    3  C   UNL     1      -8.824  12.146  68.121  1.00  0.00    -0.187 A  
HETATM    4  C   UNL     1      -7.595  12.422  68.808  1.00  0.00    -0.033 A  
HETATM    5  C   UNL     1      -8.841  14.613  67.620  1.00  0.00    -0.184 A  
HETATM    6  N   UNL     1      -6.861  11.509  69.471  1.00  0.00    -0.106 NA 
HETATM    7  C   UNL     1      -7.611  14.897  68.227  1.00  0.00    -0.113 A  
HETATM    8  C   UNL     1      -6.995  13.803  68.864  1.00  0.00    -0.111 A  
HETATM    9  S   UNL     1      -5.570  12.323  70.127  1.00  0.00    -0.155 SA 
HETATM   10  N   UNL     1      -5.856  13.858  69.571  1.00  0.00    -0.093 NA 
ENDROOT
BRANCH   3  11
HETATM   11  N   UNL     1      -9.297  10.824  68.083  1.00  0.00    -0.150 NA 
HETATM   12  H   UNL     1     -10.055  10.599  68.728  1.00  0.00     0.000 HD 
BRANCH  11  13
HETATM   13  C   UNL     1      -8.864   9.808  67.289  1.00  0.00    -0.132 C  
HETATM   14  C   UNL     1      -8.899   7.611  66.684  1.00  0.00    -0.142 C  
HETATM   15  N   UNL     1      -9.447   8.605  67.587  1.00  0.00    -0.139 NA 
HETATM   16  C   UNL     1      -8.106   8.476  65.707  1.00  0.00    -0.116 C  
HETATM   17  N   UNL     1      -7.968   9.802  66.347  1.00  0.00    -0.108 NA 
ENDBRANCH  11  13
ENDBRANCH   3  11
TORSDOF 2
ENDMDL
MODEL      169
REMARK 921   NORMALIZED FREE ENERGY PREDICTED BY IDOCK:   -1.88 KCAL/MOL
REMARK 922        TOTAL FREE ENERGY PREDICTED BY IDOCK:   -2.45 KCAL/MOL
REMARK 923 INTER-LIGAND FREE ENERGY PREDICTED BY IDOCK:   -2.39 KCAL/MOL
REMARK 924 INTRA-LIGAND FREE ENERGY PREDICTED BY IDOCK:   -0.06 KCAL/MOL
REMARK 927      BINDING AFFINITY PREDICTED BY RF-SCORE:    0.00 PKD
ROOT
HETATM    1 CL   UNL     1      -7.669   8.136  67.674  1.00  0.00    -0.101 Cl 
HETATM    2  C   UNL     1      -8.853   8.492  68.900  1.00  0.00    -0.139 A  
HETATM    3  C   UNL     1      -8.870   7.823  70.156  1.00  0.00    -0.145 A  
HETATM    4  C   UNL     1     -10.096   8.018  70.873  1.00  0.00    -0.191 A  
HETATM    5  C   UNL     1      -9.871   9.388  68.457  1.00  0.00    -0.171 A  
HETATM    6  N   UNL     1     -10.411   7.423  72.039  1.00  0.00    -0.191 NA 
HETATM    7  C   UNL     1     -11.049   9.647  69.170  1.00  0.00    -0.123 A  
HETATM    8  C   UNL     1     -11.188   8.928  70.372  1.00  0.00    -0.230 A  
HETATM    9  S   UNL     1     -11.941   7.932  72.436  1.00  0.00    -0.288 SA 
HETATM   10  N   UNL     1     -12.262   8.959  71.175  1.00  0.00    -0.282 NA 
ENDROOT
BRANCH   3  11
HETATM   11  N   UNL     1      -7.886   6.988  70.709  1.00  0.00    -0.095 NA 
HETATM   12  H   UNL     1      -6.973   7.413  70.871  1.00  0.00     0.000 HD 
BRANCH  11  13
HETATM   13  C   UNL     1      -8.006   5.677  71.056  1.00  0.00    -0.111 C  
HETATM   14  C   UNL     1      -7.664   3.978  72.536  1.00  0.00    -0.074 C  
HETATM   15  N   UNL     1      -7.483   5.397  72.291  1.00  0.00    -0.094 NA 
HETATM   16  C   UNL     1      -8.555   3.566  71.366  1.00  0.00    -0.076 C  
HETATM   17  N   UNL     1      -8.488   4.672  70.387  1.00  0.00    -0.078 NA 
ENDBRANCH  11  13
ENDBRANCH   3  11
TORSDOF 2
ENDMDL
MODEL      170
REMARK 921   NORMALIZED FREE ENERGY PREDICTED BY IDOCK:   -1.88 KCAL/MOL
REMARK 922        TOTAL FREE ENERGY PREDICTED BY IDOCK:   -2.44 KCAL/MOL
REMARK 923 INTER-LIGAND FREE ENERGY PREDICTED BY IDOCK:   -2.19 KCAL/MOL
REMARK 924 INTRA-LIGAND FREE ENERGY PREDICTED BY IDOCK:   -0.25 KCAL/MOL
REMARK 927      BINDING AFFINITY PREDICTED BY RF-SCORE:    0.00 PKD
ROOT
HETATM    1 CL   UNL     1     -10.661   8.374  66.888  1.00  0.00    -0.350 Cl 
HETATM    2  C   UNL     1      -9.797   6.865  66.940  1.00  0.00    -0.183 A  
HETATM    3  C   UNL     1      -8.385   6.803  67.113  1.00  0.00    -0.121 A  
HETATM    4  C   UNL     1      -7.842   5.514  66.799  1.00  0.00    -0.101 A  
HETATM    5  C   UNL     1     -10.615   5.736  66.639  1.00  0.00    -0.347 A  
HETATM    6  N   UNL     1      -6.530   5.212  66.787  1.00  0.00    -0.040 NA 
HETATM    7  C   UNL     1     -10.115   4.451  66.393  1.00  0.00    -0.235 A  
HETATM    8  C   UNL     1      -8.712   4.340  66.432  1.00  0.00    -0.113 A  
HETATM    9  S   UNL     1      -6.412   3.622  66.323  1.00  0.00    -0.037 SA 
HETATM   10  N   UNL     1      -8.014   3.229  66.154  1.00  0.00    -0.087 NA 
ENDROOT
BRANCH   3  11
HETATM   11  N   UNL     1      -7.509   7.837  67.482  1.00  0.00    -0.095 NA 
HETATM   12  H   UNL     1      -7.186   7.829  68.450  1.00  0.00     0.000 HD 
BRANCH  11  13
HETATM   13  C   UNL     1      -7.038   8.848  66.702  1.00  0.00    -0.084 C  
HETATM   14  C   UNL     1      -6.876   9.879  64.677  1.00  0.00    -0.126 C  
HETATM   15  N   UNL     1      -7.448   8.758  65.398  1.00  0.00    -0.085 NA 
HETATM   16  C   UNL     1      -6.285  10.715  65.809  1.00  0.00    -0.126 C  
HETATM   17  N   UNL     1      -6.242   9.832  66.995  1.00  0.00    -0.063 NA 
ENDBRANCH  11  13
ENDBRANCH   3  11
TORSDOF 2
ENDMDL
MODEL      171
REMARK 921   NORMALIZED FREE ENERGY PREDICTED BY IDOCK:   -1.77 KCAL/MOL
REMARK 922        TOTAL FREE ENERGY PREDICTED BY IDOCK:   -2.32 KCAL/MOL
REMARK 923 INTER-LIGAND FREE ENERGY PREDICTED BY IDOCK:   -3.36 KCAL/MOL
REMARK 924 INTRA-LIGAND FREE ENERGY PREDICTED BY IDOCK:    1.04 KCAL/MOL
REMARK 927      BINDING AFFINITY PREDICTED BY RF-SCORE:    0.00 PKD
ROOT
HETATM    1 CL   UNL     1     -11.750  14.738  64.453  1.00  0.00    -0.379 Cl 
HETATM    2  C   UNL     1     -10.609  15.771  65.263  1.00  0.00    -0.423 A  
HETATM    3  C   UNL     1      -9.521  15.254  66.021  1.00  0.00    -0.337 A  
HETATM    4  C   UNL     1      -8.911  16.241  66.864  1.00  0.00    -0.217 A  
HETATM    5  C   UNL     1     -10.967  17.151  65.219  1.00  0.00     0.031 A  
HETATM    6  N   UNL     1      -7.927  15.997  67.750  1.00  0.00    -0.136 NA 
HETATM    7  C   UNL     1     -10.344  18.147  65.983  1.00  0.00    -0.360 A  
HETATM    8  C   UNL     1      -9.331  17.688  66.846  1.00  0.00    -0.264 A  
HETATM    9  S   UNL     1      -7.598  17.439  68.505  1.00  0.00    -0.261 SA 
HETATM   10  N   UNL     1      -8.655  18.447  67.721  1.00  0.00    -0.263 NA 
ENDROOT
BRANCH   3  11
HETATM   11  N   UNL     1      -9.046  13.933  66.070  1.00  0.00    -0.472 NA 
HETATM   12  H   UNL     1      -9.367  13.312  65.328  1.00  0.00     0.000 HD 
BRANCH  11  13
HETATM   13  C   UNL     1      -8.208  13.384  66.991  1.00  0.00    -0.035 C  
HETATM   14  C   UNL     1      -7.870  12.176  68.893  1.00  0.00     0.070 C  
HETATM   15  N   UNL     1      -8.867  12.700  67.979  1.00  0.00    -0.188 NA 
HETATM   16  C   UNL     1      -6.570  12.474  68.150  1.00  0.00    -0.077 C  
HETATM   17  N   UNL     1      -6.914  13.451  67.094  1.00  0.00    -0.044 NA 
ENDBRANCH  11  13
ENDBRANCH   3  11
TORSDOF 2
ENDMDL
MODEL      172
REMARK 921   NORMALIZED FREE ENERGY PREDICTED BY IDOCK:   -1.76 KCAL/MOL
REMARK 922        TOTAL FREE ENERGY PREDICTED BY IDOCK:   -2.31 KCAL/MOL
REMARK 923 INTER-LIGAND FREE ENERGY PREDICTED BY IDOCK:   -1.96 KCAL/MOL
REMARK 924 INTRA-LIGAND FREE ENERGY PREDICTED BY IDOCK:   -0.34 KCAL/MOL
REMARK 927      BINDING AFFINITY PREDICTED BY RF-SCORE:    0.00 PKD
ROOT
HETATM    1 CL   UNL     1      -9.051  10.353  69.017  1.00  0.00    -0.181 Cl 
HETATM    2  C   UNL     1      -8.726   9.922  67.362  1.00  0.00    -0.128 A  
HETATM    3  C   UNL     1      -8.095   8.698  67.006  1.00  0.00    -0.100 A  
HETATM    4  C   UNL     1      -7.628   8.686  65.651  1.00  0.00    -0.086 A  
HETATM    5  C   UNL     1      -9.009  10.973  66.440  1.00  0.00    -0.190 A  
HETATM    6  N   UNL     1      -6.916   7.691  65.089  1.00  0.00    -0.054 NA 
HETATM    7  C   UNL     1      -8.621  10.959  65.094  1.00  0.00    -0.081 A  
HETATM    8  C   UNL     1      -7.888   9.824  64.698  1.00  0.00    -0.136 A  
HETATM    9  S   UNL     1      -6.579   8.166  63.533  1.00  0.00    -0.076 SA 
HETATM   10  N   UNL     1      -7.351   9.632  63.484  1.00  0.00    -0.109 NA 
ENDROOT
BRANCH   3  11
HETATM   11  N   UNL     1      -7.844   7.580  67.819  1.00  0.00    -0.115 NA 
HETATM   12  H   UNL     1      -6.905   7.510  68.211  1.00  0.00     0.000 HD 
BRANCH  11  13
HETATM   13  C   UNL     1      -8.706   6.579  68.148  1.00  0.00    -0.117 C  
HETATM   14  C   UNL     1     -10.322   5.719  69.504  1.00  0.00    -0.263 C  
HETATM   15  N   UNL     1      -9.459   6.859  69.257  1.00  0.00    -0.147 NA 
HETATM   16  C   UNL     1     -10.098   4.875  68.252  1.00  0.00    -0.075 C  
HETATM   17  N   UNL     1      -8.879   5.410  67.606  1.00  0.00    -0.106 NA 
ENDBRANCH  11  13
ENDBRANCH   3  11
TORSDOF 2
ENDMDL
MODEL      173
REMARK 921   NORMALIZED FREE ENERGY PREDICTED BY IDOCK:   -1.64 KCAL/MOL
REMARK 922        TOTAL FREE ENERGY PREDICTED BY IDOCK:   -2.18 KCAL/MOL
REMARK 923 INTER-LIGAND FREE ENERGY PREDICTED BY IDOCK:   -2.15 KCAL/MOL
REMARK 924 INTRA-LIGAND FREE ENERGY PREDICTED BY IDOCK:   -0.03 KCAL/MOL
REMARK 927      BINDING AFFINITY PREDICTED BY RF-SCORE:    0.00 PKD
ROOT
HETATM    1 CL   UNL     1      -8.970   9.562  68.469  1.00  0.00    -0.127 Cl 
HETATM    2  C   UNL     1      -8.951   9.684  66.733  1.00  0.00    -0.138 A  
HETATM    3  C   UNL     1      -7.757   9.535  65.974  1.00  0.00    -0.100 A  
HETATM    4  C   UNL     1      -7.896   9.994  64.623  1.00  0.00    -0.145 A  
HETATM    5  C   UNL     1     -10.201  10.098  66.184  1.00  0.00    -0.285 A  
HETATM    6  N   UNL     1      -6.897  10.054  63.722  1.00  0.00    -0.126 NA 
HETATM    7  C   UNL     1     -10.379  10.489  64.851  1.00  0.00    -0.307 A  
HETATM    8  C   UNL     1      -9.210  10.478  64.066  1.00  0.00    -0.253 A  
HETATM    9  S   UNL     1      -7.547  10.691  62.332  1.00  0.00    -0.112 SA 
HETATM   10  N   UNL     1      -9.128  10.883  62.790  1.00  0.00    -0.299 NA 
ENDROOT
BRANCH   3  11
HETATM   11  N   UNL     1      -6.506   9.065  66.405  1.00  0.00    -0.065 NA 
HETATM   12  H   UNL     1      -5.696   9.395  65.880  1.00  0.00     0.000 HD 
BRANCH  11  13
HETATM   13  C   UNL     1      -6.245   8.220  67.439  1.00  0.00    -0.056 C  
HETATM   14  C   UNL     1      -5.550   7.861  69.580  1.00  0.00    -0.026 C  
HETATM   15  N   UNL     1      -5.798   8.865  68.562  1.00  0.00    -0.041 NA 
HETATM   16  C   UNL     1      -6.135   6.607  68.935  1.00  0.00    -0.026 C  
HETATM   17  N   UNL     1      -6.312   6.923  67.502  1.00  0.00    -0.043 NA 
ENDBRANCH  11  13
ENDBRANCH   3  11
TORSDOF 2
ENDMDL
MODEL      174
REMARK 921   NORMALIZED FREE ENERGY PREDICTED BY IDOCK:   -1.59 KCAL/MOL
REMARK 922        TOTAL FREE ENERGY PREDICTED BY IDOCK:   -2.12 KCAL/MOL
REMARK 923 INTER-LIGAND FREE ENERGY PREDICTED BY IDOCK:   -1.84 KCAL/MOL
REMARK 924 INTRA-LIGAND FREE ENERGY PREDICTED BY IDOCK:   -0.29 KCAL/MOL
REMARK 927      BINDING AFFINITY PREDICTED BY RF-SCORE:    0.00 PKD
ROOT
HETATM    1 CL   UNL     1     -10.511   8.968  66.458  1.00  0.00    -0.260 Cl 
HETATM    2  C   UNL     1      -9.726   8.916  68.011  1.00  0.00    -0.156 A  
HETATM    3  C   UNL     1      -8.382   9.344  68.197  1.00  0.00    -0.119 A  
HETATM    4  C   UNL     1      -7.831   8.916  69.449  1.00  0.00    -0.098 A  
HETATM    5  C   UNL     1     -10.504   8.265  69.014  1.00  0.00    -0.212 A  
HETATM    6  N   UNL     1      -6.554   9.104  69.834  1.00  0.00    -0.045 NA 
HETATM    7  C   UNL     1     -10.008   7.894  70.270  1.00  0.00    -0.189 A  
HETATM    8  C   UNL     1      -8.647   8.184  70.482  1.00  0.00    -0.130 A  
HETATM    9  S   UNL     1      -6.398   8.395  71.328  1.00  0.00    -0.047 SA 
HETATM   10  N   UNL     1      -7.944   7.852  71.575  1.00  0.00    -0.094 NA 
ENDROOT
BRANCH   3  11
HETATM   11  N   UNL     1      -7.564  10.055  67.303  1.00  0.00    -0.095 NA 
HETATM   12  H   UNL     1      -7.398  11.036  67.529  1.00  0.00     0.000 HD 
BRANCH  11  13
HETATM   13  C   UNL     1      -6.968   9.591  66.172  1.00  0.00    -0.091 C  
HETATM   14  C   UNL     1      -6.205   7.863  64.898  1.00  0.00    -0.045 C  
HETATM   15  N   UNL     1      -6.861   8.226  66.140  1.00  0.00    -0.057 NA 
HETATM   16  C   UNL     1      -6.170   9.197  64.157  1.00  0.00    -0.076 C  
HETATM   17  N   UNL     1      -6.455  10.238  65.167  1.00  0.00    -0.122 NA 
ENDBRANCH  11  13
ENDBRANCH   3  11
TORSDOF 2
ENDMDL
MODEL      175
REMARK 921   NORMALIZED FREE ENERGY PREDICTED BY IDOCK:   -1.58 KCAL/MOL
REMARK 922        TOTAL FREE ENERGY PREDICTED BY IDOCK:   -2.11 KCAL/MOL
REMARK 923 INTER-LIGAND FREE ENERGY PREDICTED BY IDOCK:   -2.47 KCAL/MOL
REMARK 924 INTRA-LIGAND FREE ENERGY PREDICTED BY IDOCK:    0.37 KCAL/MOL
REMARK 927      BINDING AFFINITY PREDICTED BY RF-SCORE:    0.00 PKD
ROOT
HETATM    1 CL   UNL     1     -10.028   8.274  68.156  1.00  0.00    -0.209 Cl 
HETATM    2  C   UNL     1     -10.278   7.597  69.740  1.00  0.00    -0.210 A  
HETATM    3  C   UNL     1      -9.209   7.069  70.517  1.00  0.00    -0.159 A  
HETATM    4  C   UNL     1      -9.664   6.275  71.621  1.00  0.00    -0.161 A  
HETATM    5  C   UNL     1     -11.655   7.487  70.095  1.00  0.00    -0.046 A  
HETATM    6  N   UNL     1      -8.864   5.585  72.456  1.00  0.00    -0.130 NA 
HETATM    7  C   UNL     1     -12.122   6.772  71.206  1.00  0.00    -0.421 A  
HETATM    8  C   UNL     1     -11.125   6.124  71.958  1.00  0.00    -0.274 A  
HETATM    9  S   UNL     1      -9.860   4.799  73.528  1.00  0.00    -0.150 SA 
HETATM   10  N   UNL     1     -11.345   5.325  73.013  1.00  0.00    -0.320 NA 
ENDROOT
BRANCH   3  11
HETATM   11  N   UNL     1      -7.828   7.190  70.292  1.00  0.00    -0.102 NA 
HETATM   12  H   UNL     1      -7.522   7.114  69.322  1.00  0.00     0.000 HD 
BRANCH  11  13
HETATM   13  C   UNL     1      -6.850   7.396  71.215  1.00  0.00    -0.050 C  
HETATM   14  C   UNL     1      -6.062   8.469  73.064  1.00  0.00    -0.087 C  
HETATM   15  N   UNL     1      -7.183   8.337  72.153  1.00  0.00    -0.091 NA 
HETATM   16  C   UNL     1      -5.164   7.313  72.631  1.00  0.00    -0.037 C  
HETATM   17  N   UNL     1      -5.661   6.879  71.307  1.00  0.00    -0.028 NA 
ENDBRANCH  11  13
ENDBRANCH   3  11
TORSDOF 2
ENDMDL
MODEL      176
REMARK 921   NORMALIZED FREE ENERGY PREDICTED BY IDOCK:   -1.57 KCAL/MOL
REMARK 922        TOTAL FREE ENERGY PREDICTED BY IDOCK:   -2.10 KCAL/MOL
REMARK 923 INTER-LIGAND FREE ENERGY PREDICTED BY IDOCK:   -1.76 KCAL/MOL
REMARK 924 INTRA-LIGAND FREE ENERGY PREDICTED BY IDOCK:   -0.33 KCAL/MOL
REMARK 927      BINDING AFFINITY PREDICTED BY RF-SCORE:    0.00 PKD
ROOT
HETATM    1 CL   UNL     1      -6.967   6.001  69.556  1.00  0.00    -0.065 Cl 
HETATM    2  C   UNL     1      -6.785   7.632  70.136  1.00  0.00    -0.049 A  
HETATM    3  C   UNL     1      -6.818   8.756  69.264  1.00  0.00    -0.050 A  
HETATM    4  C   UNL     1      -6.326   9.953  69.881  1.00  0.00    -0.063 A  
HETATM    5  C   UNL     1      -6.448   7.703  71.520  1.00  0.00    -0.038 A  
HETATM    6  N   UNL     1      -6.161  11.133  69.253  1.00  0.00    -0.050 NA 
HETATM    7  C   UNL     1      -6.027   8.874  72.163  1.00  0.00    -0.072 A  
HETATM    8  C   UNL     1      -5.924  10.006  71.332  1.00  0.00     0.088 A  
HETATM    9  S   UNL     1      -5.528  12.184  70.373  1.00  0.00    -0.162 SA 
HETATM   10  N   UNL     1      -5.470  11.209  71.713  1.00  0.00    -0.331 NA 
ENDROOT
BRANCH   3  11
HETATM   11  N   UNL     1      -7.208   8.800  67.915  1.00  0.00    -0.083 NA 
HETATM   12  H   UNL     1      -6.453   8.803  67.229  1.00  0.00     0.000 HD 
BRANCH  11  13
HETATM   13  C   UNL     1      -8.472   8.839  67.415  1.00  0.00    -0.116 C  
HETATM   14  C   UNL     1     -10.014   9.720  65.987  1.00  0.00    -0.272 C  
HETATM   15  N   UNL     1      -8.632   9.772  66.425  1.00  0.00    -0.123 NA 
HETATM   16  C   UNL     1     -10.530   8.481  66.714  1.00  0.00    -0.238 C  
HETATM   17  N   UNL     1      -9.533   8.173  67.762  1.00  0.00    -0.140 NA 
ENDBRANCH  11  13
ENDBRANCH   3  11
TORSDOF 2
ENDMDL
MODEL      177
REMARK 921   NORMALIZED FREE ENERGY PREDICTED BY IDOCK:   -1.46 KCAL/MOL
REMARK 922        TOTAL FREE ENERGY PREDICTED BY IDOCK:   -1.97 KCAL/MOL
REMARK 923 INTER-LIGAND FREE ENERGY PREDICTED BY IDOCK:   -1.65 KCAL/MOL
REMARK 924 INTRA-LIGAND FREE ENERGY PREDICTED BY IDOCK:   -0.32 KCAL/MOL
REMARK 927      BINDING AFFINITY PREDICTED BY RF-SCORE:    0.00 PKD
ROOT
HETATM    1 CL   UNL     1      -6.919   6.320  73.742  1.00  0.00    -0.082 Cl 
HETATM    2  C   UNL     1      -6.943   6.648  72.033  1.00  0.00    -0.072 A  
HETATM    3  C   UNL     1      -7.783   5.933  71.134  1.00  0.00    -0.109 A  
HETATM    4  C   UNL     1      -7.415   6.121  69.761  1.00  0.00    -0.081 A  
HETATM    5  C   UNL     1      -5.939   7.575  71.623  1.00  0.00    -0.036 A  
HETATM    6  N   UNL     1      -7.983   5.488  68.717  1.00  0.00    -0.094 NA 
HETATM    7  C   UNL     1      -5.605   7.827  70.286  1.00  0.00    -0.023 A  
HETATM    8  C   UNL     1      -6.319   7.065  69.341  1.00  0.00    -0.035 A  
HETATM    9  S   UNL     1      -7.186   6.006  67.355  1.00  0.00    -0.077 SA 
HETATM   10  N   UNL     1      -6.114   7.084  68.016  1.00  0.00    -0.032 NA 
ENDROOT
BRANCH   3  11
HETATM   11  N   UNL     1      -8.842   5.062  71.440  1.00  0.00    -0.133 NA 
HETATM   12  H   UNL     1      -8.670   4.070  71.276  1.00  0.00     0.000 HD 
BRANCH  11  13
HETATM   13  C   UNL     1     -10.070   5.385  71.929  1.00  0.00    -0.193 C  
HETATM   14  C   UNL     1     -11.830   6.824  72.077  1.00  0.00    -0.314 C  
HETATM   15  N   UNL     1     -10.527   6.596  71.480  1.00  0.00    -0.214 NA 
HETATM   16  C   UNL     1     -12.119   5.476  72.733  1.00  0.00     0.066 C  
HETATM   17  N   UNL     1     -10.830   4.753  72.773  1.00  0.00    -0.219 NA 
ENDBRANCH  11  13
ENDBRANCH   3  11
TORSDOF 2
ENDMDL
MODEL      178
REMARK 921   NORMALIZED FREE ENERGY PREDICTED BY IDOCK:   -1.33 KCAL/MOL
REMARK 922        TOTAL FREE ENERGY PREDICTED BY IDOCK:   -1.82 KCAL/MOL
REMARK 923 INTER-LIGAND FREE ENERGY PREDICTED BY IDOCK:   -2.42 KCAL/MOL
REMARK 924 INTRA-LIGAND FREE ENERGY PREDICTED BY IDOCK:    0.60 KCAL/MOL
REMARK 927      BINDING AFFINITY PREDICTED BY RF-SCORE:    0.00 PKD
ROOT
HETATM    1 CL   UNL     1      -5.282  16.274  70.657  1.00  0.00    -0.190 Cl 
HETATM    2  C   UNL     1      -5.975  14.879  69.879  1.00  0.00    -0.132 A  
HETATM    3  C   UNL     1      -7.276  14.899  69.302  1.00  0.00    -0.172 A  
HETATM    4  C   UNL     1      -7.778  13.587  69.017  1.00  0.00     0.118 A  
HETATM    5  C   UNL     1      -5.182  13.702  70.022  1.00  0.00    -0.094 A  
HETATM    6  N   UNL     1      -9.015  13.317  68.557  1.00  0.00    -0.115 NA 
HETATM    7  C   UNL     1      -5.625  12.415  69.690  1.00  0.00    -0.092 A  
HETATM    8  C   UNL     1      -6.950  12.344  69.219  1.00  0.00     0.021 A  
HETATM    9  S   UNL     1      -9.126  11.665  68.433  1.00  0.00    -0.157 SA 
HETATM   10  N   UNL     1      -7.605  11.215  68.915  1.00  0.00    -0.128 NA 
ENDROOT
BRANCH   3  11
HETATM   11  N   UNL     1      -8.098  16.009  69.050  1.00  0.00    -0.215 NA 
HETATM   12  H   UNL     1      -7.620  16.894  68.878  1.00  0.00     0.000 HD 
BRANCH  11  13
HETATM   13  C   UNL     1      -9.458  16.045  69.009  1.00  0.00    -0.243 C  
HETATM   14  C   UNL     1     -11.398  16.450  67.884  1.00  0.00    -0.095 C  
HETATM   15  N   UNL     1      -9.950  16.444  67.795  1.00  0.00    -0.244 NA 
HETATM   16  C   UNL     1     -11.633  15.786  69.238  1.00  0.00    -0.373 C  
HETATM   17  N   UNL     1     -10.332  15.809  69.941  1.00  0.00    -0.310 NA 
ENDBRANCH  11  13
ENDBRANCH   3  11
TORSDOF 2
ENDMDL
MODEL      179
REMARK 921   NORMALIZED FREE ENERGY PREDICTED BY IDOCK:    6.22 KCAL/MOL
REMARK 922        TOTAL FREE ENERGY PREDICTED BY IDOCK:    6.61 KCAL/MOL
REMARK 923 INTER-LIGAND FREE ENERGY PREDICTED BY IDOCK:    3.41 KCAL/MOL
REMARK 924 INTRA-LIGAND FREE ENERGY PREDICTED BY IDOCK:    3.20 KCAL/MOL
REMARK 927      BINDING AFFINITY PREDICTED BY RF-SCORE:    0.00 PKD
ROOT
HETATM    1 CL   UNL     1      -6.348  13.413  67.922  1.00  0.00    -0.135 Cl 
HETATM    2  C   UNL     1      -6.405  11.686  68.131  1.00  0.00    -0.050 A  
HETATM    3  C   UNL     1      -7.443  10.888  67.574  1.00  0.00    -0.097 A  
HETATM    4  C   UNL     1      -7.488   9.567  68.131  1.00  0.00    -0.079 A  
HETATM    5  C   UNL     1      -5.414  11.194  69.032  1.00  0.00    -0.040 A  
HETATM    6  N   UNL     1      -8.427   8.644  67.850  1.00  0.00    -0.129 NA 
HETATM    7  C   UNL     1      -5.397   9.889  69.540  1.00  0.00    -0.034 A  
HETATM    8  C   UNL     1      -6.465   9.073  69.121  1.00  0.00    -0.043 A  
HETATM    9  S   UNL     1      -8.072   7.308  68.771  1.00  0.00    -0.125 SA 
HETATM   10  N   UNL     1      -6.694   7.819  69.538  1.00  0.00    -0.042 NA 
ENDROOT
BRANCH   3  11
HETATM   11  N   UNL     1      -8.413  11.258  66.628  1.00  0.00    -0.164 NA 
HETATM   12  H   UNL     1      -8.342  12.207  66.259  1.00  0.00     0.000 HD 
BRANCH  11  13
HETATM   13  C   UNL     1      -9.436  10.503  66.145  1.00  0.00    -0.180 C  
HETATM   14  C   UNL     1     -11.196  10.223  64.726  1.00  0.00     1.938 C  
HETATM   15  N   UNL     1     -10.137  11.121  65.144  1.00  0.00    -0.264 NA 
HETATM   16  C   UNL     1     -10.841   8.943  65.478  1.00  0.00     3.095 C  
HETATM   17  N   UNL     1      -9.863   9.333  66.517  1.00  0.00    -0.241 NA 
ENDBRANCH  11  13
ENDBRANCH   3  11
TORSDOF 2
ENDMDL
MODEL      180
REMARK 921   NORMALIZED FREE ENERGY PREDICTED BY IDOCK:   16.54 KCAL/MOL
REMARK 922        TOTAL FREE ENERGY PREDICTED BY IDOCK:   18.13 KCAL/MOL
REMARK 923 INTER-LIGAND FREE ENERGY PREDICTED BY IDOCK:   17.23 KCAL/MOL
REMARK 924 INTRA-LIGAND FREE ENERGY PREDICTED BY IDOCK:    0.90 KCAL/MOL
REMARK 927      BINDING AFFINITY PREDICTED BY RF-SCORE:    0.00 PKD
ROOT
HETATM    1 CL   UNL     1      -6.369  15.399  71.242  1.00  0.00     0.678 Cl 
HETATM    2  C   UNL     1      -6.622  14.388  69.849  1.00  0.00    -0.133 A  
HETATM    3  C   UNL     1      -7.682  13.440  69.781  1.00  0.00     1.140 A  
HETATM    4  C   UNL     1      -7.517  12.497  68.714  1.00  0.00    -0.049 A  
HETATM    5  C   UNL     1      -5.584  14.496  68.877  1.00  0.00    -0.086 A  
HETATM    6  N   UNL     1      -8.323  11.443  68.485  1.00  0.00    -0.152 NA 
HETATM    7  C   UNL     1      -5.437  13.628  67.788  1.00  0.00    -0.059 A  
HETATM    8  C   UNL     1      -6.387  12.591  67.721  1.00  0.00    -0.121 A  
HETATM    9  S   UNL     1      -7.692  10.637  67.176  1.00  0.00    -0.113 SA 
HETATM   10  N   UNL     1      -6.395  11.603  66.814  1.00  0.00    -0.140 NA 
ENDROOT
BRANCH   3  11
HETATM   11  N   UNL     1      -8.784  13.305  70.641  1.00  0.00     4.879 NA 
HETATM   12  H   UNL     1      -8.877  14.014  71.369  1.00  0.00     0.000 HD 
BRANCH  11  13
HETATM   13  C   UNL     1      -9.744  12.341  70.618  1.00  0.00     6.400 C  
HETATM   14  C   UNL     1     -11.792  11.597  69.950  1.00  0.00    -0.358 C  
HETATM   15  N   UNL     1     -10.848  12.697  69.888  1.00  0.00     0.479 NA 
HETATM   16  C   UNL     1     -10.964  10.507  70.625  1.00  0.00     0.015 C  
HETATM   17  N   UNL     1      -9.787  11.185  71.210  1.00  0.00     4.850 NA 
ENDBRANCH  11  13
ENDBRANCH   3  11
TORSDOF 2
ENDMDL
